
     RDKit          3D

 62 67  0  0  0  0  0  0  0  0999 V2000
    4.1205    0.3006   -1.5159 O   0  0  0  0  0  0  0  0  0  0  0  0
    3.4632   -0.1992   -0.5746 C   0  0  0  0  0  0  0  0  0  0  0  0
    4.1344   -0.4735    0.6102 O   0  0  0  0  0  0  0  0  0  0  0  0
    5.4808   -0.2285    0.8108 C   0  0  0  0  0  0  0  0  0  0  0  0
    5.9873    0.9465    1.3006 C   0  0  0  0  0  0  0  0  0  0  0  0
    7.3566    1.0342    1.4428 C   0  0  0  0  0  0  0  0  0  0  0  0
    8.2329    0.0186    1.1238 C   0  0  0  0  0  0  0  0  0  0  0  0
    9.6366    0.1748    1.2951 N   0  0  0  0  0  4  0  0  0  0  0  0
   10.4675   -0.7079    1.0238 O   0  0  0  0  0  0  0  0  0  0  0  0
   10.0995    1.3660    1.7870 O   0  0  0  0  0  1  0  0  0  0  0  0
    7.7076   -1.1755    0.6252 C   0  0  0  0  0  0  0  0  0  0  0  0
    6.3508   -1.2702    0.4813 C   0  0  0  0  0  0  0  0  0  0  0  0
    2.0895   -0.4605   -0.7495 N   0  0  0  0  0  0  0  0  0  0  0  0
    1.2842   -1.0348    0.2988 C   0  0  0  0  0  0  0  0  0  0  0  0
   -0.0838   -0.4289    0.4501 C   0  0  0  0  0  0  0  0  0  0  0  0
   -0.6524   -0.0573   -0.8753 C   0  0  0  0  0  0  0  0  0  0  0  0
   -2.0719    0.3196   -0.9289 C   0  0  0  0  0  0  0  0  0  0  0  0
   -2.3554    0.6255   -2.2887 O   0  0  0  0  0  0  0  0  0  0  0  0
   -2.5884    1.4000   -0.1322 C   0  0  0  0  0  0  0  0  0  0  0  0
   -1.8422    2.3675    0.4826 C   0  0  0  0  0  0  0  0  0  0  0  0
   -2.4440    3.3746    1.2450 C   0  0  0  0  0  0  0  0  0  0  0  0
   -3.8100    3.4353    1.4090 C   0  0  0  0  0  0  0  0  0  0  0  0
   -4.5683    2.4628    0.7915 C   0  0  0  0  0  0  0  0  0  0  0  0
   -3.9802    1.4692    0.0398 C   0  0  0  0  0  0  0  0  0  0  0  0
   -5.9002    2.7645    1.1220 O   0  0  0  0  0  0  0  0  0  0  0  0
   -5.9811    4.1049    1.5653 C   0  0  0  0  0  0  0  0  0  0  0  0
   -4.6601    4.2980    2.0917 O   0  0  0  0  0  0  0  0  0  0  0  0
   -2.8689   -0.9219   -0.6312 C   0  0  0  0  0  0  0  0  0  0  0  0
   -3.2756   -1.7236   -1.6696 C   0  0  0  0  0  0  0  0  0  0  0  0
   -4.0097   -2.8703   -1.4662 C   0  0  0  0  0  0  0  0  0  0  0  0
   -4.3407   -3.2129   -0.1685 C   0  0  0  0  0  0  0  0  0  0  0  0
   -3.9558   -2.4409    0.9042 C   0  0  0  0  0  0  0  0  0  0  0  0
   -3.2200   -1.3007    0.6355 C   0  0  0  0  0  0  0  0  0  0  0  0
   -4.4403   -3.0515    2.0499 O   0  0  0  0  0  0  0  0  0  0  0  0
   -5.3515   -4.0350    1.6599 C   0  0  0  0  0  0  0  0  0  0  0  0
   -5.0498   -4.2789    0.3202 O   0  0  0  0  0  0  0  0  0  0  0  0
    0.3142    0.8008   -1.6337 C   0  0  0  0  0  0  0  0  0  0  0  0
    1.4784   -0.1359   -2.0333 C   0  0  0  0  0  0  0  0  0  0  0  0
    5.3179    1.7477    1.5541 H   0  0  0  0  0  0  0  0  0  0  0  0
    7.7674    1.9643    1.8313 H   0  0  0  0  0  0  0  0  0  0  0  0
    8.3896   -1.9877    0.3686 H   0  0  0  0  0  0  0  0  0  0  0  0
    5.9603   -2.2094    0.0908 H   0  0  0  0  0  0  0  0  0  0  0  0
    1.2724   -2.1389    0.1987 H   0  0  0  0  0  0  0  0  0  0  0  0
    1.8253   -0.8253    1.2687 H   0  0  0  0  0  0  0  0  0  0  0  0
   -0.7148   -1.2944    0.8255 H   0  0  0  0  0  0  0  0  0  0  0  0
   -0.1486    0.3188    1.2427 H   0  0  0  0  0  0  0  0  0  0  0  0
   -0.6181   -1.0599   -1.4618 H   0  0  0  0  0  0  0  0  0  0  0  0
   -1.7608    0.1191   -2.8979 H   0  0  0  0  0  0  0  0  0  0  0  0
   -0.7695    2.4323    0.4286 H   0  0  0  0  0  0  0  0  0  0  0  0
   -1.8216    4.1308    1.7220 H   0  0  0  0  0  0  0  0  0  0  0  0
   -4.6426    0.7404   -0.4147 H   0  0  0  0  0  0  0  0  0  0  0  0
   -6.7405    4.2347    2.3658 H   0  0  0  0  0  0  0  0  0  0  0  0
   -6.1587    4.7591    0.6881 H   0  0  0  0  0  0  0  0  0  0  0  0
   -3.0217   -1.4655   -2.7021 H   0  0  0  0  0  0  0  0  0  0  0  0
   -4.3034   -3.4657   -2.3278 H   0  0  0  0  0  0  0  0  0  0  0  0
   -2.9294   -0.7071    1.4767 H   0  0  0  0  0  0  0  0  0  0  0  0
   -6.3848   -3.6421    1.7805 H   0  0  0  0  0  0  0  0  0  0  0  0
   -5.2118   -4.9926    2.2233 H   0  0  0  0  0  0  0  0  0  0  0  0
    0.8152    1.5590   -1.0033 H   0  0  0  0  0  0  0  0  0  0  0  0
   -0.0648    1.1996   -2.5815 H   0  0  0  0  0  0  0  0  0  0  0  0
    1.0099   -1.0391   -2.4377 H   0  0  0  0  0  0  0  0  0  0  0  0
    2.1794    0.3662   -2.7029 H   0  0  0  0  0  0  0  0  0  0  0  0
  1  2  2  0
  2  3  1  0
  3  4  1  0
  4  5  2  0
  5  6  1  0
  6  7  2  0
  7  8  1  0
  8  9  2  0
  8 10  1  0
  7 11  1  0
 11 12  2  0
  2 13  1  0
 13 14  1  0
 14 15  1  0
 15 16  1  0
 16 17  1  0
 17 18  1  0
 17 19  1  0
 19 20  2  0
 20 21  1  0
 21 22  2  0
 22 23  1  0
 23 24  2  0
 23 25  1  0
 25 26  1  0
 26 27  1  0
 17 28  1  0
 28 29  2  0
 29 30  1  0
 30 31  2  0
 31 32  1  0
 32 33  2  0
 32 34  1  0
 34 35  1  0
 35 36  1  0
 16 37  1  0
 37 38  1  0
 12  4  1  0
 38 13  1  0
 24 19  1  0
 33 28  1  0
 27 22  1  0
 36 31  1  0
  5 39  1  0
  6 40  1  0
 11 41  1  0
 12 42  1  0
 14 43  1  0
 14 44  1  0
 15 45  1  0
 15 46  1  0
 16 47  1  0
 18 48  1  0
 20 49  1  0
 21 50  1  0
 24 51  1  0
 26 52  1  0
 26 53  1  0
 29 54  1  0
 30 55  1  0
 33 56  1  0
 35 57  1  0
 35 58  1  0
 37 59  1  0
 37 60  1  0
 38 61  1  0
 38 62  1  0
M  CHG  2   8   1  10  -1
M  END
$$$$
