@<TRIPOS>MOLECULE
*****
 62 67 0 0 0
SMALL
GASTEIGER

@<TRIPOS>ATOM
      1 O           4.1205    0.3006   -1.5159 O.2     1  UNL1       -0.2258
      2 C           3.4632   -0.1992   -0.5746 C.2     1  UNL1        0.4082
      3 O           4.1344   -0.4735    0.6102 O.3     1  UNL1       -0.4114
      4 C           5.4808   -0.2285    0.8108 C.ar    1  UNL1        0.1337
      5 C           5.9873    0.9465    1.3006 C.ar    1  UNL1       -0.0128
      6 C           7.3566    1.0342    1.4428 C.ar    1  UNL1        0.0191
      7 C           8.2329    0.0186    1.1238 C.ar    1  UNL1        0.2734
      8 N           9.6366    0.1748    1.2951 N.pl3   1  UNL1        0.0796
      9 O          10.4675   -0.7079    1.0238 O.2     1  UNL1        0.0414
     10 O          10.0995    1.3660    1.7870 O.co2   1  UNL1       -0.5760
     11 C           7.7076   -1.1755    0.6252 C.ar    1  UNL1        0.0191
     12 C           6.3508   -1.2702    0.4813 C.ar    1  UNL1       -0.0128
     13 N           2.0895   -0.4605   -0.7495 N.am    1  UNL1       -0.2671
     14 C           1.2842   -1.0348    0.2988 C.3     1  UNL1        0.0182
     15 C          -0.0838   -0.4289    0.4501 C.3     1  UNL1       -0.0309
     16 C          -0.6524   -0.0573   -0.8753 C.3     1  UNL1       -0.0009
     17 C          -2.0719    0.3196   -0.9289 C.3     1  UNL1        0.1190
     18 O          -2.3554    0.6255   -2.2887 O.3     1  UNL1       -0.3790
     19 C          -2.5884    1.4000   -0.1322 C.ar    1  UNL1       -0.0078
     20 C          -1.8422    2.3675    0.4826 C.ar    1  UNL1       -0.0518
     21 C          -2.4440    3.3746    1.2450 C.ar    1  UNL1       -0.0158
     22 C          -3.8100    3.4353    1.4090 C.ar    1  UNL1        0.1662
     23 C          -4.5683    2.4628    0.7915 C.ar    1  UNL1        0.1666
     24 C          -3.9802    1.4692    0.0398 C.ar    1  UNL1       -0.0099
     25 O          -5.9002    2.7645    1.1220 O.3     1  UNL1       -0.4526
     26 C          -5.9811    4.1049    1.5653 C.3     1  UNL1        0.2332
     27 O          -4.6601    4.2980    2.0917 O.3     1  UNL1       -0.4526
     28 C          -2.8689   -0.9219   -0.6312 C.ar    1  UNL1       -0.0078
     29 C          -3.2756   -1.7236   -1.6696 C.ar    1  UNL1       -0.0518
     30 C          -4.0097   -2.8703   -1.4662 C.ar    1  UNL1       -0.0158
     31 C          -4.3407   -3.2129   -0.1685 C.ar    1  UNL1        0.1662
     32 C          -3.9558   -2.4409    0.9042 C.ar    1  UNL1        0.1666
     33 C          -3.2200   -1.3007    0.6355 C.ar    1  UNL1       -0.0099
     34 O          -4.4403   -3.0515    2.0499 O.3     1  UNL1       -0.4526
     35 C          -5.3515   -4.0350    1.6599 C.3     1  UNL1        0.2332
     36 O          -5.0498   -4.2789    0.3202 O.3     1  UNL1       -0.4526
     37 C           0.3142    0.8008   -1.6337 C.3     1  UNL1       -0.0309
     38 C           1.4784   -0.1359   -2.0333 C.3     1  UNL1        0.0182
     39 H           5.3179    1.7477    1.5541 H       1  UNL1        0.0656
     40 H           7.7674    1.9643    1.8313 H       1  UNL1        0.0686
     41 H           8.3896   -1.9877    0.3686 H       1  UNL1        0.0686
     42 H           5.9603   -2.2094    0.0908 H       1  UNL1        0.0656
     43 H           1.2724   -2.1389    0.1987 H       1  UNL1        0.0466
     44 H           1.8253   -0.8253    1.2687 H       1  UNL1        0.0466
     45 H          -0.7148   -1.2944    0.8255 H       1  UNL1        0.0284
     46 H          -0.1486    0.3188    1.2427 H       1  UNL1        0.0284
     47 H          -0.6181   -1.0599   -1.4618 H       1  UNL1        0.0336
     48 H          -1.7608    0.1191   -2.8979 H       1  UNL1        0.2111
     49 H          -0.7695    2.4323    0.4286 H       1  UNL1        0.0622
     50 H          -1.8216    4.1308    1.7220 H       1  UNL1        0.0655
     51 H          -4.6426    0.7404   -0.4147 H       1  UNL1        0.0659
     52 H          -6.7405    4.2347    2.3658 H       1  UNL1        0.1166
     53 H          -6.1587    4.7591    0.6881 H       1  UNL1        0.1166
     54 H          -3.0217   -1.4655   -2.7021 H       1  UNL1        0.0622
     55 H          -4.3034   -3.4657   -2.3278 H       1  UNL1        0.0655
     56 H          -2.9294   -0.7071    1.4767 H       1  UNL1        0.0659
     57 H          -6.3848   -3.6421    1.7805 H       1  UNL1        0.1166
     58 H          -5.2118   -4.9926    2.2233 H       1  UNL1        0.1166
     59 H           0.8152    1.5590   -1.0033 H       1  UNL1        0.0284
     60 H          -0.0648    1.1996   -2.5815 H       1  UNL1        0.0284
     61 H           1.0099   -1.0391   -2.4377 H       1  UNL1        0.0466
     62 H           2.1794    0.3662   -2.7029 H       1  UNL1        0.0466
@<TRIPOS>UNITY_ATOM_ATTR
8 1
charge 1
10 1
charge -1
@<TRIPOS>BOND
     1     1     2    2
     2     2     3    1
     3     3     4    1
     4     4     5   ar
     5     5     6   ar
     6     6     7   ar
     7     7     8    1
     8     8     9    2
     9     8    10    1
    10     7    11   ar
    11    11    12   ar
    12     2    13   am
    13    13    14    1
    14    14    15    1
    15    15    16    1
    16    16    17    1
    17    17    18    1
    18    17    19    1
    19    19    20   ar
    20    20    21   ar
    21    21    22   ar
    22    22    23   ar
    23    23    24   ar
    24    23    25    1
    25    25    26    1
    26    26    27    1
    27    17    28    1
    28    28    29   ar
    29    29    30   ar
    30    30    31   ar
    31    31    32   ar
    32    32    33   ar
    33    32    34    1
    34    34    35    1
    35    35    36    1
    36    16    37    1
    37    37    38    1
    38    12     4   ar
    39    38    13    1
    40    24    19   ar
    41    33    28   ar
    42    27    22    1
    43    36    31    1
    44     5    39    1
    45     6    40    1
    46    11    41    1
    47    12    42    1
    48    14    43    1
    49    14    44    1
    50    15    45    1
    51    15    46    1
    52    16    47    1
    53    18    48    1
    54    20    49    1
    55    21    50    1
    56    24    51    1
    57    26    52    1
    58    26    53    1
    59    29    54    1
    60    30    55    1
    61    33    56    1
    62    35    57    1
    63    35    58    1
    64    37    59    1
    65    37    60    1
    66    38    61    1
    67    38    62    1
