
     RDKit          3D

 87 92  0  0  0  0  0  0  0  0999 V2000
   -6.6985    3.5832   -1.4389 F   0  0  0  0  0  0  0  0  0  0  0  0
   -6.2494    3.1353   -2.6639 C   0  0  0  0  0  0  0  0  0  0  0  0
   -7.1255    2.1420   -3.0985 F   0  0  0  0  0  0  0  0  0  0  0  0
   -6.2703    4.2022   -3.5359 F   0  0  0  0  0  0  0  0  0  0  0  0
   -4.8599    2.5400   -2.5576 C   0  0  0  0  0  0  0  0  0  0  0  0
   -4.7654    1.4021   -1.6958 N   0  0  0  0  0  0  0  0  0  0  0  0
   -5.0025    1.0301   -0.3612 C   0  0  0  0  0  0  0  0  0  0  0  0
   -5.4519    2.1145    0.1944 O   0  0  0  0  0  0  0  0  0  0  0  0
   -4.9246   -0.0864    0.5482 C   0  0  0  0  0  0  0  0  0  0  0  0
   -3.6348   -0.5604    1.0816 C   0  0  0  0  0  0  0  0  0  0  0  0
   -2.7358    0.3151    1.8265 C   0  0  0  0  0  0  0  0  0  0  0  0
   -2.0998    1.4379    1.0480 C   0  0  0  0  0  0  0  0  0  0  0  0
   -1.2544    0.8714   -0.0861 C   0  0  0  0  0  0  0  0  0  0  0  0
   -0.2067    0.0079    0.4134 N   0  0  0  0  0  0  0  0  0  0  0  0
    0.3918   -0.6487   -0.7559 C   0  0  0  0  0  0  0  0  0  0  0  0
    1.6539   -1.3867   -0.3518 C   0  0  0  0  0  0  0  0  0  0  0  0
    2.7719   -0.3707   -0.0701 C   0  0  0  0  0  0  0  0  0  0  0  0
    2.1077    0.9106    0.2770 C   0  0  0  0  0  0  0  0  0  0  0  0
    0.8587    0.7081    1.1019 C   0  0  0  0  0  0  0  0  0  0  0  0
    3.6884   -0.8791    0.9076 N   0  0  0  0  0  0  0  0  0  0  0  0
    5.0186   -1.1323    0.5312 C   0  0  0  0  0  0  0  0  0  0  0  0
    5.4305   -0.9098   -0.6575 O   0  0  0  0  0  0  0  0  0  0  0  0
    6.2008   -1.6434    1.2038 C   0  0  0  0  0  0  0  0  0  0  0  0
    7.4900   -1.1780    1.1452 C   0  0  0  0  0  0  0  0  0  0  0  0
    8.4670   -1.8487    1.8693 C   0  0  0  0  0  0  0  0  0  0  0  0
    8.1880   -2.9557    2.6372 C   0  0  0  0  0  0  0  0  0  0  0  0
    6.8810   -3.4450    2.7099 C   0  0  0  0  0  0  0  0  0  0  0  0
    5.9060   -2.7610    1.9768 C   0  0  0  0  0  0  0  0  0  0  0  0
    7.7031   -0.0071    0.3134 C   0  0  0  0  0  0  0  0  0  0  0  0
    6.9900    1.1825    0.3086 C   0  0  0  0  0  0  0  0  0  0  0  0
    7.3018    2.2015   -0.5583 C   0  0  0  0  0  0  0  0  0  0  0  0
    8.3560    2.0675   -1.4687 C   0  0  0  0  0  0  0  0  0  0  0  0
    9.0781    0.8917   -1.4799 C   0  0  0  0  0  0  0  0  0  0  0  0
    8.7523   -0.1192   -0.6041 C   0  0  0  0  0  0  0  0  0  0  0  0
    8.7078    3.1545   -2.4183 C   0  0  0  0  0  0  0  0  0  0  0  0
    8.0812    4.3256   -1.9976 F   0  0  0  0  0  0  0  0  0  0  0  0
   10.0718    3.4246   -2.4178 F   0  0  0  0  0  0  0  0  0  0  0  0
    8.3548    2.8737   -3.7196 F   0  0  0  0  0  0  0  0  0  0  0  0
   -5.5972   -1.3320   -0.0746 C   0  0  0  0  0  0  0  0  0  0  0  0
   -4.9941   -1.9686   -1.1649 C   0  0  0  0  0  0  0  0  0  0  0  0
   -5.5994   -3.0908   -1.6892 C   0  0  0  0  0  0  0  0  0  0  0  0
   -6.7690   -3.5799   -1.1592 C   0  0  0  0  0  0  0  0  0  0  0  0
   -7.3201   -2.8996   -0.0721 C   0  0  0  0  0  0  0  0  0  0  0  0
   -6.7669   -1.7790    0.4957 C   0  0  0  0  0  0  0  0  0  0  0  0
   -6.9672   -0.8220    1.5716 C   0  0  0  0  0  0  0  0  0  0  0  0
   -8.0545   -0.8527    2.4515 C   0  0  0  0  0  0  0  0  0  0  0  0
   -8.1284    0.1194    3.4245 C   0  0  0  0  0  0  0  0  0  0  0  0
   -7.1601    1.0839    3.5204 C   0  0  0  0  0  0  0  0  0  0  0  0
   -6.0892    1.0797    2.6218 C   0  0  0  0  0  0  0  0  0  0  0  0
   -5.9671    0.1323    1.6306 C   0  0  0  0  0  0  0  0  0  0  0  0
   -4.4557    2.3038   -3.5728 H   0  0  0  0  0  0  0  0  0  0  0  0
   -4.1801    3.3390   -2.1462 H   0  0  0  0  0  0  0  0  0  0  0  0
   -4.3957    0.5166   -2.1699 H   0  0  0  0  0  0  0  0  0  0  0  0
   -3.9060   -1.4141    1.7912 H   0  0  0  0  0  0  0  0  0  0  0  0
   -3.0330   -1.1223    0.3031 H   0  0  0  0  0  0  0  0  0  0  0  0
   -3.1872    0.7844    2.7219 H   0  0  0  0  0  0  0  0  0  0  0  0
   -1.8924   -0.2998    2.2219 H   0  0  0  0  0  0  0  0  0  0  0  0
   -1.4184    1.9750    1.7259 H   0  0  0  0  0  0  0  0  0  0  0  0
   -2.7898    2.1622    0.6035 H   0  0  0  0  0  0  0  0  0  0  0  0
   -0.7670    1.7363   -0.5728 H   0  0  0  0  0  0  0  0  0  0  0  0
   -1.8182    0.3278   -0.8374 H   0  0  0  0  0  0  0  0  0  0  0  0
    0.6303    0.0837   -1.5468 H   0  0  0  0  0  0  0  0  0  0  0  0
   -0.3051   -1.4339   -1.1085 H   0  0  0  0  0  0  0  0  0  0  0  0
    1.4817   -2.0546    0.4969 H   0  0  0  0  0  0  0  0  0  0  0  0
    1.9790   -1.9759   -1.2137 H   0  0  0  0  0  0  0  0  0  0  0  0
    3.3591   -0.2143   -1.0224 H   0  0  0  0  0  0  0  0  0  0  0  0
    2.7933    1.5501    0.8945 H   0  0  0  0  0  0  0  0  0  0  0  0
    1.8044    1.4698   -0.6385 H   0  0  0  0  0  0  0  0  0  0  0  0
    1.1057    0.1801    2.0519 H   0  0  0  0  0  0  0  0  0  0  0  0
    0.5519    1.7272    1.4226 H   0  0  0  0  0  0  0  0  0  0  0  0
    3.5709   -1.1199    1.9019 H   0  0  0  0  0  0  0  0  0  0  0  0
    9.4866   -1.4569    1.8016 H   0  0  0  0  0  0  0  0  0  0  0  0
    9.0248   -3.4051    3.1591 H   0  0  0  0  0  0  0  0  0  0  0  0
    6.7255   -4.3024    3.3169 H   0  0  0  0  0  0  0  0  0  0  0  0
    4.9343   -3.2286    2.1097 H   0  0  0  0  0  0  0  0  0  0  0  0
    6.1784    1.2237    1.0512 H   0  0  0  0  0  0  0  0  0  0  0  0
    6.7336    3.1018   -0.5361 H   0  0  0  0  0  0  0  0  0  0  0  0
    9.9002    0.7911   -2.1971 H   0  0  0  0  0  0  0  0  0  0  0  0
    9.3823   -1.0056   -0.6933 H   0  0  0  0  0  0  0  0  0  0  0  0
   -4.0943   -1.7394   -1.6951 H   0  0  0  0  0  0  0  0  0  0  0  0
   -5.2114   -3.6706   -2.5453 H   0  0  0  0  0  0  0  0  0  0  0  0
   -7.2518   -4.4594   -1.5599 H   0  0  0  0  0  0  0  0  0  0  0  0
   -8.2372   -3.2206    0.4027 H   0  0  0  0  0  0  0  0  0  0  0  0
   -8.8335   -1.5973    2.4085 H   0  0  0  0  0  0  0  0  0  0  0  0
   -8.9801    0.0854    4.1082 H   0  0  0  0  0  0  0  0  0  0  0  0
   -7.2954    1.8081    4.3112 H   0  0  0  0  0  0  0  0  0  0  0  0
   -5.3483    1.8743    2.7480 H   0  0  0  0  0  0  0  0  0  0  0  0
  1  2  1  0
  2  3  1  0
  2  4  1  0
  2  5  1  0
  5  6  1  0
  6  7  1  0
  7  8  2  0
  7  9  1  0
  9 10  1  0
 10 11  1  0
 11 12  1  0
 12 13  1  0
 13 14  1  0
 14 15  1  0
 15 16  1  0
 16 17  1  0
 17 18  1  0
 18 19  1  0
 17 20  1  0
 20 21  1  0
 21 22  2  0
 21 23  1  0
 23 24  1  0
 24 25  2  0
 25 26  1  0
 26 27  2  0
 27 28  1  0
 24 29  1  0
 29 30  2  0
 30 31  1  0
 31 32  2  0
 32 33  1  0
 33 34  2  0
 32 35  1  0
 35 36  1  0
 35 37  1  0
 35 38  1  0
  9 39  1  0
 39 40  2  0
 40 41  1  0
 41 42  2  0
 42 43  1  0
 43 44  2  0
 44 45  1  0
 45 46  2  0
 46 47  1  0
 47 48  2  0
 48 49  1  0
 49 50  2  0
 50  9  1  0
 19 14  1  0
 28 23  2  0
 34 29  1  0
 44 39  1  0
 50 45  1  0
  5 51  1  0
  5 52  1  0
  6 53  1  0
 10 54  1  0
 10 55  1  0
 11 56  1  0
 11 57  1  0
 12 58  1  0
 12 59  1  0
 13 60  1  0
 13 61  1  0
 15 62  1  0
 15 63  1  0
 16 64  1  0
 16 65  1  0
 17 66  1  0
 18 67  1  0
 18 68  1  0
 19 69  1  0
 19 70  1  0
 20 71  1  0
 25 72  1  0
 26 73  1  0
 27 74  1  0
 28 75  1  0
 30 76  1  0
 31 77  1  0
 33 78  1  0
 34 79  1  0
 40 80  1  0
 41 81  1  0
 42 82  1  0
 43 83  1  0
 46 84  1  0
 47 85  1  0
 48 86  1  0
 49 87  1  0
M  END
$$$$
