@<TRIPOS>MOLECULE
*****
 87 92 0 0 0
SMALL
GASTEIGER

@<TRIPOS>ATOM
      1 F          -6.6985    3.5832   -1.4389 F       1  UNL1       -0.1690
      2 C          -6.2494    3.1353   -2.6639 C.3     1  UNL1        0.4050
      3 F          -7.1255    2.1420   -3.0985 F       1  UNL1       -0.1690
      4 F          -6.2703    4.2022   -3.5359 F       1  UNL1       -0.1690
      5 C          -4.8599    2.5400   -2.5576 C.3     1  UNL1        0.1069
      6 N          -4.7654    1.4021   -1.6958 N.am    1  UNL1       -0.3057
      7 C          -5.0025    1.0301   -0.3612 C.2     1  UNL1        0.2282
      8 O          -5.4519    2.1145    0.1944 O.2     1  UNL1       -0.2745
      9 C          -4.9246   -0.0864    0.5482 C.3     1  UNL1        0.0977
     10 C          -3.6348   -0.5604    1.0816 C.3     1  UNL1       -0.0308
     11 C          -2.7358    0.3151    1.8265 C.3     1  UNL1       -0.0503
     12 C          -2.0998    1.4379    1.0480 C.3     1  UNL1       -0.0402
     13 C          -1.2544    0.8714   -0.0861 C.3     1  UNL1       -0.0011
     14 N          -0.2067    0.0079    0.4134 N.3     1  UNL1       -0.3022
     15 C           0.3918   -0.6487   -0.7559 C.3     1  UNL1        0.0006
     16 C           1.6539   -1.3867   -0.3518 C.3     1  UNL1       -0.0216
     17 C           2.7719   -0.3707   -0.0701 C.3     1  UNL1        0.0257
     18 C           2.1077    0.9106    0.2770 C.3     1  UNL1       -0.0216
     19 C           0.8587    0.7081    1.1019 C.3     1  UNL1        0.0006
     20 N           3.6884   -0.8791    0.9076 N.am    1  UNL1       -0.3084
     21 C           5.0186   -1.1323    0.5312 C.2     1  UNL1        0.2449
     22 O           5.4305   -0.9098   -0.6575 O.2     1  UNL1       -0.2702
     23 C           6.2008   -1.6434    1.2038 C.ar    1  UNL1        0.0444
     24 C           7.4900   -1.1780    1.1452 C.ar    1  UNL1       -0.0058
     25 C           8.4670   -1.8487    1.8693 C.ar    1  UNL1       -0.0533
     26 C           8.1880   -2.9557    2.6372 C.ar    1  UNL1       -0.0611
     27 C           6.8810   -3.4450    2.7099 C.ar    1  UNL1       -0.0610
     28 C           5.9060   -2.7610    1.9768 C.ar    1  UNL1       -0.0490
     29 C           7.7031   -0.0071    0.3134 C.ar    1  UNL1       -0.0171
     30 C           6.9900    1.1825    0.3086 C.ar    1  UNL1       -0.0535
     31 C           7.3018    2.2015   -0.5583 C.ar    1  UNL1       -0.0495
     32 C           8.3560    2.0675   -1.4687 C.ar    1  UNL1        0.0548
     33 C           9.0781    0.8917   -1.4799 C.ar    1  UNL1       -0.0495
     34 C           8.7523   -0.1192   -0.6041 C.ar    1  UNL1       -0.0535
     35 C           8.7078    3.1545   -2.4183 C.3     1  UNL1        0.4174
     36 F           8.0812    4.3256   -1.9976 F       1  UNL1       -0.1659
     37 F          10.0718    3.4246   -2.4178 F       1  UNL1       -0.1659
     38 F           8.3548    2.8737   -3.7196 F       1  UNL1       -0.1659
     39 C          -5.5972   -1.3320   -0.0746 C.ar    1  UNL1       -0.0204
     40 C          -4.9941   -1.9686   -1.1649 C.ar    1  UNL1       -0.0567
     41 C          -5.5994   -3.0908   -1.6892 C.ar    1  UNL1       -0.0614
     42 C          -6.7690   -3.5799   -1.1592 C.ar    1  UNL1       -0.0612
     43 C          -7.3201   -2.8996   -0.0721 C.ar    1  UNL1       -0.0537
     44 C          -6.7669   -1.7790    0.4957 C.ar    1  UNL1       -0.0131
     45 C          -6.9672   -0.8220    1.5716 C.ar    1  UNL1       -0.0131
     46 C          -8.0545   -0.8527    2.4515 C.ar    1  UNL1       -0.0537
     47 C          -8.1284    0.1194    3.4245 C.ar    1  UNL1       -0.0612
     48 C          -7.1601    1.0839    3.5204 C.ar    1  UNL1       -0.0614
     49 C          -6.0892    1.0797    2.6218 C.ar    1  UNL1       -0.0567
     50 C          -5.9671    0.1323    1.6306 C.ar    1  UNL1       -0.0204
     51 H          -4.4557    2.3038   -3.5728 H       1  UNL1        0.0550
     52 H          -4.1801    3.3390   -2.1462 H       1  UNL1        0.0550
     53 H          -4.3957    0.5166   -2.1699 H       1  UNL1        0.1490
     54 H          -3.9060   -1.4141    1.7912 H       1  UNL1        0.0282
     55 H          -3.0330   -1.1223    0.3031 H       1  UNL1        0.0282
     56 H          -3.1872    0.7844    2.7219 H       1  UNL1        0.0266
     57 H          -1.8924   -0.2998    2.2219 H       1  UNL1        0.0266
     58 H          -1.4184    1.9750    1.7259 H       1  UNL1        0.0278
     59 H          -2.7898    2.1622    0.6035 H       1  UNL1        0.0278
     60 H          -0.7670    1.7363   -0.5728 H       1  UNL1        0.0426
     61 H          -1.8182    0.3278   -0.8374 H       1  UNL1        0.0426
     62 H           0.6303    0.0837   -1.5468 H       1  UNL1        0.0427
     63 H          -0.3051   -1.4339   -1.1085 H       1  UNL1        0.0427
     64 H           1.4817   -2.0546    0.4969 H       1  UNL1        0.0295
     65 H           1.9790   -1.9759   -1.2137 H       1  UNL1        0.0295
     66 H           3.3591   -0.2143   -1.0224 H       1  UNL1        0.0499
     67 H           2.7933    1.5501    0.8945 H       1  UNL1        0.0295
     68 H           1.8044    1.4698   -0.6385 H       1  UNL1        0.0295
     69 H           1.1057    0.1801    2.0519 H       1  UNL1        0.0427
     70 H           0.5519    1.7272    1.4226 H       1  UNL1        0.0427
     71 H           3.5709   -1.1199    1.9019 H       1  UNL1        0.1493
     72 H           9.4866   -1.4569    1.8016 H       1  UNL1        0.0624
     73 H           9.0248   -3.4051    3.1591 H       1  UNL1        0.0618
     74 H           6.7255   -4.3024    3.3169 H       1  UNL1        0.0618
     75 H           4.9343   -3.2286    2.1097 H       1  UNL1        0.0625
     76 H           6.1784    1.2237    1.0512 H       1  UNL1        0.0624
     77 H           6.7336    3.1018   -0.5361 H       1  UNL1        0.0623
     78 H           9.9002    0.7911   -2.1971 H       1  UNL1        0.0623
     79 H           9.3823   -1.0056   -0.6933 H       1  UNL1        0.0624
     80 H          -4.0943   -1.7394   -1.6951 H       1  UNL1        0.0621
     81 H          -5.2114   -3.6706   -2.5453 H       1  UNL1        0.0618
     82 H          -7.2518   -4.4594   -1.5599 H       1  UNL1        0.0618
     83 H          -8.2372   -3.2206    0.4027 H       1  UNL1        0.0624
     84 H          -8.8335   -1.5973    2.4085 H       1  UNL1        0.0624
     85 H          -8.9801    0.0854    4.1082 H       1  UNL1        0.0618
     86 H          -7.2954    1.8081    4.3112 H       1  UNL1        0.0618
     87 H          -5.3483    1.8743    2.7480 H       1  UNL1        0.0621
@<TRIPOS>BOND
     1     1     2    1
     2     2     3    1
     3     2     4    1
     4     2     5    1
     5     5     6    1
     6     6     7   am
     7     7     8    2
     8     7     9    1
     9     9    10    1
    10    10    11    1
    11    11    12    1
    12    12    13    1
    13    13    14    1
    14    14    15    1
    15    15    16    1
    16    16    17    1
    17    17    18    1
    18    18    19    1
    19    17    20    1
    20    20    21   am
    21    21    22    2
    22    21    23    1
    23    23    24   ar
    24    24    25   ar
    25    25    26   ar
    26    26    27   ar
    27    27    28   ar
    28    24    29    1
    29    29    30   ar
    30    30    31   ar
    31    31    32   ar
    32    32    33   ar
    33    33    34   ar
    34    32    35    1
    35    35    36    1
    36    35    37    1
    37    35    38    1
    38     9    39    1
    39    39    40   ar
    40    40    41   ar
    41    41    42   ar
    42    42    43   ar
    43    43    44   ar
    44    44    45    1
    45    45    46   ar
    46    46    47   ar
    47    47    48   ar
    48    48    49   ar
    49    49    50   ar
    50    50     9    1
    51    19    14    1
    52    28    23   ar
    53    34    29   ar
    54    44    39   ar
    55    50    45   ar
    56     5    51    1
    57     5    52    1
    58     6    53    1
    59    10    54    1
    60    10    55    1
    61    11    56    1
    62    11    57    1
    63    12    58    1
    64    12    59    1
    65    13    60    1
    66    13    61    1
    67    15    62    1
    68    15    63    1
    69    16    64    1
    70    16    65    1
    71    17    66    1
    72    18    67    1
    73    18    68    1
    74    19    69    1
    75    19    70    1
    76    20    71    1
    77    25    72    1
    78    26    73    1
    79    27    74    1
    80    28    75    1
    81    30    76    1
    82    31    77    1
    83    33    78    1
    84    34    79    1
    85    40    80    1
    86    41    81    1
    87    42    82    1
    88    43    83    1
    89    46    84    1
    90    47    85    1
    91    48    86    1
    92    49    87    1
