
     RDKit          3D

 60 64  0  0  0  0  0  0  0  0999 V2000
   -1.1865    0.0521   -2.4816 C   0  0  0  0  0  0  0  0  0  0  0  0
   -1.8947    0.5784   -1.3523 O   0  0  0  0  0  0  0  0  0  0  0  0
   -1.2410    0.7827   -0.1470 C   0  0  0  0  0  0  0  0  0  0  0  0
    0.0978    0.4745   -0.0460 C   0  0  0  0  0  0  0  0  0  0  0  0
    0.7951    0.6591    1.1314 C   0  0  0  0  0  0  0  0  0  0  0  0
    0.0809    1.1674    2.1980 C   0  0  0  0  0  0  0  0  0  0  0  0
   -1.2589    1.4819    2.1164 C   0  0  0  0  0  0  0  0  0  0  0  0
   -1.9435    1.2865    0.9146 C   0  0  0  0  0  0  0  0  0  0  0  0
   -3.2711    1.5743    0.7562 O   0  0  0  0  0  0  0  0  0  0  0  0
   -4.1485    2.0895    1.7099 C   0  0  0  0  0  0  0  0  0  0  0  0
   -5.5279    2.2630    1.1403 C   0  0  0  0  0  0  0  0  0  0  0  0
   -6.0964    0.9616    0.6627 C   0  0  0  0  0  0  0  0  0  0  0  0
   -5.3172    0.3222   -0.3791 N   0  0  0  0  0  0  0  0  0  0  0  0
   -6.0135   -0.9110   -0.6984 C   0  0  0  0  0  0  0  0  0  0  0  0
   -6.4225   -0.8338   -2.1537 C   0  0  0  0  0  0  0  0  0  0  0  0
   -5.3392    0.0628   -2.7172 C   0  0  0  0  0  0  0  0  0  0  0  0
   -5.2922    1.1091   -1.5950 C   0  0  0  0  0  0  0  0  0  0  0  0
    0.7768    1.3409    3.3386 N   0  0  0  0  0  0  0  0  0  0  0  0
    2.0990    1.0279    3.4112 C   0  0  0  0  0  0  0  0  0  0  0  0
    2.8142    0.5253    2.3640 N   0  0  0  0  0  0  0  0  0  0  0  0
    2.1416    0.3367    1.1931 C   0  0  0  0  0  0  0  0  0  0  0  0
    2.7212   -0.1656    0.0350 O   0  0  0  0  0  0  0  0  0  0  0  0
    4.0583   -0.5289   -0.0435 C   0  0  0  0  0  0  0  0  0  0  0  0
    4.7357   -1.4816    0.6905 C   0  0  0  0  0  0  0  0  0  0  0  0
    3.9675   -2.1338    1.6024 F   0  0  0  0  0  0  0  0  0  0  0  0
    6.0784   -1.6880    0.4520 C   0  0  0  0  0  0  0  0  0  0  0  0
    6.7575   -0.9641   -0.5025 C   0  0  0  0  0  0  0  0  0  0  0  0
    8.0306   -1.4089   -0.4778 N   0  0  0  0  0  0  0  0  0  0  0  0
    8.1556   -2.3855    0.4640 C   0  0  0  0  0  0  0  0  0  0  0  0
    9.4297   -3.1032    0.7632 C   0  0  0  0  0  0  0  0  0  0  0  0
    6.9265   -2.5954    1.0837 C   0  0  0  0  0  0  0  0  0  0  0  0
    6.0930    0.0049   -1.2573 C   0  0  0  0  0  0  0  0  0  0  0  0
    4.7321    0.2148   -1.0163 C   0  0  0  0  0  0  0  0  0  0  0  0
   -1.8534   -0.0320   -3.3546 H   0  0  0  0  0  0  0  0  0  0  0  0
   -0.3244    0.7191   -2.6830 H   0  0  0  0  0  0  0  0  0  0  0  0
   -0.7681   -0.9573   -2.2360 H   0  0  0  0  0  0  0  0  0  0  0  0
    0.5903    0.0737   -0.9452 H   0  0  0  0  0  0  0  0  0  0  0  0
   -1.7945    1.8751    2.9554 H   0  0  0  0  0  0  0  0  0  0  0  0
   -4.2348    1.3515    2.5501 H   0  0  0  0  0  0  0  0  0  0  0  0
   -3.8169    3.0328    2.1889 H   0  0  0  0  0  0  0  0  0  0  0  0
   -5.5749    3.0107    0.3338 H   0  0  0  0  0  0  0  0  0  0  0  0
   -6.1789    2.6116    1.9670 H   0  0  0  0  0  0  0  0  0  0  0  0
   -7.1198    1.1186    0.2757 H   0  0  0  0  0  0  0  0  0  0  0  0
   -6.1670    0.2453    1.5085 H   0  0  0  0  0  0  0  0  0  0  0  0
   -6.8609   -1.1219   -0.0322 H   0  0  0  0  0  0  0  0  0  0  0  0
   -5.3106   -1.7889   -0.6372 H   0  0  0  0  0  0  0  0  0  0  0  0
   -7.3853   -0.2868   -2.2060 H   0  0  0  0  0  0  0  0  0  0  0  0
   -6.4355   -1.8284   -2.6355 H   0  0  0  0  0  0  0  0  0  0  0  0
   -5.5826    0.5029   -3.6831 H   0  0  0  0  0  0  0  0  0  0  0  0
   -4.3990   -0.5362   -2.6902 H   0  0  0  0  0  0  0  0  0  0  0  0
   -4.3943    1.7060   -1.7457 H   0  0  0  0  0  0  0  0  0  0  0  0
   -6.2524    1.6653   -1.6769 H   0  0  0  0  0  0  0  0  0  0  0  0
    2.6981    1.1555    4.3227 H   0  0  0  0  0  0  0  0  0  0  0  0
    8.7459   -1.0071   -1.1199 H   0  0  0  0  0  0  0  0  0  0  0  0
   10.0639   -2.4619    1.4068 H   0  0  0  0  0  0  0  0  0  0  0  0
    9.9294   -3.3138   -0.2234 H   0  0  0  0  0  0  0  0  0  0  0  0
    9.2184   -4.0746    1.2679 H   0  0  0  0  0  0  0  0  0  0  0  0
    6.6990   -3.2952    1.8638 H   0  0  0  0  0  0  0  0  0  0  0  0
    6.6598    0.5457   -1.9900 H   0  0  0  0  0  0  0  0  0  0  0  0
    4.3100    0.9747   -1.6410 H   0  0  0  0  0  0  0  0  0  0  0  0
  1  2  1  0
  2  3  1  0
  3  4  2  0
  4  5  1  0
  5  6  2  0
  6  7  1  0
  7  8  2  0
  8  9  1  0
  9 10  1  0
 10 11  1  0
 11 12  1  0
 12 13  1  0
 13 14  1  0
 14 15  1  0
 15 16  1  0
 16 17  1  0
  6 18  1  0
 18 19  2  0
 19 20  1  0
 20 21  2  0
 21 22  1  0
 22 23  1  0
 23 24  2  0
 24 25  1  0
 24 26  1  0
 26 27  2  0
 27 28  1  0
 28 29  1  0
 29 30  1  0
 29 31  2  0
 27 32  1  0
 32 33  2  0
  8  3  1  0
 17 13  1  0
 33 23  1  0
 21  5  1  0
 31 26  1  0
  1 34  1  0
  1 35  1  0
  1 36  1  0
  4 37  1  0
  7 38  1  0
 10 39  1  0
 10 40  1  0
 11 41  1  0
 11 42  1  0
 12 43  1  0
 12 44  1  0
 14 45  1  0
 14 46  1  0
 15 47  1  0
 15 48  1  0
 16 49  1  0
 16 50  1  0
 17 51  1  0
 17 52  1  0
 19 53  1  0
 28 54  1  0
 30 55  1  0
 30 56  1  0
 30 57  1  0
 31 58  1  0
 32 59  1  0
 33 60  1  0
M  END
$$$$
