@<TRIPOS>MOLECULE
*****
 60 64 0 0 0
SMALL
GASTEIGER

@<TRIPOS>ATOM
      1 C          -1.1865    0.0521   -2.4816 C.3     1  UNL1        0.0790
      2 O          -1.8947    0.5784   -1.3523 O.3     1  UNL1       -0.4914
      3 C          -1.2410    0.7827   -0.1470 C.ar    1  UNL1        0.1624
      4 C           0.0978    0.4745   -0.0460 C.ar    1  UNL1       -0.0020
      5 C           0.7951    0.6591    1.1314 C.ar    1  UNL1        0.0660
      6 C           0.0809    1.1674    2.1980 C.ar    1  UNL1        0.0815
      7 C          -1.2589    1.4819    2.1164 C.ar    1  UNL1        0.0099
      8 C          -1.9435    1.2865    0.9146 C.ar    1  UNL1        0.1639
      9 O          -3.2711    1.5743    0.7562 O.3     1  UNL1       -0.4882
     10 C          -4.1485    2.0895    1.7099 C.3     1  UNL1        0.0909
     11 C          -5.5279    2.2630    1.1403 C.3     1  UNL1       -0.0058
     12 C          -6.0964    0.9616    0.6627 C.3     1  UNL1        0.0020
     13 N          -5.3172    0.3222   -0.3791 N.3     1  UNL1       -0.3022
     14 C          -6.0135   -0.9110   -0.6984 C.3     1  UNL1       -0.0011
     15 C          -6.4225   -0.8338   -2.1537 C.3     1  UNL1       -0.0390
     16 C          -5.3392    0.0628   -2.7172 C.3     1  UNL1       -0.0390
     17 C          -5.2922    1.1091   -1.5950 C.3     1  UNL1       -0.0011
     18 N           0.7768    1.3409    3.3386 N.ar    1  UNL1       -0.2350
     19 C           2.0990    1.0279    3.4112 C.ar    1  UNL1        0.1204
     20 N           2.8142    0.5253    2.3640 N.ar    1  UNL1       -0.2006
     21 C           2.1416    0.3367    1.1931 C.ar    1  UNL1        0.2313
     22 O           2.7212   -0.1656    0.0350 O.3     1  UNL1       -0.4344
     23 C           4.0583   -0.5289   -0.0435 C.ar    1  UNL1        0.1661
     24 C           4.7357   -1.4816    0.6905 C.ar    1  UNL1        0.1746
     25 F           3.9675   -2.1338    1.6024 F       1  UNL1       -0.2009
     26 C           6.0784   -1.6880    0.4520 C.ar    1  UNL1        0.0387
     27 C           6.7575   -0.9641   -0.5025 C.ar    1  UNL1        0.0497
     28 N           8.0306   -1.4089   -0.4778 N.ar    1  UNL1       -0.3581
     29 C           8.1556   -2.3855    0.4640 C.ar    1  UNL1        0.0140
     30 C           9.4297   -3.1032    0.7632 C.3     1  UNL1       -0.0244
     31 C           6.9265   -2.5954    1.0837 C.ar    1  UNL1       -0.0308
     32 C           6.0930    0.0049   -1.2573 C.ar    1  UNL1       -0.0341
     33 C           4.7321    0.2148   -1.0163 C.ar    1  UNL1       -0.0144
     34 H          -1.8534   -0.0320   -3.3546 H       1  UNL1        0.0660
     35 H          -0.3244    0.7191   -2.6830 H       1  UNL1        0.0660
     36 H          -0.7681   -0.9573   -2.2360 H       1  UNL1        0.0660
     37 H           0.5903    0.0737   -0.9452 H       1  UNL1        0.0663
     38 H          -1.7945    1.8751    2.9554 H       1  UNL1        0.0677
     39 H          -4.2348    1.3515    2.5501 H       1  UNL1        0.0697
     40 H          -3.8169    3.0328    2.1889 H       1  UNL1        0.0697
     41 H          -5.5749    3.0107    0.3338 H       1  UNL1        0.0310
     42 H          -6.1789    2.6116    1.9670 H       1  UNL1        0.0310
     43 H          -7.1198    1.1186    0.2757 H       1  UNL1        0.0428
     44 H          -6.1670    0.2453    1.5085 H       1  UNL1        0.0428
     45 H          -6.8609   -1.1219   -0.0322 H       1  UNL1        0.0426
     46 H          -5.3106   -1.7889   -0.6372 H       1  UNL1        0.0426
     47 H          -7.3853   -0.2868   -2.2060 H       1  UNL1        0.0278
     48 H          -6.4355   -1.8284   -2.6355 H       1  UNL1        0.0278
     49 H          -5.5826    0.5029   -3.6831 H       1  UNL1        0.0278
     50 H          -4.3990   -0.5362   -2.6902 H       1  UNL1        0.0278
     51 H          -4.3943    1.7060   -1.7457 H       1  UNL1        0.0426
     52 H          -6.2524    1.6653   -1.6769 H       1  UNL1        0.0426
     53 H           2.6981    1.1555    4.3227 H       1  UNL1        0.1048
     54 H           8.7459   -1.0071   -1.1199 H       1  UNL1        0.1656
     55 H          10.0639   -2.4619    1.4068 H       1  UNL1        0.0292
     56 H           9.9294   -3.3138   -0.2234 H       1  UNL1        0.0292
     57 H           9.2184   -4.0746    1.2679 H       1  UNL1        0.0292
     58 H           6.6990   -3.2952    1.8638 H       1  UNL1        0.0642
     59 H           6.6598    0.5457   -1.9900 H       1  UNL1        0.0639
     60 H           4.3100    0.9747   -1.6410 H       1  UNL1        0.0656
@<TRIPOS>BOND
     1     1     2    1
     2     2     3    1
     3     3     4   ar
     4     4     5   ar
     5     5     6   ar
     6     6     7   ar
     7     7     8   ar
     8     8     9    1
     9     9    10    1
    10    10    11    1
    11    11    12    1
    12    12    13    1
    13    13    14    1
    14    14    15    1
    15    15    16    1
    16    16    17    1
    17     6    18   ar
    18    18    19   ar
    19    19    20   ar
    20    20    21   ar
    21    21    22    1
    22    22    23    1
    23    23    24   ar
    24    24    25    1
    25    24    26   ar
    26    26    27   ar
    27    27    28   ar
    28    28    29   ar
    29    29    30    1
    30    29    31   ar
    31    27    32   ar
    32    32    33   ar
    33     8     3   ar
    34    17    13    1
    35    33    23   ar
    36    21     5   ar
    37    31    26   ar
    38     1    34    1
    39     1    35    1
    40     1    36    1
    41     4    37    1
    42     7    38    1
    43    10    39    1
    44    10    40    1
    45    11    41    1
    46    11    42    1
    47    12    43    1
    48    12    44    1
    49    14    45    1
    50    14    46    1
    51    15    47    1
    52    15    48    1
    53    16    49    1
    54    16    50    1
    55    17    51    1
    56    17    52    1
    57    19    53    1
    58    28    54    1
    59    30    55    1
    60    30    56    1
    61    30    57    1
    62    31    58    1
    63    32    59    1
    64    33    60    1
