@<TRIPOS>MOLECULE
*****
 59 63 0 0 0
SMALL
GASTEIGER

@<TRIPOS>ATOM
      1 N1         -6.2358   -2.8814    1.9650 N.3     1  <1>        -0.2035
      2 S1         -5.0244   -4.0561    1.4923 S.O2    1  <1>         0.0559
      3 O1         -4.4504   -4.7487    2.6663 O.2     1  <1>        -0.1533
      4 O2         -5.7028   -5.0439    0.5882 O.2     1  <1>        -0.1533
      5 C1         -3.7896   -3.2194    0.5482 C.ar    1  <1>         0.1050
      6 C2         -2.5432   -2.9037    1.0233 C.ar    1  <1>        -0.0351
      7 C3         -1.6437   -2.1762    0.2268 C.ar    1  <1>        -0.0564
      8 C4         -1.9858   -1.7746   -1.0148 C.ar    1  <1>        -0.0428
      9 C5         -1.1747   -1.0000   -1.9817 C.3     1  <1>         0.0017
     10 C6         -0.6481    0.2736   -1.4897 C.ar    1  <1>         0.0146
     11 C7          0.6232    0.5765   -1.1000 C.ar    1  <1>         0.0972
     12 C8          1.8630   -0.1973   -1.2591 C.ar    1  <1>         0.0030
     13 C9          2.1143   -0.8506   -2.4578 C.ar    1  <1>        -0.0525
     14 C10         3.2604   -1.5607   -2.6630 C.ar    1  <1>        -0.0606
     15 C11         4.2017   -1.6343   -1.6587 C.ar    1  <1>        -0.0540
     16 C12         4.0191   -1.0089   -0.4477 C.ar    1  <1>        -0.0173
     17 C13         5.0244   -1.0520    0.6026 C.ar    1  <1>        -0.0179
     18 C14         5.8235   -2.1526    0.7701 C.ar    1  <1>        -0.0540
     19 C15         6.8206   -2.1820    1.7411 C.ar    1  <1>        -0.0612
     20 C16         7.0231   -1.0934    2.5590 C.ar    1  <1>        -0.0617
     21 C17         6.2264    0.0335    2.4093 C.ar    1  <1>        -0.0612
     22 C18         5.2584    0.0229    1.4451 C.ar    1  <1>        -0.0540
     23 C19         2.8275   -0.2964   -0.2857 C.ar    1  <1>        -0.0448
     24 N2          0.6104    1.8238   -0.5865 N.ar    1  <1>        -0.1638
     25 N3         -0.5986    2.3347   -0.6309 N.ar    1  <1>        -0.2030
     26 C20        -0.9788    3.6690   -0.1498 C.ar    1  <1>         0.1949
     27 N4         -1.4563    4.2714    0.6864 N.ar    1  <1>        -0.2145
     28 C21        -1.6554    5.5582    0.7895 C.ar    1  <1>         0.1568
     29 C22        -2.2929    6.2348    1.9433 C.2     1  <1>         0.3559
     30 O3         -2.6952    5.6075    2.9554 O.2     1  <1>        -0.2434
     31 O4         -2.4760    7.6131    1.9515 O.3     1  <1>        -0.4761
     32 C23        -1.2146    6.3097   -0.2909 C.ar    1  <1>         0.0116
     33 S2         -0.5469    5.0731   -1.3658 S.2     1  <1>        -0.0554
     34 C24        -1.4079    1.4107   -1.1823 C.ar    1  <1>         0.1534
     35 C25        -2.8633    1.6172   -1.3884 C.3     1  <1>         0.4347
     36 F1         -3.1911    1.4601   -2.7256 F       1  <1>        -0.1644
     37 F2         -3.6320    0.8656   -0.5475 F       1  <1>        -0.1644
     38 F3         -3.2021    2.9529   -1.1073 F       1  <1>        -0.1644
     39 C26        -3.2586   -2.1130   -1.4691 C.ar    1  <1>        -0.0564
     40 C27        -4.1649   -2.8233   -0.7197 C.ar    1  <1>        -0.0351
     41 H1         -6.1905   -2.0992    1.2443 H       1  <1>         0.1442
     42 H2         -7.1888   -3.3321    1.8931 H       1  <1>         0.1442
     43 H3         -2.2838   -3.2213    2.0191 H       1  <1>         0.0637
     44 H4         -0.6632   -1.9352    0.6007 H       1  <1>         0.0621
     45 H5         -1.6765   -0.9669   -2.9635 H       1  <1>         0.0363
     46 H6         -0.2906   -1.6980   -2.1554 H       1  <1>         0.0363
     47 H7          1.3683   -0.7377   -3.2440 H       1  <1>         0.0624
     48 H8          3.4279   -2.0671   -3.6179 H       1  <1>         0.0618
     49 H9          5.1313   -2.2085   -1.8140 H       1  <1>         0.0624
     50 H10         5.6303   -3.0048    0.1017 H       1  <1>         0.0624
     51 H11         7.4286   -3.0727    1.8381 H       1  <1>         0.0618
     52 H12         7.8092   -1.0953    3.3252 H       1  <1>         0.0618
     53 H13         6.4175    0.8891    3.0756 H       1  <1>         0.0618
     54 H14         4.6204    0.8899    1.3003 H       1  <1>         0.0624
     55 H15         2.6726    0.2011    0.6581 H       1  <1>         0.0630
     56 H16        -3.0827    8.0244    2.6488 H       1  <1>         0.2955
     57 H17        -1.2401    7.3963   -0.4866 H       1  <1>         0.0718
     58 H18        -3.5963   -1.8174   -2.4792 H       1  <1>         0.0621
     59 H19        -5.1564   -3.0845   -1.1019 H       1  <1>         0.0637
@<TRIPOS>BOND
     1     1     2    1
     2     2     3    2
     3     2     4    2
     4     2     5    1
     5     5     6   ar
     6     6     7   ar
     7     7     8   ar
     8     8     9    1
     9     9    10    1
    10    10    11   ar
    11    11    12    1
    12    12    13   ar
    13    13    14   ar
    14    14    15   ar
    15    15    16   ar
    16    16    17    1
    17    17    18   ar
    18    18    19   ar
    19    19    20   ar
    20    20    21   ar
    21    21    22   ar
    22    16    23   ar
    23    11    24   ar
    24    24    25   ar
    25    25    26    1
    26    26    27   ar
    27    27    28   ar
    28    28    29    1
    29    29    30    2
    30    29    31    1
    31    28    32   ar
    32    32    33   ar
    33    25    34   ar
    34    34    35    1
    35    35    36    1
    36    35    37    1
    37    35    38    1
    38     8    39   ar
    39    39    40   ar
    40    40     5   ar
    41    34    10   ar
    42    23    12   ar
    43    33    26   ar
    44    22    17   ar
    45     1    41    1
    46     1    42    1
    47     6    43    1
    48     7    44    1
    49     9    45    1
    50     9    46    1
    51    13    47    1
    52    14    48    1
    53    15    49    1
    54    18    50    1
    55    19    51    1
    56    20    52    1
    57    21    53    1
    58    22    54    1
    59    23    55    1
    60    31    56    1
    61    32    57    1
    62    39    58    1
    63    40    59    1
