
     RDKit          3D

 66 71  0  0  0  0  0  0  0  0999 V2000
   -1.3412   -5.8730   -1.0378 C   0  0  0  0  0  0  0  0  0  0  0  0
    0.0769   -5.7395   -0.5481 C   0  0  0  0  0  0  0  0  0  0  0  0
    0.9898   -5.0392   -1.5193 C   0  0  0  0  0  0  0  0  0  0  0  0
    0.6405   -7.0255   -0.3723 O   0  0  0  0  0  0  0  0  0  0  0  0
    0.0759   -5.0881    0.8192 C   0  0  0  0  0  0  0  0  0  0  0  0
   -0.5461   -3.7374    0.8038 C   0  0  0  0  0  0  0  0  0  0  0  0
   -1.9025   -3.6060    1.0022 C   0  0  0  0  0  0  0  0  0  0  0  0
   -2.4261   -2.3239    0.9616 C   0  0  0  0  0  0  0  0  0  0  0  0
   -1.6477   -1.2171    0.7358 C   0  0  0  0  0  0  0  0  0  0  0  0
   -0.2780   -1.3261    0.5346 C   0  0  0  0  0  0  0  0  0  0  0  0
    0.2345   -2.6274    0.5790 C   0  0  0  0  0  0  0  0  0  0  0  0
    0.5104   -0.2246    0.2895 C   0  0  0  0  0  0  0  0  0  0  0  0
    1.8559   -0.3716    0.1121 C   0  0  0  0  0  0  0  0  0  0  0  0
    2.6486    0.7722   -0.1241 C   0  0  0  0  0  0  0  0  0  0  0  0
    3.9937    0.6295   -0.3088 O   0  0  0  0  0  0  0  0  0  0  0  0
    4.9989    1.5407   -0.5164 C   0  0  0  0  0  0  0  0  0  0  0  0
    5.2238    2.4301    0.6516 C   0  0  0  0  0  0  0  0  0  0  0  0
    6.3122    3.4542    0.3728 C   0  0  0  0  0  0  0  0  0  0  0  0
    6.1618    4.4203   -0.7204 C   0  0  0  0  0  0  0  0  0  0  0  0
    7.1865    3.2706   -0.8219 C   0  0  0  0  0  0  0  0  0  0  0  0
    2.0658    2.0092   -0.1714 C   0  0  0  0  0  0  0  0  0  0  0  0
    0.6836    2.1133    0.0145 C   0  0  0  0  0  0  0  0  0  0  0  0
   -0.0931    1.0215    0.2415 C   0  0  0  0  0  0  0  0  0  0  0  0
   -1.4420    1.1894    0.4277 C   0  0  0  0  0  0  0  0  0  0  0  0
   -2.2833    2.2523    0.4098 N   0  0  0  0  0  0  0  0  0  0  0  0
   -3.5186    1.8431    0.6333 C   0  0  0  0  0  0  0  0  0  0  0  0
   -4.7632    2.5664    0.5829 C   0  0  0  0  0  0  0  0  0  0  0  0
   -5.8107    2.1734    1.3769 C   0  0  0  0  0  0  0  0  0  0  0  0
   -5.6010    1.1106    2.2873 C   0  0  0  0  0  0  0  0  0  0  0  0
   -5.4390    0.2263    3.0649 N   0  0  0  0  0  0  0  0  0  0  0  0
   -7.0340    2.8145    1.2839 C   0  0  0  0  0  0  0  0  0  0  0  0
   -7.1639    3.8632    0.3656 C   0  0  0  0  0  0  0  0  0  0  0  0
   -8.3494    4.4825    0.2779 F   0  0  0  0  0  0  0  0  0  0  0  0
   -6.1262    4.2594   -0.4306 C   0  0  0  0  0  0  0  0  0  0  0  0
   -4.8861    3.6112   -0.3405 C   0  0  0  0  0  0  0  0  0  0  0  0
   -3.8405    3.9396   -1.2552 C   0  0  0  0  0  0  0  0  0  0  0  0
   -2.9898    4.1971   -2.0141 N   0  0  0  0  0  0  0  0  0  0  0  0
   -3.4559    0.4867    0.7989 N   0  0  0  0  0  0  0  0  0  0  0  0
   -2.1909    0.0628    0.6747 C   0  0  0  0  0  0  0  0  0  0  0  0
   -1.6996   -4.8563   -1.3106 H   0  0  0  0  0  0  0  0  0  0  0  0
   -1.3506   -6.5402   -1.9408 H   0  0  0  0  0  0  0  0  0  0  0  0
   -1.9840   -6.3056   -0.2739 H   0  0  0  0  0  0  0  0  0  0  0  0
    0.4025   -4.3330   -2.1428 H   0  0  0  0  0  0  0  0  0  0  0  0
    1.4854   -5.7202   -2.2395 H   0  0  0  0  0  0  0  0  0  0  0  0
    1.8031   -4.5666   -0.9450 H   0  0  0  0  0  0  0  0  0  0  0  0
    1.0039   -7.1427    0.5188 H   0  0  0  0  0  0  0  0  0  0  0  0
   -0.4785   -5.7426    1.4944 H   0  0  0  0  0  0  0  0  0  0  0  0
    1.1254   -4.9802    1.1943 H   0  0  0  0  0  0  0  0  0  0  0  0
   -2.5371   -4.4640    1.1801 H   0  0  0  0  0  0  0  0  0  0  0  0
   -3.4931   -2.2075    1.1155 H   0  0  0  0  0  0  0  0  0  0  0  0
    1.3038   -2.7182    0.4294 H   0  0  0  0  0  0  0  0  0  0  0  0
    2.3899   -1.2970    0.1307 H   0  0  0  0  0  0  0  0  0  0  0  0
    4.8720    2.1072   -1.4782 H   0  0  0  0  0  0  0  0  0  0  0  0
    5.9511    0.9522   -0.6636 H   0  0  0  0  0  0  0  0  0  0  0  0
    4.3592    2.9398    1.0684 H   0  0  0  0  0  0  0  0  0  0  0  0
    5.5913    1.7607    1.4868 H   0  0  0  0  0  0  0  0  0  0  0  0
    6.8321    3.7926    1.2962 H   0  0  0  0  0  0  0  0  0  0  0  0
    5.3302    4.3786   -1.4548 H   0  0  0  0  0  0  0  0  0  0  0  0
    6.5863    5.4419   -0.6354 H   0  0  0  0  0  0  0  0  0  0  0  0
    6.9558    2.4813   -1.5456 H   0  0  0  0  0  0  0  0  0  0  0  0
    8.2568    3.5858   -0.7011 H   0  0  0  0  0  0  0  0  0  0  0  0
    2.6113    2.9409   -0.3652 H   0  0  0  0  0  0  0  0  0  0  0  0
    0.2544    3.1251   -0.0284 H   0  0  0  0  0  0  0  0  0  0  0  0
   -1.9890    3.2397    0.2634 H   0  0  0  0  0  0  0  0  0  0  0  0
   -7.8838    2.5086    1.9141 H   0  0  0  0  0  0  0  0  0  0  0  0
   -6.2281    5.0788   -1.1608 H   0  0  0  0  0  0  0  0  0  0  0  0
  1  2  1  0
  2  3  1  0
  2  4  1  0
  2  5  1  0
  5  6  1  0
  6  7  2  0
  7  8  1  0
  8  9  2  0
  9 10  1  0
 10 11  2  0
 10 12  1  0
 12 13  2  0
 13 14  1  0
 14 15  1  0
 15 16  1  0
 16 17  1  0
 17 18  1  0
 18 19  1  0
 19 20  1  0
 14 21  2  0
 21 22  1  0
 22 23  2  0
 23 24  1  0
 24 25  1  0
 25 26  1  0
 26 27  1  0
 27 28  2  0
 28 29  1  0
 29 30  3  0
 28 31  1  0
 31 32  2  0
 32 33  1  0
 32 34  1  0
 34 35  2  0
 35 36  1  0
 36 37  3  0
 26 38  2  0
 38 39  1  0
 11  6  1  0
 23 12  1  0
 39 24  2  0
 39  9  1  0
 20 18  1  0
 35 27  1  0
  1 40  1  0
  1 41  1  0
  1 42  1  0
  3 43  1  0
  3 44  1  0
  3 45  1  0
  4 46  1  0
  5 47  1  0
  5 48  1  0
  7 49  1  0
  8 50  1  0
 11 51  1  0
 13 52  1  0
 16 53  1  0
 16 54  1  0
 17 55  1  0
 17 56  1  0
 18 57  1  0
 19 58  1  0
 19 59  1  0
 20 60  1  0
 20 61  1  0
 21 62  1  0
 22 63  1  0
 25 64  1  0
 31 65  1  0
 34 66  1  0
M  END
$$$$
