@<TRIPOS>MOLECULE
*****
 66 71 0 0 0
SMALL
GASTEIGER

@<TRIPOS>ATOM
      1 C          -1.3412   -5.8730   -1.0378 C.3     1  UNL1       -0.0360
      2 C           0.0769   -5.7395   -0.5481 C.3     1  UNL1        0.0645
      3 C           0.9898   -5.0392   -1.5193 C.3     1  UNL1       -0.0360
      4 O           0.6405   -7.0255   -0.3723 O.3     1  UNL1       -0.3888
      5 C           0.0759   -5.0881    0.8192 C.3     1  UNL1        0.0008
      6 C          -0.5461   -3.7374    0.8038 C.ar    1  UNL1       -0.0441
      7 C          -1.9025   -3.6060    1.0022 C.ar    1  UNL1       -0.0578
      8 C          -2.4261   -2.3239    0.9616 C.ar    1  UNL1       -0.0517
      9 C          -1.6477   -1.2171    0.7358 C.ar    1  UNL1        0.0102
     10 C          -0.2780   -1.3261    0.5346 C.ar    1  UNL1       -0.0076
     11 C           0.2345   -2.6274    0.5790 C.ar    1  UNL1       -0.0501
     12 C           0.5104   -0.2246    0.2895 C.ar    1  UNL1       -0.0046
     13 C           1.8559   -0.3716    0.1121 C.ar    1  UNL1       -0.0116
     14 C           2.6486    0.7722   -0.1241 C.ar    1  UNL1        0.1211
     15 O           3.9937    0.6295   -0.3088 O.3     1  UNL1       -0.4919
     16 C           4.9989    1.5407   -0.5164 C.3     1  UNL1        0.0898
     17 C           5.2238    2.4301    0.6516 C.3     1  UNL1       -0.0158
     18 C           6.3122    3.4542    0.3728 C.3     1  UNL1       -0.0380
     19 C           6.1618    4.4203   -0.7204 C.3     1  UNL1       -0.0499
     20 C           7.1865    3.2706   -0.8219 C.3     1  UNL1       -0.0499
     21 C           2.0658    2.0092   -0.1714 C.ar    1  UNL1       -0.0193
     22 C           0.6836    2.1133    0.0145 C.ar    1  UNL1       -0.0485
     23 C          -0.0931    1.0215    0.2415 C.ar    1  UNL1        0.0084
     24 C          -1.4420    1.1894    0.4277 C.ar    1  UNL1        0.0749
     25 N          -2.2833    2.2523    0.4098 N.ar    1  UNL1       -0.3373
     26 C          -3.5186    1.8431    0.6333 C.ar    1  UNL1        0.1418
     27 C          -4.7632    2.5664    0.5829 C.ar    1  UNL1        0.0521
     28 C          -5.8107    2.1734    1.3769 C.ar    1  UNL1        0.0663
     29 C          -5.6010    1.1106    2.2873 C.1     1  UNL1        0.1000
     30 N          -5.4390    0.2263    3.0649 N.1     1  UNL1       -0.1908
     31 C          -7.0340    2.8145    1.2839 C.ar    1  UNL1       -0.0083
     32 C          -7.1639    3.8632    0.3656 C.ar    1  UNL1        0.1259
     33 F          -8.3494    4.4825    0.2779 F       1  UNL1       -0.2054
     34 C          -6.1262    4.2594   -0.4306 C.ar    1  UNL1       -0.0083
     35 C          -4.8861    3.6112   -0.3405 C.ar    1  UNL1        0.0663
     36 C          -3.8405    3.9396   -1.2552 C.1     1  UNL1        0.1000
     37 N          -2.9898    4.1971   -2.0141 N.1     1  UNL1       -0.1908
     38 N          -3.4559    0.4867    0.7989 N.ar    1  UNL1       -0.2270
     39 C          -2.1909    0.0628    0.6747 C.ar    1  UNL1        0.0977
     40 H          -1.6996   -4.8563   -1.3106 H       1  UNL1        0.0257
     41 H          -1.3506   -6.5402   -1.9408 H       1  UNL1        0.0257
     42 H          -1.9840   -6.3056   -0.2739 H       1  UNL1        0.0257
     43 H           0.4025   -4.3330   -2.1428 H       1  UNL1        0.0257
     44 H           1.4854   -5.7202   -2.2395 H       1  UNL1        0.0257
     45 H           1.8031   -4.5666   -0.9450 H       1  UNL1        0.0257
     46 H           1.0039   -7.1427    0.5188 H       1  UNL1        0.2101
     47 H          -0.4785   -5.7426    1.4944 H       1  UNL1        0.0341
     48 H           1.1254   -4.9802    1.1943 H       1  UNL1        0.0341
     49 H          -2.5371   -4.4640    1.1801 H       1  UNL1        0.0620
     50 H          -3.4931   -2.2075    1.1155 H       1  UNL1        0.0624
     51 H           1.3038   -2.7182    0.4294 H       1  UNL1        0.0627
     52 H           2.3899   -1.2970    0.1307 H       1  UNL1        0.0660
     53 H           4.8720    2.1072   -1.4782 H       1  UNL1        0.0696
     54 H           5.9511    0.9522   -0.6636 H       1  UNL1        0.0696
     55 H           4.3592    2.9398    1.0684 H       1  UNL1        0.0301
     56 H           5.5913    1.7607    1.4868 H       1  UNL1        0.0301
     57 H           6.8321    3.7926    1.2962 H       1  UNL1        0.0302
     58 H           5.3302    4.3786   -1.4548 H       1  UNL1        0.0268
     59 H           6.5863    5.4419   -0.6354 H       1  UNL1        0.0268
     60 H           6.9558    2.4813   -1.5456 H       1  UNL1        0.0268
     61 H           8.2568    3.5858   -0.7011 H       1  UNL1        0.0268
     62 H           2.6113    2.9409   -0.3652 H       1  UNL1        0.0654
     63 H           0.2544    3.1251   -0.0284 H       1  UNL1        0.0625
     64 H          -1.9890    3.2397    0.2634 H       1  UNL1        0.1674
     65 H          -7.8838    2.5086    1.9141 H       1  UNL1        0.0659
     66 H          -6.2281    5.0788   -1.1608 H       1  UNL1        0.0659
@<TRIPOS>BOND
     1     1     2    1
     2     2     3    1
     3     2     4    1
     4     2     5    1
     5     5     6    1
     6     6     7   ar
     7     7     8   ar
     8     8     9   ar
     9     9    10   ar
    10    10    11   ar
    11    10    12   ar
    12    12    13   ar
    13    13    14   ar
    14    14    15    1
    15    15    16    1
    16    16    17    1
    17    17    18    1
    18    18    19    1
    19    19    20    1
    20    14    21   ar
    21    21    22   ar
    22    22    23   ar
    23    23    24   ar
    24    24    25   ar
    25    25    26   ar
    26    26    27    1
    27    27    28   ar
    28    28    29    1
    29    29    30    3
    30    28    31   ar
    31    31    32   ar
    32    32    33    1
    33    32    34   ar
    34    34    35   ar
    35    35    36    1
    36    36    37    3
    37    26    38   ar
    38    38    39   ar
    39    11     6   ar
    40    23    12   ar
    41    39    24   ar
    42    39     9   ar
    43    20    18    1
    44    35    27   ar
    45     1    40    1
    46     1    41    1
    47     1    42    1
    48     3    43    1
    49     3    44    1
    50     3    45    1
    51     4    46    1
    52     5    47    1
    53     5    48    1
    54     7    49    1
    55     8    50    1
    56    11    51    1
    57    13    52    1
    58    16    53    1
    59    16    54    1
    60    17    55    1
    61    17    56    1
    62    18    57    1
    63    19    58    1
    64    19    59    1
    65    20    60    1
    66    20    61    1
    67    21    62    1
    68    22    63    1
    69    25    64    1
    70    31    65    1
    71    34    66    1
