@<TRIPOS>MOLECULE
*****
 60 64 0 0 0
SMALL
GASTEIGER

@<TRIPOS>ATOM
      1 C           1.3110    0.8345   -2.0741 C.3     1  UNL1        0.1333
      2 F           1.1993    2.0922   -2.6832 F       1  UNL1       -0.2426
      3 C           2.6732    0.2998   -2.5251 C.3     1  UNL1        0.0265
      4 C           3.5503    0.7779   -1.3684 C.3     1  UNL1        0.1425
      5 O           2.7598    0.4609   -0.2763 O.3     1  UNL1       -0.3480
      6 C           1.5077    0.9280   -0.5956 C.3     1  UNL1        0.1154
      7 C           0.4100    0.2729    0.2147 C.3     1  UNL1        0.0787
      8 O          -0.8359    0.7464   -0.1132 O.3     1  UNL1       -0.3569
      9 C          -1.8826    0.2007    0.6218 C.3     1  UNL1        0.1445
     10 C          -3.1902    0.7329    0.1029 C.ar    1  UNL1       -0.0070
     11 C          -3.3258    2.0065   -0.4164 C.ar    1  UNL1       -0.0552
     12 C          -4.5222    2.5018   -0.8894 C.ar    1  UNL1       -0.0614
     13 C          -5.6090    1.6451   -0.8190 C.ar    1  UNL1       -0.0617
     14 C          -5.5189    0.3688   -0.3094 C.ar    1  UNL1       -0.0614
     15 C          -4.3108   -0.1008    0.1564 C.ar    1  UNL1       -0.0552
     16 C          -1.8098    0.7237    2.0163 C.ar    1  UNL1       -0.0070
     17 C          -2.5106    0.0845    3.0189 C.ar    1  UNL1       -0.0552
     18 C          -2.5056    0.5087    4.3393 C.ar    1  UNL1       -0.0614
     19 C          -1.7641    1.6331    4.6936 C.ar    1  UNL1       -0.0617
     20 C          -1.0542    2.2934    3.7144 C.ar    1  UNL1       -0.0614
     21 C          -1.0931    1.8309    2.4179 C.ar    1  UNL1       -0.0552
     22 C          -1.8499   -1.2520    0.5092 C.ar    1  UNL1       -0.0070
     23 C          -2.2939   -1.6733   -0.7525 C.ar    1  UNL1       -0.0552
     24 C          -2.3338   -3.0334   -1.0760 C.ar    1  UNL1       -0.0614
     25 C          -1.9244   -3.9522   -0.1206 C.ar    1  UNL1       -0.0617
     26 C          -1.4806   -3.5748    1.1320 C.ar    1  UNL1       -0.0614
     27 C          -1.4686   -2.2207    1.3787 C.ar    1  UNL1       -0.0552
     28 N           4.8296    0.1012   -1.3636 N.ar    1  UNL1       -0.2739
     29 C           5.3702   -0.3093   -2.5251 C.ar    1  UNL1        0.0170
     30 C           6.5953   -0.9472   -2.4292 C.ar    1  UNL1        0.0192
     31 C           7.2272   -1.1523   -1.2209 C.ar    1  UNL1        0.2539
     32 O           8.3351   -1.7411   -1.2456 O.2     1  UNL1       -0.2677
     33 N           6.5883   -0.6978   -0.1328 N.ar    1  UNL1       -0.2749
     34 C           5.4120   -0.0769   -0.1485 C.ar    1  UNL1        0.3313
     35 O           4.8527    0.3315    0.9019 O.2     1  UNL1       -0.2464
     36 H           0.4850    0.1907   -2.3889 H       1  UNL1        0.0679
     37 H           2.9726    0.7485   -3.4772 H       1  UNL1        0.0338
     38 H           2.6592   -0.7866   -2.6145 H       1  UNL1        0.0338
     39 H           3.7151    1.8590   -1.4689 H       1  UNL1        0.0840
     40 H           1.4602    2.0174   -0.3292 H       1  UNL1        0.0649
     41 H           0.6150    0.4180    1.2781 H       1  UNL1        0.0587
     42 H           0.4463   -0.8332   -0.0525 H       1  UNL1        0.0587
     43 H          -2.4055    2.6116   -0.4303 H       1  UNL1        0.0621
     44 H          -4.5617    3.5145   -1.2860 H       1  UNL1        0.0618
     45 H          -6.5430    2.0457   -1.1945 H       1  UNL1        0.0618
     46 H          -6.4261   -0.2414   -0.2905 H       1  UNL1        0.0618
     47 H          -4.2953   -1.1225    0.5536 H       1  UNL1        0.0621
     48 H          -3.1259   -0.7790    2.8894 H       1  UNL1        0.0621
     49 H          -3.0424    0.0308    5.1453 H       1  UNL1        0.0618
     50 H          -1.7353    1.9950    5.7130 H       1  UNL1        0.0618
     51 H          -0.4779    3.1669    3.9858 H       1  UNL1        0.0618
     52 H          -0.5306    2.3943    1.6863 H       1  UNL1        0.0621
     53 H          -2.6388   -1.0359   -1.5796 H       1  UNL1        0.0621
     54 H          -2.6721   -3.3933   -2.0423 H       1  UNL1        0.0618
     55 H          -1.9664   -4.9998   -0.3993 H       1  UNL1        0.0618
     56 H          -1.1656   -4.2710    1.8702 H       1  UNL1        0.0618
     57 H          -1.1282   -1.8687    2.3212 H       1  UNL1        0.0621
     58 H           4.9148   -0.1703   -3.4799 H       1  UNL1        0.0813
     59 H           7.0599   -1.2905   -3.3434 H       1  UNL1        0.0686
     60 H           7.0493   -0.8440    0.7824 H       1  UNL1        0.1734
@<TRIPOS>BOND
     1     1     2    1
     2     1     3    1
     3     3     4    1
     4     4     5    1
     5     5     6    1
     6     6     7    1
     7     7     8    1
     8     8     9    1
     9     9    10    1
    10    10    11   ar
    11    11    12   ar
    12    12    13   ar
    13    13    14   ar
    14    14    15   ar
    15     9    16    1
    16    16    17   ar
    17    17    18   ar
    18    18    19   ar
    19    19    20   ar
    20    20    21   ar
    21     9    22    1
    22    22    23   ar
    23    23    24   ar
    24    24    25   ar
    25    25    26   ar
    26    26    27   ar
    27     4    28    1
    28    28    29   ar
    29    29    30   ar
    30    30    31   ar
    31    31    32    2
    32    31    33   ar
    33    33    34   ar
    34    34    35    2
    35     6     1    1
    36    15    10   ar
    37    21    16   ar
    38    27    22   ar
    39    34    28   ar
    40     1    36    1
    41     3    37    1
    42     3    38    1
    43     4    39    1
    44     6    40    1
    45     7    41    1
    46     7    42    1
    47    11    43    1
    48    12    44    1
    49    13    45    1
    50    14    46    1
    51    15    47    1
    52    17    48    1
    53    18    49    1
    54    19    50    1
    55    20    51    1
    56    21    52    1
    57    23    53    1
    58    24    54    1
    59    25    55    1
    60    26    56    1
    61    27    57    1
    62    29    58    1
    63    30    59    1
    64    33    60    1
