
     RDKit          3D

 60 64  0  0  0  0  0  0  0  0999 V2000
    1.3110    0.8345   -2.0741 C   0  0  1  0  0  0  0  0  0  0  0  0
    1.1993    2.0922   -2.6832 F   0  0  0  0  0  0  0  0  0  0  0  0
    2.6732    0.2998   -2.5251 C   0  0  0  0  0  0  0  0  0  0  0  0
    3.5503    0.7779   -1.3684 C   0  0  1  0  0  0  0  0  0  0  0  0
    2.7598    0.4609   -0.2763 O   0  0  0  0  0  0  0  0  0  0  0  0
    1.5077    0.9280   -0.5956 C   0  0  2  0  0  0  0  0  0  0  0  0
    0.4100    0.2729    0.2147 C   0  0  0  0  0  0  0  0  0  0  0  0
   -0.8359    0.7464   -0.1132 O   0  0  0  0  0  0  0  0  0  0  0  0
   -1.8826    0.2007    0.6218 C   0  0  0  0  0  0  0  0  0  0  0  0
   -3.1902    0.7329    0.1029 C   0  0  0  0  0  0  0  0  0  0  0  0
   -3.3258    2.0065   -0.4164 C   0  0  0  0  0  0  0  0  0  0  0  0
   -4.5222    2.5018   -0.8894 C   0  0  0  0  0  0  0  0  0  0  0  0
   -5.6090    1.6451   -0.8190 C   0  0  0  0  0  0  0  0  0  0  0  0
   -5.5189    0.3688   -0.3094 C   0  0  0  0  0  0  0  0  0  0  0  0
   -4.3108   -0.1008    0.1564 C   0  0  0  0  0  0  0  0  0  0  0  0
   -1.8098    0.7237    2.0163 C   0  0  0  0  0  0  0  0  0  0  0  0
   -2.5106    0.0845    3.0189 C   0  0  0  0  0  0  0  0  0  0  0  0
   -2.5056    0.5087    4.3393 C   0  0  0  0  0  0  0  0  0  0  0  0
   -1.7641    1.6331    4.6936 C   0  0  0  0  0  0  0  0  0  0  0  0
   -1.0542    2.2934    3.7144 C   0  0  0  0  0  0  0  0  0  0  0  0
   -1.0931    1.8309    2.4179 C   0  0  0  0  0  0  0  0  0  0  0  0
   -1.8499   -1.2520    0.5092 C   0  0  0  0  0  0  0  0  0  0  0  0
   -2.2939   -1.6733   -0.7525 C   0  0  0  0  0  0  0  0  0  0  0  0
   -2.3338   -3.0334   -1.0760 C   0  0  0  0  0  0  0  0  0  0  0  0
   -1.9244   -3.9522   -0.1206 C   0  0  0  0  0  0  0  0  0  0  0  0
   -1.4806   -3.5748    1.1320 C   0  0  0  0  0  0  0  0  0  0  0  0
   -1.4686   -2.2207    1.3787 C   0  0  0  0  0  0  0  0  0  0  0  0
    4.8296    0.1012   -1.3636 N   0  0  0  0  0  0  0  0  0  0  0  0
    5.3702   -0.3093   -2.5251 C   0  0  0  0  0  0  0  0  0  0  0  0
    6.5953   -0.9472   -2.4292 C   0  0  0  0  0  0  0  0  0  0  0  0
    7.2272   -1.1523   -1.2209 C   0  0  0  0  0  0  0  0  0  0  0  0
    8.3351   -1.7411   -1.2456 O   0  0  0  0  0  0  0  0  0  0  0  0
    6.5883   -0.6978   -0.1328 N   0  0  0  0  0  0  0  0  0  0  0  0
    5.4120   -0.0769   -0.1485 C   0  0  0  0  0  0  0  0  0  0  0  0
    4.8527    0.3315    0.9019 O   0  0  0  0  0  0  0  0  0  0  0  0
    0.4850    0.1907   -2.3889 H   0  0  0  0  0  0  0  0  0  0  0  0
    2.9726    0.7485   -3.4772 H   0  0  0  0  0  0  0  0  0  0  0  0
    2.6592   -0.7866   -2.6145 H   0  0  0  0  0  0  0  0  0  0  0  0
    3.7151    1.8590   -1.4689 H   0  0  0  0  0  0  0  0  0  0  0  0
    1.4602    2.0174   -0.3292 H   0  0  0  0  0  0  0  0  0  0  0  0
    0.6150    0.4180    1.2781 H   0  0  0  0  0  0  0  0  0  0  0  0
    0.4463   -0.8332   -0.0525 H   0  0  0  0  0  0  0  0  0  0  0  0
   -2.4055    2.6116   -0.4303 H   0  0  0  0  0  0  0  0  0  0  0  0
   -4.5617    3.5145   -1.2860 H   0  0  0  0  0  0  0  0  0  0  0  0
   -6.5430    2.0457   -1.1945 H   0  0  0  0  0  0  0  0  0  0  0  0
   -6.4261   -0.2414   -0.2905 H   0  0  0  0  0  0  0  0  0  0  0  0
   -4.2953   -1.1225    0.5536 H   0  0  0  0  0  0  0  0  0  0  0  0
   -3.1259   -0.7790    2.8894 H   0  0  0  0  0  0  0  0  0  0  0  0
   -3.0424    0.0308    5.1453 H   0  0  0  0  0  0  0  0  0  0  0  0
   -1.7353    1.9950    5.7130 H   0  0  0  0  0  0  0  0  0  0  0  0
   -0.4779    3.1669    3.9858 H   0  0  0  0  0  0  0  0  0  0  0  0
   -0.5306    2.3943    1.6863 H   0  0  0  0  0  0  0  0  0  0  0  0
   -2.6388   -1.0359   -1.5796 H   0  0  0  0  0  0  0  0  0  0  0  0
   -2.6721   -3.3933   -2.0423 H   0  0  0  0  0  0  0  0  0  0  0  0
   -1.9664   -4.9998   -0.3993 H   0  0  0  0  0  0  0  0  0  0  0  0
   -1.1656   -4.2710    1.8702 H   0  0  0  0  0  0  0  0  0  0  0  0
   -1.1282   -1.8687    2.3212 H   0  0  0  0  0  0  0  0  0  0  0  0
    4.9148   -0.1703   -3.4799 H   0  0  0  0  0  0  0  0  0  0  0  0
    7.0599   -1.2905   -3.3434 H   0  0  0  0  0  0  0  0  0  0  0  0
    7.0493   -0.8440    0.7824 H   0  0  0  0  0  0  0  0  0  0  0  0
  1  2  1  0
  1  3  1  0
  3  4  1  0
  4  5  1  0
  5  6  1  0
  6  7  1  0
  7  8  1  0
  8  9  1  0
  9 10  1  0
 10 11  2  0
 11 12  1  0
 12 13  2  0
 13 14  1  0
 14 15  2  0
  9 16  1  0
 16 17  2  0
 17 18  1  0
 18 19  2  0
 19 20  1  0
 20 21  2  0
  9 22  1  0
 22 23  2  0
 23 24  1  0
 24 25  2  0
 25 26  1  0
 26 27  2  0
  4 28  1  0
 28 29  1  0
 29 30  2  0
 30 31  1  0
 31 32  2  0
 31 33  1  0
 33 34  1  0
 34 35  2  0
  6  1  1  0
 15 10  1  0
 21 16  1  0
 27 22  1  0
 34 28  1  0
  1 36  1  1
  3 37  1  0
  3 38  1  0
  4 39  1  6
  6 40  1  1
  7 41  1  0
  7 42  1  0
 11 43  1  0
 12 44  1  0
 13 45  1  0
 14 46  1  0
 15 47  1  0
 17 48  1  0
 18 49  1  0
 19 50  1  0
 20 51  1  0
 21 52  1  0
 23 53  1  0
 24 54  1  0
 25 55  1  0
 26 56  1  0
 27 57  1  0
 29 58  1  0
 30 59  1  0
 33 60  1  0
M  END
$$$$
