@<TRIPOS>MOLECULE
*****
 50 53 0 0 0
SMALL
GASTEIGER

@<TRIPOS>ATOM
      1 O           2.2436    0.0409   -2.2686 O.2     1  UNL1       -0.2721
      2 C           1.3477   -0.1088   -1.3999 C.2     1  UNL1        0.2521
      3 C          -0.0454   -0.3875   -1.8152 C.3     1  UNL1        0.1046
      4 N          -0.9455   -0.5334   -0.7096 N.ar    1  UNL1       -0.2963
      5 C          -1.6353    0.5153   -0.1864 C.ar    1  UNL1        0.2739
      6 O          -1.4500    1.6482   -0.7192 O.2     1  UNL1       -0.2657
      7 C          -2.5024    0.3865    0.8735 C.ar    1  UNL1        0.1105
      8 C          -3.2600    1.5119    1.4496 C.3     1  UNL1        0.0201
      9 C          -4.4226    1.9296    0.6498 C.ar    1  UNL1       -0.0414
     10 C          -4.3259    2.9564   -0.2278 C.ar    1  UNL1       -0.0582
     11 C          -5.4271    3.3395   -0.9811 C.ar    1  UNL1       -0.0615
     12 C          -6.6312    2.6808   -0.8451 C.ar    1  UNL1       -0.0617
     13 C          -6.7540    1.6243    0.0495 C.ar    1  UNL1       -0.0615
     14 C          -5.6417    1.2764    0.7752 C.ar    1  UNL1       -0.0582
     15 N          -2.6585   -0.8330    1.3969 N.ar    1  UNL1       -0.2444
     16 C          -2.0041   -1.8884    0.9177 C.ar    1  UNL1        0.0879
     17 C          -2.2252   -3.1129    1.5238 C.ar    1  UNL1       -0.0343
     18 C          -1.5521   -4.2203    1.0421 C.ar    1  UNL1       -0.0596
     19 C          -0.6747   -4.1213   -0.0206 C.ar    1  UNL1       -0.0597
     20 C          -0.4913   -2.8740   -0.5887 C.ar    1  UNL1       -0.0360
     21 C          -1.1334   -1.7310   -0.1542 C.ar    1  UNL1        0.0708
     22 N           1.7289   -0.0002   -0.0393 N.am    1  UNL1       -0.2055
     23 N           3.0516    0.2647    0.3543 N.2     1  UNL1       -0.1877
     24 C           4.0803   -0.2703   -0.2003 C.2     1  UNL1        0.0528
     25 C           5.4595    0.0218    0.2281 C.ar    1  UNL1       -0.0054
     26 C           5.7164    0.8962    1.2597 C.ar    1  UNL1       -0.0517
     27 C           6.9981    1.1761    1.6671 C.ar    1  UNL1       -0.0428
     28 C           8.0909    0.5824    1.0485 C.ar    1  UNL1        0.0410
     29 CL          9.7343    0.9279    1.5558 Cl      1  UNL1       -0.0835
     30 C           7.8098   -0.2887    0.0194 C.ar    1  UNL1       -0.0428
     31 C           6.5317   -0.5742   -0.3945 C.ar    1  UNL1       -0.0517
     32 H          -0.3997    0.5251   -2.3898 H       1  UNL1        0.0589
     33 H          -0.1740   -1.2134   -2.5100 H       1  UNL1        0.0589
     34 H          -2.5771    2.3725    1.6542 H       1  UNL1        0.0378
     35 H          -3.6640    1.1841    2.4365 H       1  UNL1        0.0378
     36 H          -3.4028    3.5046   -0.3642 H       1  UNL1        0.0620
     37 H          -5.3112    4.1650   -1.6727 H       1  UNL1        0.0618
     38 H          -7.4562    3.0101   -1.4481 H       1  UNL1        0.0618
     39 H          -7.7096    1.1500    0.1150 H       1  UNL1        0.0618
     40 H          -5.7213    0.4692    1.4645 H       1  UNL1        0.0620
     41 H          -2.9168   -3.1514    2.3508 H       1  UNL1        0.0639
     42 H          -1.7350   -5.1639    1.5232 H       1  UNL1        0.0618
     43 H          -0.1604   -5.0047   -0.3778 H       1  UNL1        0.0618
     44 H           0.1918   -2.8162   -1.4037 H       1  UNL1        0.0639
     45 H           0.9708   -0.1277    0.6812 H       1  UNL1        0.1773
     46 H           3.9394   -0.9622   -1.0130 H       1  UNL1        0.0851
     47 H           4.8626    1.3680    1.7526 H       1  UNL1        0.0624
     48 H           7.2111    1.8736    2.4918 H       1  UNL1        0.0632
     49 H           8.6801   -0.7536   -0.4634 H       1  UNL1        0.0632
     50 H           6.3597   -1.2639   -1.2055 H       1  UNL1        0.0624
@<TRIPOS>BOND
     1     1     2    2
     2     2     3    1
     3     3     4    1
     4     4     5   ar
     5     5     6    2
     6     5     7   ar
     7     7     8    1
     8     8     9    1
     9     9    10   ar
    10    10    11   ar
    11    11    12   ar
    12    12    13   ar
    13    13    14   ar
    14     7    15   ar
    15    15    16   ar
    16    16    17   ar
    17    17    18   ar
    18    18    19   ar
    19    19    20   ar
    20    20    21   ar
    21     2    22   am
    22    22    23    1
    23    23    24    2
    24    24    25    1
    25    25    26   ar
    26    26    27   ar
    27    27    28   ar
    28    28    29    1
    29    28    30   ar
    30    30    31   ar
    31    21     4   ar
    32    31    25   ar
    33    14     9   ar
    34    21    16   ar
    35     3    32    1
    36     3    33    1
    37     8    34    1
    38     8    35    1
    39    10    36    1
    40    11    37    1
    41    12    38    1
    42    13    39    1
    43    14    40    1
    44    17    41    1
    45    18    42    1
    46    19    43    1
    47    20    44    1
    48    22    45    1
    49    24    46    1
    50    26    47    1
    51    27    48    1
    52    30    49    1
    53    31    50    1
