@<TRIPOS>MOLECULE
*****
 30 31 0 0 0
SMALL
GASTEIGER

@<TRIPOS>ATOM
      1 C          -0.7669   -2.5188   -0.7265 C.3     1  UNL1       -0.0598
      2 C          -0.9976   -1.2393   -1.4740 C.3     1  UNL1       -0.0124
      3 C          -1.3522   -0.0949   -0.5811 C.ar    1  UNL1        0.0556
      4 N          -2.6246    0.2996   -0.5026 N.ar    1  UNL1       -0.2190
      5 C          -3.0315    1.3152    0.2752 C.ar    1  UNL1        0.2145
      6 N          -4.4023    1.6711    0.3031 N.pl3   1  UNL1       -0.3274
      7 N          -2.0928    1.9458    0.9973 N.ar    1  UNL1       -0.1995
      8 C          -0.7878    1.6152    0.9796 C.ar    1  UNL1        0.1293
      9 N           0.1913    2.2821    1.7416 N.pl3   1  UNL1       -0.3425
     10 C          -0.3956    0.5575    0.1634 C.ar    1  UNL1        0.0431
     11 C           0.9962    0.1530    0.1026 C.ar    1  UNL1       -0.0114
     12 C           1.4727   -0.7845    0.9868 C.ar    1  UNL1       -0.0524
     13 C           2.7949   -1.2014    0.9601 C.ar    1  UNL1       -0.0414
     14 C           3.6407   -0.6478    0.0112 C.ar    1  UNL1        0.0593
     15 CL          5.3238   -1.1355   -0.0694 Cl      1  UNL1       -0.0820
     16 C           3.1763    0.2955   -0.8840 C.ar    1  UNL1        0.0598
     17 CL          4.2868    0.9620   -2.0621 Cl      1  UNL1       -0.0820
     18 C           1.8532    0.6937   -0.8351 C.ar    1  UNL1       -0.0341
     19 H           0.2967   -2.8281   -0.6835 H       1  UNL1        0.0233
     20 H          -1.2518   -2.5089    0.2819 H       1  UNL1        0.0233
     21 H          -1.2796   -3.3577   -1.2764 H       1  UNL1        0.0233
     22 H          -0.0531   -1.0128   -2.0176 H       1  UNL1        0.0326
     23 H          -1.8320   -1.3852   -2.1885 H       1  UNL1        0.0326
     24 H          -4.7451    2.3831    0.9763 H       1  UNL1        0.1452
     25 H          -5.0880    1.2353   -0.3399 H       1  UNL1        0.1452
     26 H           0.0657    2.3917    2.7545 H       1  UNL1        0.1437
     27 H           1.0286    2.6566    1.2774 H       1  UNL1        0.1437
     28 H           0.8492   -1.2500    1.7510 H       1  UNL1        0.0624
     29 H           3.1991   -1.9272    1.6316 H       1  UNL1        0.0633
     30 H           1.5258    1.4349   -1.5527 H       1  UNL1        0.0639
@<TRIPOS>BOND
     1     1     2    1
     2     2     3    1
     3     3     4   ar
     4     4     5   ar
     5     5     6    1
     6     5     7   ar
     7     7     8   ar
     8     8     9    1
     9     8    10   ar
    10    10    11    1
    11    11    12   ar
    12    12    13   ar
    13    13    14   ar
    14    14    15    1
    15    14    16   ar
    16    16    17    1
    17    16    18   ar
    18    10     3   ar
    19    18    11   ar
    20     1    19    1
    21     1    20    1
    22     1    21    1
    23     2    22    1
    24     2    23    1
    25     6    24    1
    26     6    25    1
    27     9    26    1
    28     9    27    1
    29    12    28    1
    30    13    29    1
    31    18    30    1
