@<TRIPOS>MOLECULE
*****
 46 49 0 0 0
SMALL
GASTEIGER

@<TRIPOS>ATOM
      1 C           1.8685    2.6550    1.9489 C.3     1  UNL1       -0.0046
      2 C           2.5629    1.5496    1.2336 C.ar    1  UNL1        0.1280
      3 N           3.8856    1.4043    1.0621 N.ar    1  UNL1       -0.1345
      4 N           4.0908    0.2979    0.3767 N.ar    1  UNL1       -0.1293
      5 C           2.9395   -0.2884    0.0929 C.ar    1  UNL1        0.1642
      6 C           2.7789   -1.5479   -0.6837 C.ar    1  UNL1        0.0504
      7 C           3.8459   -2.2035   -1.2159 C.ar    1  UNL1       -0.0309
      8 C           5.2923   -1.7475   -1.0536 C.3     1  UNL1       -0.0385
      9 C           3.5958   -3.3342   -1.9369 C.ar    1  UNL1       -0.0189
     10 S           1.8334   -3.4918   -1.8746 S.2     1  UNL1       -0.0809
     11 C           1.5546   -2.0401   -0.8914 C.ar    1  UNL1        0.0827
     12 N           0.2313   -1.6222   -0.4855 N.am    1  UNL1       -0.2781
     13 C          -0.4253   -2.0920    0.6636 C.2     1  UNL1        0.2354
     14 O           0.2070   -2.9274    1.3822 O.2     1  UNL1       -0.2737
     15 C          -1.7674   -1.7277    1.1288 C.3     1  UNL1        0.0964
     16 N          -2.4833   -0.7933    0.3263 N.am    1  UNL1       -0.2623
     17 C          -3.3360   -1.2216   -0.7595 C.2     1  UNL1        0.2205
     18 O          -3.2002   -2.4100   -1.1368 O.2     1  UNL1       -0.2752
     19 C          -4.3223   -0.3785   -1.4293 C.3     1  UNL1        0.0285
     20 C          -4.0138    1.0856   -1.3698 C.3     1  UNL1       -0.0177
     21 C          -3.1532    1.4834   -0.2650 C.ar    1  UNL1       -0.0255
     22 C          -3.0459    2.8248    0.0137 C.ar    1  UNL1       -0.0568
     23 C          -2.2690    3.3386    1.0280 C.ar    1  UNL1       -0.0614
     24 C          -1.5569    2.4626    1.8106 C.ar    1  UNL1       -0.0600
     25 C          -1.6334    1.0980    1.5671 C.ar    1  UNL1       -0.0400
     26 C          -2.4258    0.6067    0.5367 C.ar    1  UNL1        0.0400
     27 N           1.9945    0.4824    0.6205 N.ar    1  UNL1       -0.3253
     28 H           1.3757    2.3181    2.8673 H       1  UNL1        0.0308
     29 H           1.1946    3.1280    1.2065 H       1  UNL1        0.0308
     30 H           2.5926    3.4469    2.2559 H       1  UNL1        0.0308
     31 H           5.3656   -0.6641   -1.3655 H       1  UNL1        0.0278
     32 H           5.9368   -2.3082   -1.7153 H       1  UNL1        0.0278
     33 H           5.6276   -1.9013   -0.0077 H       1  UNL1        0.0278
     34 H           4.2799   -4.0067   -2.4440 H       1  UNL1        0.0697
     35 H          -0.2399   -0.9346   -1.0954 H       1  UNL1        0.1554
     36 H          -2.3505   -2.7103    1.2281 H       1  UNL1        0.0564
     37 H          -1.6988   -1.3911    2.1804 H       1  UNL1        0.0564
     38 H          -4.4377   -0.6497   -2.5026 H       1  UNL1        0.0362
     39 H          -5.3116   -0.5524   -0.9574 H       1  UNL1        0.0362
     40 H          -3.5596    1.4304   -2.3367 H       1  UNL1        0.0318
     41 H          -4.9668    1.6825   -1.2896 H       1  UNL1        0.0318
     42 H          -3.5942    3.5556   -0.5831 H       1  UNL1        0.0621
     43 H          -2.2244    4.4176    1.2010 H       1  UNL1        0.0618
     44 H          -0.9422    2.8676    2.6152 H       1  UNL1        0.0618
     45 H          -1.0618    0.4557    2.1930 H       1  UNL1        0.0636
     46 H           0.9664    0.3532    0.5989 H       1  UNL1        0.1685
@<TRIPOS>BOND
     1     1     2    1
     2     2     3   ar
     3     3     4   ar
     4     4     5   ar
     5     5     6    1
     6     6     7   ar
     7     7     8    1
     8     7     9   ar
     9     9    10   ar
    10    10    11   ar
    11    11    12    1
    12    12    13   am
    13    13    14    2
    14    13    15    1
    15    15    16    1
    16    16    17   am
    17    17    18    2
    18    17    19    1
    19    19    20    1
    20    20    21    1
    21    21    22   ar
    22    22    23   ar
    23    23    24   ar
    24    24    25   ar
    25    25    26   ar
    26     5    27   ar
    27    27     2   ar
    28    11     6   ar
    29    26    16    1
    30    26    21   ar
    31     1    28    1
    32     1    29    1
    33     1    30    1
    34     8    31    1
    35     8    32    1
    36     8    33    1
    37     9    34    1
    38    12    35    1
    39    15    36    1
    40    15    37    1
    41    19    38    1
    42    19    39    1
    43    20    40    1
    44    20    41    1
    45    22    42    1
    46    23    43    1
    47    24    44    1
    48    25    45    1
    49    27    46    1
