
     RDKit          3D

 46 49  0  0  0  0  0  0  0  0999 V2000
    1.8685    2.6550    1.9489 C   0  0  0  0  0  0  0  0  0  0  0  0
    2.5629    1.5496    1.2336 C   0  0  0  0  0  0  0  0  0  0  0  0
    3.8856    1.4043    1.0621 N   0  0  0  0  0  0  0  0  0  0  0  0
    4.0908    0.2979    0.3767 N   0  0  0  0  0  0  0  0  0  0  0  0
    2.9395   -0.2884    0.0929 C   0  0  0  0  0  0  0  0  0  0  0  0
    2.7789   -1.5479   -0.6837 C   0  0  0  0  0  0  0  0  0  0  0  0
    3.8459   -2.2035   -1.2159 C   0  0  0  0  0  0  0  0  0  0  0  0
    5.2923   -1.7475   -1.0536 C   0  0  0  0  0  0  0  0  0  0  0  0
    3.5958   -3.3342   -1.9369 C   0  0  0  0  0  0  0  0  0  0  0  0
    1.8334   -3.4918   -1.8746 S   0  0  0  0  0  0  0  0  0  0  0  0
    1.5546   -2.0401   -0.8914 C   0  0  0  0  0  0  0  0  0  0  0  0
    0.2313   -1.6222   -0.4855 N   0  0  0  0  0  0  0  0  0  0  0  0
   -0.4253   -2.0920    0.6636 C   0  0  0  0  0  0  0  0  0  0  0  0
    0.2070   -2.9274    1.3822 O   0  0  0  0  0  0  0  0  0  0  0  0
   -1.7674   -1.7277    1.1288 C   0  0  0  0  0  0  0  0  0  0  0  0
   -2.4833   -0.7933    0.3263 N   0  0  0  0  0  0  0  0  0  0  0  0
   -3.3360   -1.2216   -0.7595 C   0  0  0  0  0  0  0  0  0  0  0  0
   -3.2002   -2.4100   -1.1368 O   0  0  0  0  0  0  0  0  0  0  0  0
   -4.3223   -0.3785   -1.4293 C   0  0  0  0  0  0  0  0  0  0  0  0
   -4.0138    1.0856   -1.3698 C   0  0  0  0  0  0  0  0  0  0  0  0
   -3.1532    1.4834   -0.2650 C   0  0  0  0  0  0  0  0  0  0  0  0
   -3.0459    2.8248    0.0137 C   0  0  0  0  0  0  0  0  0  0  0  0
   -2.2690    3.3386    1.0280 C   0  0  0  0  0  0  0  0  0  0  0  0
   -1.5569    2.4626    1.8106 C   0  0  0  0  0  0  0  0  0  0  0  0
   -1.6334    1.0980    1.5671 C   0  0  0  0  0  0  0  0  0  0  0  0
   -2.4258    0.6067    0.5367 C   0  0  0  0  0  0  0  0  0  0  0  0
    1.9945    0.4824    0.6205 N   0  0  0  0  0  0  0  0  0  0  0  0
    1.3757    2.3181    2.8673 H   0  0  0  0  0  0  0  0  0  0  0  0
    1.1946    3.1280    1.2065 H   0  0  0  0  0  0  0  0  0  0  0  0
    2.5926    3.4469    2.2559 H   0  0  0  0  0  0  0  0  0  0  0  0
    5.3656   -0.6641   -1.3655 H   0  0  0  0  0  0  0  0  0  0  0  0
    5.9368   -2.3082   -1.7153 H   0  0  0  0  0  0  0  0  0  0  0  0
    5.6276   -1.9013   -0.0077 H   0  0  0  0  0  0  0  0  0  0  0  0
    4.2799   -4.0067   -2.4440 H   0  0  0  0  0  0  0  0  0  0  0  0
   -0.2399   -0.9346   -1.0954 H   0  0  0  0  0  0  0  0  0  0  0  0
   -2.3505   -2.7103    1.2281 H   0  0  0  0  0  0  0  0  0  0  0  0
   -1.6988   -1.3911    2.1804 H   0  0  0  0  0  0  0  0  0  0  0  0
   -4.4377   -0.6497   -2.5026 H   0  0  0  0  0  0  0  0  0  0  0  0
   -5.3116   -0.5524   -0.9574 H   0  0  0  0  0  0  0  0  0  0  0  0
   -3.5596    1.4304   -2.3367 H   0  0  0  0  0  0  0  0  0  0  0  0
   -4.9668    1.6825   -1.2896 H   0  0  0  0  0  0  0  0  0  0  0  0
   -3.5942    3.5556   -0.5831 H   0  0  0  0  0  0  0  0  0  0  0  0
   -2.2244    4.4176    1.2010 H   0  0  0  0  0  0  0  0  0  0  0  0
   -0.9422    2.8676    2.6152 H   0  0  0  0  0  0  0  0  0  0  0  0
   -1.0618    0.4557    2.1930 H   0  0  0  0  0  0  0  0  0  0  0  0
    0.9664    0.3532    0.5989 H   0  0  0  0  0  0  0  0  0  0  0  0
  1  2  1  0
  2  3  2  0
  3  4  1  0
  4  5  2  0
  5  6  1  0
  6  7  1  0
  7  8  1  0
  7  9  2  0
  9 10  1  0
 10 11  1  0
 11 12  1  0
 12 13  1  0
 13 14  2  0
 13 15  1  0
 15 16  1  0
 16 17  1  0
 17 18  2  0
 17 19  1  0
 19 20  1  0
 20 21  1  0
 21 22  2  0
 22 23  1  0
 23 24  2  0
 24 25  1  0
 25 26  2  0
  5 27  1  0
 27  2  1  0
 11  6  2  0
 26 16  1  0
 26 21  1  0
  1 28  1  0
  1 29  1  0
  1 30  1  0
  8 31  1  0
  8 32  1  0
  8 33  1  0
  9 34  1  0
 12 35  1  0
 15 36  1  0
 15 37  1  0
 19 38  1  0
 19 39  1  0
 20 40  1  0
 20 41  1  0
 22 42  1  0
 23 43  1  0
 24 44  1  0
 25 45  1  0
 27 46  1  0
M  END
$$$$
