
     RDKit          3D

 49 51  0  0  0  0  0  0  0  0999 V2000
    7.6901    1.4646   -1.1027 C   0  0  0  0  0  0  0  0  0  0  0  0
    7.3032    0.3259   -0.3394 O   0  0  0  0  0  0  0  0  0  0  0  0
    5.9454    0.1343   -0.1392 C   0  0  0  0  0  0  0  0  0  0  0  0
    4.9826    0.9834   -0.6388 C   0  0  0  0  0  0  0  0  0  0  0  0
    3.6301    0.7304   -0.3989 C   0  0  0  0  0  0  0  0  0  0  0  0
    2.7637    1.6465   -0.9475 O   0  0  0  0  0  0  0  0  0  0  0  0
    3.2047   -0.3534    0.3308 C   0  0  0  0  0  0  0  0  0  0  0  0
    1.8238   -0.6597    0.6071 C   0  0  0  0  0  0  0  0  0  0  0  0
    1.6030   -1.7109    1.3042 O   0  0  0  0  0  0  0  0  0  0  0  0
    0.7058    0.1450    0.1450 C   0  0  0  0  0  0  0  0  0  0  0  0
   -0.5484   -0.2171    0.4506 C   0  0  0  0  0  0  0  0  0  0  0  0
   -1.6991    0.5394    0.0217 C   0  0  0  0  0  0  0  0  0  0  0  0
   -1.6701    1.6746   -0.7196 C   0  0  0  0  0  0  0  0  0  0  0  0
   -2.8156    2.3752   -1.1123 C   0  0  0  0  0  0  0  0  0  0  0  0
   -4.0247    1.8593   -0.7091 C   0  0  0  0  0  0  0  0  0  0  0  0
   -4.1398    0.6946    0.0561 C   0  0  0  0  0  0  0  0  0  0  0  0
   -5.3954    0.1895    0.4562 N   0  0  0  0  0  0  0  0  0  0  0  0
   -6.6996    0.7336    0.1977 C   0  0  0  0  0  0  0  0  0  0  0  0
   -7.4350   -0.5187   -0.3086 C   0  0  0  0  0  0  0  0  0  0  0  0
   -6.7923   -1.6376    0.4793 C   0  0  0  0  0  0  0  0  0  0  0  0
   -5.6093   -1.0050    1.2267 C   0  0  0  0  0  0  0  0  0  0  0  0
   -2.9647    0.0642    0.4015 C   0  0  0  0  0  0  0  0  0  0  0  0
    4.2192   -1.1888    0.8187 C   0  0  0  0  0  0  0  0  0  0  0  0
    5.5527   -0.9679    0.6007 C   0  0  0  0  0  0  0  0  0  0  0  0
    6.5251   -1.8166    1.0995 O   0  0  0  0  0  0  0  0  0  0  0  0
    6.1162   -2.9384    1.8531 C   0  0  0  0  0  0  0  0  0  0  0  0
    8.7787    1.5934   -1.1409 H   0  0  0  0  0  0  0  0  0  0  0  0
    7.2848    2.4087   -0.6477 H   0  0  0  0  0  0  0  0  0  0  0  0
    7.2192    1.4198   -2.1189 H   0  0  0  0  0  0  0  0  0  0  0  0
    5.2882    1.8448   -1.2169 H   0  0  0  0  0  0  0  0  0  0  0  0
    2.6689    2.6060   -0.6857 H   0  0  0  0  0  0  0  0  0  0  0  0
    0.7711    1.0367   -0.4396 H   0  0  0  0  0  0  0  0  0  0  0  0
   -0.6403   -1.1152    1.0407 H   0  0  0  0  0  0  0  0  0  0  0  0
   -0.7243    2.0846   -1.0393 H   0  0  0  0  0  0  0  0  0  0  0  0
   -2.7506    3.2802   -1.7055 H   0  0  0  0  0  0  0  0  0  0  0  0
   -4.9724    2.3443   -0.9713 H   0  0  0  0  0  0  0  0  0  0  0  0
   -6.7413    1.5354   -0.5357 H   0  0  0  0  0  0  0  0  0  0  0  0
   -7.1905    1.0284    1.1652 H   0  0  0  0  0  0  0  0  0  0  0  0
   -7.1401   -0.5862   -1.3960 H   0  0  0  0  0  0  0  0  0  0  0  0
   -8.5123   -0.4366   -0.1663 H   0  0  0  0  0  0  0  0  0  0  0  0
   -6.3649   -2.3726   -0.2201 H   0  0  0  0  0  0  0  0  0  0  0  0
   -7.5045   -2.0919    1.1985 H   0  0  0  0  0  0  0  0  0  0  0  0
   -5.9362   -0.6985    2.2439 H   0  0  0  0  0  0  0  0  0  0  0  0
   -4.7672   -1.6907    1.2902 H   0  0  0  0  0  0  0  0  0  0  0  0
   -2.9804   -0.8480    0.9985 H   0  0  0  0  0  0  0  0  0  0  0  0
    3.9253   -2.0537    1.3984 H   0  0  0  0  0  0  0  0  0  0  0  0
    5.4213   -2.6766    2.6649 H   0  0  0  0  0  0  0  0  0  0  0  0
    5.5793   -3.6688    1.1934 H   0  0  0  0  0  0  0  0  0  0  0  0
    7.0163   -3.4898    2.2381 H   0  0  0  0  0  0  0  0  0  0  0  0
  1  2  1  0
  2  3  1  0
  3  4  2  0
  4  5  1  0
  5  6  1  0
  5  7  2  0
  7  8  1  0
  8  9  2  0
  8 10  1  0
 10 11  2  0
 11 12  1  0
 12 13  2  0
 13 14  1  0
 14 15  2  0
 15 16  1  0
 16 17  1  0
 17 18  1  0
 18 19  1  0
 19 20  1  0
 20 21  1  0
 16 22  2  0
  7 23  1  0
 23 24  2  0
 24 25  1  0
 25 26  1  0
 24  3  1  0
 22 12  1  0
 21 17  1  0
  1 27  1  0
  1 28  1  0
  1 29  1  0
  4 30  1  0
  6 31  1  0
 10 32  1  0
 11 33  1  0
 13 34  1  0
 14 35  1  0
 15 36  1  0
 18 37  1  0
 18 38  1  0
 19 39  1  0
 19 40  1  0
 20 41  1  0
 20 42  1  0
 21 43  1  0
 21 44  1  0
 22 45  1  0
 23 46  1  0
 26 47  1  0
 26 48  1  0
 26 49  1  0
M  END
$$$$
