@<TRIPOS>MOLECULE
*****
 49 51 0 0 0
SMALL
GASTEIGER

@<TRIPOS>ATOM
      1 C           7.6901    1.4646   -1.1027 C.3     1  UNL1        0.0790
      2 O           7.3032    0.3259   -0.3394 O.3     1  UNL1       -0.4913
      3 C           5.9454    0.1343   -0.1392 C.ar    1  UNL1        0.1650
      4 C           4.9826    0.9834   -0.6388 C.ar    1  UNL1        0.0259
      5 C           3.6301    0.7304   -0.3989 C.ar    1  UNL1        0.1313
      6 O           2.7637    1.6465   -0.9475 O.3     1  UNL1       -0.5059
      7 C           3.2047   -0.3534    0.3308 C.ar    1  UNL1        0.0667
      8 C           1.8238   -0.6597    0.6071 C.2     1  UNL1        0.1897
      9 O           1.6030   -1.7109    1.3042 O.2     1  UNL1       -0.2872
     10 C           0.7058    0.1450    0.1450 C.2     1  UNL1       -0.0137
     11 C          -0.5484   -0.2171    0.4506 C.2     1  UNL1       -0.0509
     12 C          -1.6991    0.5394    0.0217 C.ar    1  UNL1       -0.0232
     13 C          -1.6701    1.6746   -0.7196 C.ar    1  UNL1       -0.0545
     14 C          -2.8156    2.3752   -1.1123 C.ar    1  UNL1       -0.0595
     15 C          -4.0247    1.8593   -0.7091 C.ar    1  UNL1       -0.0406
     16 C          -4.1398    0.6946    0.0561 C.ar    1  UNL1        0.0302
     17 N          -5.3954    0.1895    0.4562 N.pl3   1  UNL1       -0.3299
     18 C          -6.6996    0.7336    0.1977 C.3     1  UNL1        0.0122
     19 C          -7.4350   -0.5187   -0.3086 C.3     1  UNL1       -0.0358
     20 C          -6.7923   -1.6376    0.4793 C.3     1  UNL1       -0.0358
     21 C          -5.6093   -1.0050    1.2267 C.3     1  UNL1        0.0122
     22 C          -2.9647    0.0642    0.4015 C.ar    1  UNL1       -0.0335
     23 C           4.2192   -1.1888    0.8187 C.ar    1  UNL1       -0.0020
     24 C           5.5527   -0.9679    0.6007 C.ar    1  UNL1        0.1624
     25 O           6.5251   -1.8166    1.0995 O.3     1  UNL1       -0.4914
     26 C           6.1162   -2.9384    1.8531 C.3     1  UNL1        0.0790
     27 H           8.7787    1.5934   -1.1409 H       1  UNL1        0.0660
     28 H           7.2848    2.4087   -0.6477 H       1  UNL1        0.0660
     29 H           7.2192    1.4198   -2.1189 H       1  UNL1        0.0660
     30 H           5.2882    1.8448   -1.2169 H       1  UNL1        0.0692
     31 H           2.6689    2.6060   -0.6857 H       1  UNL1        0.2922
     32 H           0.7711    1.0367   -0.4396 H       1  UNL1        0.0656
     33 H          -0.6403   -1.1152    1.0407 H       1  UNL1        0.0625
     34 H          -0.7243    2.0846   -1.0393 H       1  UNL1        0.0623
     35 H          -2.7506    3.2802   -1.7055 H       1  UNL1        0.0618
     36 H          -4.9724    2.3443   -0.9713 H       1  UNL1        0.0636
     37 H          -6.7413    1.5354   -0.5357 H       1  UNL1        0.0464
     38 H          -7.1905    1.0284    1.1652 H       1  UNL1        0.0464
     39 H          -7.1401   -0.5862   -1.3960 H       1  UNL1        0.0281
     40 H          -8.5123   -0.4366   -0.1663 H       1  UNL1        0.0281
     41 H          -6.3649   -2.3726   -0.2201 H       1  UNL1        0.0281
     42 H          -7.5045   -2.0919    1.1985 H       1  UNL1        0.0281
     43 H          -5.9362   -0.6985    2.2439 H       1  UNL1        0.0464
     44 H          -4.7672   -1.6907    1.2902 H       1  UNL1        0.0464
     45 H          -2.9804   -0.8480    0.9985 H       1  UNL1        0.0642
     46 H           3.9253   -2.0537    1.3984 H       1  UNL1        0.0663
     47 H           5.4213   -2.6766    2.6649 H       1  UNL1        0.0660
     48 H           5.5793   -3.6688    1.1934 H       1  UNL1        0.0660
     49 H           7.0163   -3.4898    2.2381 H       1  UNL1        0.0660
@<TRIPOS>BOND
     1     1     2    1
     2     2     3    1
     3     3     4   ar
     4     4     5   ar
     5     5     6    1
     6     5     7   ar
     7     7     8    1
     8     8     9    2
     9     8    10    1
    10    10    11    2
    11    11    12    1
    12    12    13   ar
    13    13    14   ar
    14    14    15   ar
    15    15    16   ar
    16    16    17    1
    17    17    18    1
    18    18    19    1
    19    19    20    1
    20    20    21    1
    21    16    22   ar
    22     7    23   ar
    23    23    24   ar
    24    24    25    1
    25    25    26    1
    26    24     3   ar
    27    22    12   ar
    28    21    17    1
    29     1    27    1
    30     1    28    1
    31     1    29    1
    32     4    30    1
    33     6    31    1
    34    10    32    1
    35    11    33    1
    36    13    34    1
    37    14    35    1
    38    15    36    1
    39    18    37    1
    40    18    38    1
    41    19    39    1
    42    19    40    1
    43    20    41    1
    44    20    42    1
    45    21    43    1
    46    21    44    1
    47    22    45    1
    48    23    46    1
    49    26    47    1
    50    26    48    1
    51    26    49    1
