@<TRIPOS>MOLECULE
*****
 45 48 0 0 0
SMALL
GASTEIGER

@<TRIPOS>ATOM
      1 O          -4.0278    2.6727    0.4588 O.2     1  UNL1       -0.2701
      2 C          -4.0551    1.5965    0.4621 C.2     1  UNL1        0.2471
      3 N          -5.3358    1.0026   -0.1631 N.am    1  UNL1       -0.3084
      4 C          -6.4859    1.6505   -0.6941 C.3     1  UNL1        0.0235
      5 C          -7.6126    0.6627   -0.9544 C.3     1  UNL1       -0.0328
      6 C          -7.7403    1.6301    0.1862 C.3     1  UNL1       -0.0328
      7 C          -3.3084    0.3025    0.8589 C.ar    1  UNL1        0.0737
      8 C          -2.1073   -0.0015    0.3793 C.ar    1  UNL1       -0.0231
      9 C          -1.5233   -1.2296    0.3952 C.ar    1  UNL1        0.0640
     10 N          -0.3099   -1.6578    0.0259 N.pl3   1  UNL1       -0.3369
     11 C           0.9311   -2.0904   -0.3544 C.3     1  UNL1        0.0422
     12 C           1.9636   -1.0645   -0.4613 C.ar    1  UNL1        0.0280
     13 C           2.2363   -0.1710   -1.4989 C.ar    1  UNL1        0.0415
     14 N           3.2393    0.6448   -1.3499 N.ar    1  UNL1       -0.2327
     15 C           3.9554    0.7088   -0.3977 C.ar    1  UNL1        0.1637
     16 N           5.0686    1.4868    0.0935 N.pl3   1  UNL1       -0.2787
     17 C           6.3418    0.8859    0.2194 C.ar    1  UNL1        0.1243
     18 C           7.4706    1.6063   -0.0981 C.ar    1  UNL1       -0.0215
     19 C           8.6921    0.9695    0.0885 C.ar    1  UNL1       -0.0571
     20 C           8.7356   -0.2874    0.5821 C.ar    1  UNL1       -0.0435
     21 C           7.5491   -0.9672    0.8796 C.ar    1  UNL1        0.0297
     22 N           6.4309   -0.3672    0.6841 N.ar    1  UNL1       -0.2401
     23 S           3.2280   -0.6011    0.6858 S.2     1  UNL1       -0.0555
     24 C          -2.2892   -2.2766    0.9564 C.ar    1  UNL1        0.1469
     25 F          -1.9152   -3.5838    0.8885 F       1  UNL1       -0.2035
     26 C          -3.6093   -2.0590    1.4815 C.ar    1  UNL1        0.0114
     27 C          -4.0222   -0.7418    1.4030 C.ar    1  UNL1        0.1383
     28 F          -5.2757   -0.4358    1.8795 F       1  UNL1       -0.2046
     29 H          -5.2402   -0.0536   -0.3190 H       1  UNL1        0.1493
     30 H          -6.3685    2.5579   -1.2416 H       1  UNL1        0.0498
     31 H          -8.1984    0.7734   -1.8650 H       1  UNL1        0.0284
     32 H          -7.4064   -0.4417   -0.7278 H       1  UNL1        0.0284
     33 H          -7.7347    1.1865    1.1885 H       1  UNL1        0.0284
     34 H          -8.4338    2.4608    0.0708 H       1  UNL1        0.0284
     35 H          -1.4804    0.8750    0.0535 H       1  UNL1        0.0645
     36 H          -0.4432   -0.9697   -1.1829 H       1  UNL1        0.1465
     37 H           1.0073   -2.7777   -1.2260 H       1  UNL1        0.0516
     38 H           1.3735   -2.7316    0.5614 H       1  UNL1        0.0516
     39 H           1.5519   -0.1198   -2.3887 H       1  UNL1        0.0839
     40 H           4.9581    2.4782    0.3586 H       1  UNL1        0.1555
     41 H           7.4300    2.6061   -0.4922 H       1  UNL1        0.0652
     42 H           9.6352    1.4852   -0.1640 H       1  UNL1        0.0619
     43 H           9.6941   -0.7638    0.7538 H       1  UNL1        0.0633
     44 H           7.5858   -2.0043    1.2415 H       1  UNL1        0.0830
     45 H          -4.1550   -2.8456    1.8852 H       1  UNL1        0.0676
@<TRIPOS>BOND
     1     1     2    2
     2     2     3   am
     3     3     4    1
     4     4     5    1
     5     5     6    1
     6     2     7    1
     7     7     8   ar
     8     8     9   ar
     9     9    10    1
    10    10    11    1
    11    11    12    1
    12    12    13   ar
    13    13    14   ar
    14    14    15   ar
    15    15    16    1
    16    16    17    1
    17    17    18   ar
    18    18    19   ar
    19    19    20   ar
    20    20    21   ar
    21    21    22   ar
    22    15    23   ar
    23     9    24   ar
    24    24    25    1
    25    24    26   ar
    26    26    27   ar
    27    27    28    1
    28     6     4    1
    29    27     7   ar
    30    23    12   ar
    31    22    17   ar
    32     3    29    1
    33     4    30    1
    34     5    31    1
    35     5    32    1
    36     6    33    1
    37     6    34    1
    38     8    35    1
    39    10    36    1
    40    11    37    1
    41    11    38    1
    42    13    39    1
    43    16    40    1
    44    18    41    1
    45    19    42    1
    46    20    43    1
    47    21    44    1
    48    26    45    1
