
     RDKit          3D

 45 48  0  0  0  0  0  0  0  0999 V2000
   -4.0278    2.6727    0.4588 O   0  0  0  0  0  0  0  0  0  0  0  0
   -4.0551    1.5965    0.4621 C   0  0  0  0  0  0  0  0  0  0  0  0
   -5.3358    1.0026   -0.1631 N   0  0  0  0  0  0  0  0  0  0  0  0
   -6.4859    1.6505   -0.6941 C   0  0  0  0  0  0  0  0  0  0  0  0
   -7.6126    0.6627   -0.9544 C   0  0  0  0  0  0  0  0  0  0  0  0
   -7.7403    1.6301    0.1862 C   0  0  0  0  0  0  0  0  0  0  0  0
   -3.3084    0.3025    0.8589 C   0  0  0  0  0  0  0  0  0  0  0  0
   -2.1073   -0.0015    0.3793 C   0  0  0  0  0  0  0  0  0  0  0  0
   -1.5233   -1.2296    0.3952 C   0  0  0  0  0  0  0  0  0  0  0  0
   -0.3099   -1.6578    0.0259 N   0  0  0  0  0  0  0  0  0  0  0  0
    0.9311   -2.0904   -0.3544 C   0  0  0  0  0  0  0  0  0  0  0  0
    1.9636   -1.0645   -0.4613 C   0  0  0  0  0  0  0  0  0  0  0  0
    2.2363   -0.1710   -1.4989 C   0  0  0  0  0  0  0  0  0  0  0  0
    3.2393    0.6448   -1.3499 N   0  0  0  0  0  0  0  0  0  0  0  0
    3.9554    0.7088   -0.3977 C   0  0  0  0  0  0  0  0  0  0  0  0
    5.0686    1.4868    0.0935 N   0  0  0  0  0  0  0  0  0  0  0  0
    6.3418    0.8859    0.2194 C   0  0  0  0  0  0  0  0  0  0  0  0
    7.4706    1.6063   -0.0981 C   0  0  0  0  0  0  0  0  0  0  0  0
    8.6921    0.9695    0.0885 C   0  0  0  0  0  0  0  0  0  0  0  0
    8.7356   -0.2874    0.5821 C   0  0  0  0  0  0  0  0  0  0  0  0
    7.5491   -0.9672    0.8796 C   0  0  0  0  0  0  0  0  0  0  0  0
    6.4309   -0.3672    0.6841 N   0  0  0  0  0  0  0  0  0  0  0  0
    3.2280   -0.6011    0.6858 S   0  0  0  0  0  0  0  0  0  0  0  0
   -2.2892   -2.2766    0.9564 C   0  0  0  0  0  0  0  0  0  0  0  0
   -1.9152   -3.5838    0.8885 F   0  0  0  0  0  0  0  0  0  0  0  0
   -3.6093   -2.0590    1.4815 C   0  0  0  0  0  0  0  0  0  0  0  0
   -4.0222   -0.7418    1.4030 C   0  0  0  0  0  0  0  0  0  0  0  0
   -5.2757   -0.4358    1.8795 F   0  0  0  0  0  0  0  0  0  0  0  0
   -5.2402   -0.0536   -0.3190 H   0  0  0  0  0  0  0  0  0  0  0  0
   -6.3685    2.5579   -1.2416 H   0  0  0  0  0  0  0  0  0  0  0  0
   -8.1984    0.7734   -1.8650 H   0  0  0  0  0  0  0  0  0  0  0  0
   -7.4064   -0.4417   -0.7278 H   0  0  0  0  0  0  0  0  0  0  0  0
   -7.7347    1.1865    1.1885 H   0  0  0  0  0  0  0  0  0  0  0  0
   -8.4338    2.4608    0.0708 H   0  0  0  0  0  0  0  0  0  0  0  0
   -1.4804    0.8750    0.0535 H   0  0  0  0  0  0  0  0  0  0  0  0
   -0.4432   -0.9697   -1.1829 H   0  0  0  0  0  0  0  0  0  0  0  0
    1.0073   -2.7777   -1.2260 H   0  0  0  0  0  0  0  0  0  0  0  0
    1.3735   -2.7316    0.5614 H   0  0  0  0  0  0  0  0  0  0  0  0
    1.5519   -0.1198   -2.3887 H   0  0  0  0  0  0  0  0  0  0  0  0
    4.9581    2.4782    0.3586 H   0  0  0  0  0  0  0  0  0  0  0  0
    7.4300    2.6061   -0.4922 H   0  0  0  0  0  0  0  0  0  0  0  0
    9.6352    1.4852   -0.1640 H   0  0  0  0  0  0  0  0  0  0  0  0
    9.6941   -0.7638    0.7538 H   0  0  0  0  0  0  0  0  0  0  0  0
    7.5858   -2.0043    1.2415 H   0  0  0  0  0  0  0  0  0  0  0  0
   -4.1550   -2.8456    1.8852 H   0  0  0  0  0  0  0  0  0  0  0  0
  1  2  2  0
  2  3  1  0
  3  4  1  0
  4  5  1  0
  5  6  1  0
  2  7  1  0
  7  8  2  0
  8  9  1  0
  9 10  1  0
 10 11  1  0
 11 12  1  0
 12 13  2  0
 13 14  1  0
 14 15  2  0
 15 16  1  0
 16 17  1  0
 17 18  2  0
 18 19  1  0
 19 20  2  0
 20 21  1  0
 21 22  2  0
 15 23  1  0
  9 24  2  0
 24 25  1  0
 24 26  1  0
 26 27  2  0
 27 28  1  0
  6  4  1  0
 27  7  1  0
 23 12  1  0
 22 17  1  0
  3 29  1  0
  4 30  1  0
  5 31  1  0
  5 32  1  0
  6 33  1  0
  6 34  1  0
  8 35  1  0
 10 36  1  0
 11 37  1  0
 11 38  1  0
 13 39  1  0
 16 40  1  0
 18 41  1  0
 19 42  1  0
 20 43  1  0
 21 44  1  0
 26 45  1  0
M  END
$$$$
