@<TRIPOS>MOLECULE
*****
 56 56 0 0 0
SMALL
GASTEIGER

@<TRIPOS>ATOM
      1 C          -3.0118   -0.1588   -0.1049 C.3     1  UNL1        0.0441
      2 C          -3.3982    0.6001   -1.3495 C.3     1  UNL1       -0.0391
      3 C          -4.8342    0.8648   -1.5611 C.3     1  UNL1       -0.0460
      4 C          -5.6877   -0.3874   -1.6190 C.3     1  UNL1       -0.0626
      5 C          -5.4797    1.9523   -0.7946 C.3     1  UNL1       -0.0626
      6 C          -3.4444    0.5819    1.1020 C.3     1  UNL1        0.0370
      7 C          -3.1213   -0.0598    2.4069 C.2     1  UNL1        0.2362
      8 O          -2.6490   -0.9616    3.1841 O.2     1  UNL1       -0.2737
      9 N          -3.6110    0.8153    3.4518 N.am    1  UNL1       -0.1975
     10 O          -3.4547    0.4823    4.7747 O.3     1  UNL1       -0.2952
     11 C          -1.5201   -0.3265   -0.2198 C.2     1  UNL1        0.2172
     12 O          -1.3953    0.3615   -1.2859 O.2     1  UNL1       -0.2755
     13 N          -0.4472   -0.9319    0.4259 N.am    1  UNL1       -0.3034
     14 C           0.8858   -0.7382   -0.1858 C.3     1  UNL1        0.1033
     15 C           1.6476    0.0757    0.8327 C.3     1  UNL1       -0.0007
     16 C           3.0186    0.4149    0.4794 C.ar    1  UNL1       -0.0449
     17 C           4.2073   -0.2490    0.7576 C.ar    1  UNL1       -0.0550
     18 C           5.4306    0.2265    0.3363 C.ar    1  UNL1       -0.0197
     19 C           5.5292    1.3959   -0.3883 C.ar    1  UNL1        0.1201
     20 O           6.7610    1.8738   -0.8119 O.3     1  UNL1       -0.4951
     21 C           7.9533    1.1751   -0.5128 C.3     1  UNL1        0.0788
     22 C           4.3853    2.1000   -0.6958 C.ar    1  UNL1       -0.0197
     23 C           3.1799    1.5940   -0.2578 C.ar    1  UNL1       -0.0550
     24 C           1.4976   -2.0574   -0.4604 C.2     1  UNL1        0.2334
     25 O           0.4886   -2.6063    0.1032 O.2     1  UNL1       -0.2738
     26 N           2.6404   -2.6250   -1.0511 N.am    1  UNL1       -0.3168
     27 C           2.7759   -4.0486   -1.0598 C.3     1  UNL1        0.0001
     28 H          -3.4058   -1.1949   -0.1642 H       1  UNL1        0.0399
     29 H          -3.0161    0.0741   -2.2724 H       1  UNL1        0.0275
     30 H          -2.8498    1.5911   -1.3971 H       1  UNL1        0.0275
     31 H          -4.8838    1.2219   -2.6669 H       1  UNL1        0.0296
     32 H          -5.3311   -1.0230   -2.4492 H       1  UNL1        0.0232
     33 H          -6.7087   -0.0525   -1.9394 H       1  UNL1        0.0232
     34 H          -5.7688   -0.9243   -0.6729 H       1  UNL1        0.0232
     35 H          -4.7937    2.5996   -0.2121 H       1  UNL1        0.0232
     36 H          -6.3031    1.6495   -0.1117 H       1  UNL1        0.0232
     37 H          -5.9789    2.6625   -1.5093 H       1  UNL1        0.0232
     38 H          -3.0599    1.6170    1.1184 H       1  UNL1        0.0366
     39 H          -4.5723    0.6713    1.0959 H       1  UNL1        0.0366
     40 H          -4.1136    1.7454    3.5343 H       1  UNL1        0.1822
     41 H          -3.9783   -0.3362    5.0052 H       1  UNL1        0.2414
     42 H          -0.8816   -1.4076    1.2318 H       1  UNL1        0.1495
     43 H           0.7980   -0.1214   -1.0888 H       1  UNL1        0.0598
     44 H           1.0572    0.9981    1.0130 H       1  UNL1        0.0336
     45 H           1.6895   -0.5640    1.7547 H       1  UNL1        0.0336
     46 H           4.0446   -1.1694    1.3370 H       1  UNL1        0.0621
     47 H           6.2948   -0.3621    0.6032 H       1  UNL1        0.0654
     48 H           8.7698    1.4659   -1.2196 H       1  UNL1        0.0660
     49 H           7.8332    0.0815   -0.6609 H       1  UNL1        0.0660
     50 H           8.2428    1.3482    0.5468 H       1  UNL1        0.0660
     51 H           4.4648    3.0001   -1.2539 H       1  UNL1        0.0654
     52 H           2.3134    2.2106   -0.5416 H       1  UNL1        0.0621
     53 H           3.1866   -1.8178   -1.3887 H       1  UNL1        0.1484
     54 H           2.3857   -4.4371   -2.0185 H       1  UNL1        0.0426
     55 H           3.8726   -4.3107   -1.0107 H       1  UNL1        0.0426
     56 H           2.3458   -4.5301   -0.1588 H       1  UNL1        0.0426
@<TRIPOS>BOND
     1     1     2    1
     2     2     3    1
     3     3     4    1
     4     3     5    1
     5     1     6    1
     6     6     7    1
     7     7     8    2
     8     7     9   am
     9     9    10    1
    10     1    11    1
    11    11    12    2
    12    11    13   am
    13    13    14    1
    14    14    15    1
    15    15    16    1
    16    16    17   ar
    17    17    18   ar
    18    18    19   ar
    19    19    20    1
    20    20    21    1
    21    19    22   ar
    22    22    23   ar
    23    14    24    1
    24    24    25    2
    25    24    26   am
    26    26    27    1
    27    23    16   ar
    28     1    28    1
    29     2    29    1
    30     2    30    1
    31     3    31    1
    32     4    32    1
    33     4    33    1
    34     4    34    1
    35     5    35    1
    36     5    36    1
    37     5    37    1
    38     6    38    1
    39     6    39    1
    40     9    40    1
    41    10    41    1
    42    13    42    1
    43    14    43    1
    44    15    44    1
    45    15    45    1
    46    17    46    1
    47    18    47    1
    48    21    48    1
    49    21    49    1
    50    21    50    1
    51    22    51    1
    52    23    52    1
    53    26    53    1
    54    27    54    1
    55    27    55    1
    56    27    56    1
