@<TRIPOS>MOLECULE
*****
 13 12 0 0 0
SMALL
GASTEIGER

@<TRIPOS>ATOM
      1 C          -2.1574    0.3272    0.0611 C.3     1  UNL1       -0.0055
      2 C          -0.6894    0.3786    0.2728 C.2     1  UNL1        0.1409
      3 O          -0.1865    1.1742    1.0795 O.2     1  UNL1       -0.2971
      4 C           0.2929   -0.4783   -0.4268 C.3     1  UNL1        0.1028
      5 C           1.6513   -0.0923    0.0885 C.2     1  UNL1        0.3119
      6 O           2.7102   -0.8025   -0.4639 O.3     1  UNL1       -0.4803
      7 O           1.9455    0.7902    0.9541 O.2     1  UNL1       -0.2505
      8 H          -2.5586    1.3158    0.4099 H       1  UNL1        0.0306
      9 H          -2.3917    0.1751   -1.0132 H       1  UNL1        0.0306
     10 H          -2.6339   -0.4283    0.7227 H       1  UNL1        0.0306
     11 H           0.1476   -1.5231   -0.0229 H       1  UNL1        0.0455
     12 H           0.2276   -0.4643   -1.5167 H       1  UNL1        0.0455
     13 H           3.6423   -0.3723   -0.4166 H       1  UNL1        0.2951
@<TRIPOS>BOND
     1     1     2    1
     2     2     3    2
     3     2     4    1
     4     4     5    1
     5     5     6    1
     6     5     7    2
     7     1     8    1
     8     1     9    1
     9     1    10    1
    10     4    11    1
    11     4    12    1
    12     6    13    1
