
     RDKit          3D

 13 12  0  0  0  0  0  0  0  0999 V2000
   -2.1574    0.3272    0.0611 C   0  0  0  0  0  0  0  0  0  0  0  0
   -0.6894    0.3786    0.2728 C   0  0  0  0  0  0  0  0  0  0  0  0
   -0.1865    1.1742    1.0795 O   0  0  0  0  0  0  0  0  0  0  0  0
    0.2929   -0.4783   -0.4268 C   0  0  0  0  0  0  0  0  0  0  0  0
    1.6513   -0.0923    0.0885 C   0  0  0  0  0  0  0  0  0  0  0  0
    2.7102   -0.8025   -0.4639 O   0  0  0  0  0  0  0  0  0  0  0  0
    1.9455    0.7902    0.9541 O   0  0  0  0  0  0  0  0  0  0  0  0
   -2.5586    1.3158    0.4099 H   0  0  0  0  0  0  0  0  0  0  0  0
   -2.3917    0.1751   -1.0132 H   0  0  0  0  0  0  0  0  0  0  0  0
   -2.6339   -0.4283    0.7227 H   0  0  0  0  0  0  0  0  0  0  0  0
    0.1476   -1.5231   -0.0229 H   0  0  0  0  0  0  0  0  0  0  0  0
    0.2276   -0.4643   -1.5167 H   0  0  0  0  0  0  0  0  0  0  0  0
    3.6423   -0.3723   -0.4166 H   0  0  0  0  0  0  0  0  0  0  0  0
  1  2  1  0
  2  3  2  0
  2  4  1  0
  4  5  1  0
  5  6  1  0
  5  7  2  0
  1  8  1  0
  1  9  1  0
  1 10  1  0
  4 11  1  0
  4 12  1  0
  6 13  1  0
M  END
$$$$
