@<TRIPOS>MOLECULE
*****
 57 60 0 0 0
SMALL
GASTEIGER

@<TRIPOS>ATOM
      1 C          -4.1117    2.6793    0.9040 C.3     1  UNL1       -0.0558
      2 C          -4.2214    1.1629    0.6884 C.3     1  UNL1       -0.0096
      3 C          -4.7983    0.5893    1.9591 C.3     1  UNL1       -0.0558
      4 C          -5.1910    0.9774   -0.4348 C.3     1  UNL1       -0.0431
      5 C          -4.6751    0.0777   -1.5285 C.3     1  UNL1       -0.0431
      6 C          -3.8180   -1.0434   -0.9910 C.3     1  UNL1       -0.0095
      7 C          -4.5372   -1.9347   -0.0122 C.3     1  UNL1       -0.0558
      8 C          -3.4407   -1.8971   -2.2095 C.3     1  UNL1       -0.0558
      9 C          -2.5976   -0.4120   -0.4237 C.ar    1  UNL1       -0.0374
     10 C          -1.3069   -0.8227   -0.6571 C.ar    1  UNL1       -0.0485
     11 C          -0.1868   -0.2365   -0.1317 C.ar    1  UNL1        0.0044
     12 C          -0.5080    0.8259    0.6678 C.ar    1  UNL1       -0.0522
     13 C          -1.7622    1.3115    0.9630 C.ar    1  UNL1       -0.0572
     14 C          -2.8472    0.6726    0.3989 C.ar    1  UNL1       -0.0380
     15 C           1.1094   -0.7017   -0.5190 C.2     1  UNL1        0.1167
     16 N           1.1957   -1.5292   -1.4760 N.2     1  UNL1       -0.0864
     17 O           0.3171   -2.1224   -2.2779 O.2     1  UNL1       -0.4087
     18 C           2.4173   -0.3953    0.0119 C.ar    1  UNL1        0.0047
     19 C           2.7392    0.3401    1.1258 C.ar    1  UNL1       -0.0519
     20 C           3.9709    0.6975    1.6052 C.ar    1  UNL1       -0.0534
     21 C           5.0531    0.2626    0.8769 C.ar    1  UNL1       -0.0171
     22 C           6.3450    0.5563    1.2543 C.ar    1  UNL1       -0.0400
     23 C           7.4886    0.1658    0.5902 C.ar    1  UNL1        0.0594
     24 C           7.2239   -0.5801   -0.5393 C.ar    1  UNL1       -0.0472
     25 C           5.9576   -0.9237   -0.9948 C.ar    1  UNL1       -0.0532
     26 C           4.8791   -0.4852   -0.2608 C.ar    1  UNL1       -0.0172
     27 C           3.5912   -0.7697   -0.6265 C.ar    1  UNL1       -0.0447
     28 C           8.8283    0.4970    1.0225 C.2     1  UNL1        0.3368
     29 O           8.9933    1.2500    2.1687 O.3     1  UNL1       -0.4771
     30 O           9.8286    0.1207    0.3884 O.2     1  UNL1       -0.2451
     31 H          -3.8538    2.8644    1.9520 H       1  UNL1        0.0238
     32 H          -5.0581    3.1674    0.5913 H       1  UNL1        0.0238
     33 H          -3.3118    3.0270    0.2193 H       1  UNL1        0.0238
     34 H          -4.0778   -0.1202    2.4252 H       1  UNL1        0.0238
     35 H          -5.0329    1.3648    2.7146 H       1  UNL1        0.0238
     36 H          -5.7431    0.0323    1.7980 H       1  UNL1        0.0238
     37 H          -5.4892    1.9227   -0.9358 H       1  UNL1        0.0274
     38 H          -6.1441    0.5238   -0.0670 H       1  UNL1        0.0274
     39 H          -5.5298   -0.2931   -2.1100 H       1  UNL1        0.0274
     40 H          -4.0040    0.6841   -2.1763 H       1  UNL1        0.0274
     41 H          -4.5953   -2.9963   -0.3899 H       1  UNL1        0.0238
     42 H          -5.6068   -1.6241    0.0672 H       1  UNL1        0.0238
     43 H          -4.0271   -2.0228    0.9636 H       1  UNL1        0.0238
     44 H          -4.4110   -2.1058   -2.7349 H       1  UNL1        0.0238
     45 H          -3.0034   -2.8453   -1.8767 H       1  UNL1        0.0238
     46 H          -2.8221   -1.3032   -2.9075 H       1  UNL1        0.0238
     47 H          -1.3763   -1.6757   -1.2945 H       1  UNL1        0.0627
     48 H           0.2128    1.4423    1.1412 H       1  UNL1        0.0624
     49 H          -1.9733    2.1554    1.6021 H       1  UNL1        0.0621
     50 H           0.1113   -1.6808   -3.1854 H       1  UNL1        0.3278
     51 H           1.9733    0.6741    1.7672 H       1  UNL1        0.0624
     52 H           4.1476    1.2781    2.4859 H       1  UNL1        0.0624
     53 H           6.4566    1.1574    2.1703 H       1  UNL1        0.0632
     54 H           8.0555   -0.9516   -1.1565 H       1  UNL1        0.0626
     55 H           5.8323   -1.5157   -1.8961 H       1  UNL1        0.0624
     56 H           3.5294   -1.3704   -1.5450 H       1  UNL1        0.0630
     57 H           9.8047    1.8781    2.2562 H       1  UNL1        0.2954
@<TRIPOS>BOND
     1     1     2    1
     2     2     3    1
     3     2     4    1
     4     4     5    1
     5     5     6    1
     6     6     7    1
     7     6     8    1
     8     6     9    1
     9     9    10   ar
    10    10    11   ar
    11    11    12   ar
    12    12    13   ar
    13    13    14   ar
    14    11    15    1
    15    15    16    2
    16    16    17    1
    17    15    18    1
    18    18    19   ar
    19    19    20   ar
    20    20    21   ar
    21    21    22   ar
    22    22    23   ar
    23    23    24   ar
    24    24    25   ar
    25    25    26   ar
    26    26    27   ar
    27    23    28    1
    28    28    29    1
    29    28    30    2
    30    14     2    1
    31    27    18   ar
    32    14     9   ar
    33    26    21   ar
    34     1    31    1
    35     1    32    1
    36     1    33    1
    37     3    34    1
    38     3    35    1
    39     3    36    1
    40     4    37    1
    41     4    38    1
    42     5    39    1
    43     5    40    1
    44     7    41    1
    45     7    42    1
    46     7    43    1
    47     8    44    1
    48     8    45    1
    49     8    46    1
    50    10    47    1
    51    12    48    1
    52    13    49    1
    53    17    50    1
    54    19    51    1
    55    20    52    1
    56    22    53    1
    57    24    54    1
    58    25    55    1
    59    27    56    1
    60    29    57    1
