@<TRIPOS>MOLECULE
*****
 72 77 0 0 0
SMALL
GASTEIGER

@<TRIPOS>ATOM
      1 C          11.0570    0.1840   -0.4985 C.3     1  UNL1       -0.0127
      2 N           9.8270    0.4834    0.2082 N.3     1  UNL1       -0.3029
      3 C           8.9195    1.0884   -0.7288 C.3     1  UNL1        0.0114
      4 C           7.6337    0.2842   -0.8988 C.3     1  UNL1        0.0117
      5 N           7.0836    0.1283    0.4020 N.3     1  UNL1       -0.2996
      6 C           5.6982   -0.1983    0.4938 C.3     1  UNL1        0.0030
      7 C           4.8733    0.9551    0.0224 C.3     1  UNL1       -0.0149
      8 C           3.4017    0.7015    0.1152 C.ar    1  UNL1       -0.0460
      9 C           2.7075    1.0281    1.2751 C.ar    1  UNL1       -0.0568
     10 C           1.3545    0.8116    1.3406 C.ar    1  UNL1       -0.0402
     11 C           0.6224    0.2651    0.2728 C.ar    1  UNL1        0.0336
     12 N          -0.7475    0.0848    0.3992 N.pl3   1  UNL1       -0.2836
     13 C          -1.6880   -0.2385   -0.6017 C.ar    1  UNL1        0.2214
     14 N          -1.3830   -0.4876   -1.8840 N.ar    1  UNL1       -0.2218
     15 C          -2.2564   -0.7591   -2.8488 C.ar    1  UNL1        0.0456
     16 C          -3.6019   -0.7989   -2.5537 C.ar    1  UNL1        0.0834
     17 C          -4.5631   -1.0687   -3.5482 C.ar    1  UNL1        0.2045
     18 O          -4.2067   -1.2917   -4.7280 O.2     1  UNL1       -0.2863
     19 C          -5.8803   -1.0810   -3.1957 C.ar    1  UNL1        0.1002
     20 C          -6.9631   -1.3121   -4.1636 C.2     1  UNL1        0.2467
     21 N          -6.7023   -1.5330   -5.5299 N.am    1  UNL1       -0.3252
     22 O          -8.1718   -1.3185   -3.7905 O.2     1  UNL1       -0.2702
     23 C          -6.2142   -0.8310   -1.8873 C.ar    1  UNL1        0.0276
     24 N          -5.2594   -0.5686   -0.9268 N.ar    1  UNL1       -0.2998
     25 C          -5.6870   -0.3026    0.3877 C.ar    1  UNL1        0.0483
     26 C          -5.0303   -0.8066    1.4596 C.ar    1  UNL1       -0.0375
     27 C          -5.4954   -0.5084    2.7443 C.ar    1  UNL1       -0.0564
     28 C          -6.5970    0.2802    2.9553 C.ar    1  UNL1       -0.0440
     29 C          -7.2752    0.7983    1.8755 C.ar    1  UNL1       -0.0422
     30 C          -6.8105    0.4986    0.6243 C.ar    1  UNL1       -0.0344
     31 C          -8.4141    1.5920    2.4213 C.3     1  UNL1       -0.0271
     32 C          -8.5719    1.1598    3.8546 C.3     1  UNL1       -0.0450
     33 C          -7.2008    0.6899    4.2399 C.3     1  UNL1       -0.0271
     34 C          -3.9620   -0.5497   -1.2466 C.ar    1  UNL1        0.1539
     35 N          -3.0163   -0.2836   -0.3320 N.ar    1  UNL1       -0.1957
     36 C           1.3496   -0.0402   -0.8419 C.ar    1  UNL1       -0.0402
     37 C           2.7321    0.1651   -0.9517 C.ar    1  UNL1       -0.0568
     38 C           7.9231   -0.6610    1.2732 C.3     1  UNL1        0.0117
     39 C           9.3350   -0.7518    0.7701 C.3     1  UNL1        0.0114
     40 H          10.7357   -0.3143   -1.4614 H       1  UNL1        0.0391
     41 H          11.7089   -0.5219    0.0567 H       1  UNL1        0.0391
     42 H          11.5997    1.0922   -0.8134 H       1  UNL1        0.0391
     43 H           8.5883    2.0616   -0.2619 H       1  UNL1        0.0439
     44 H           9.3599    1.3380   -1.7058 H       1  UNL1        0.0439
     45 H           7.7999   -0.6565   -1.4675 H       1  UNL1        0.0439
     46 H           6.9726    0.9051   -1.5241 H       1  UNL1        0.0439
     47 H           5.5236   -1.1250   -0.1161 H       1  UNL1        0.0430
     48 H           5.4704   -0.3846    1.5686 H       1  UNL1        0.0430
     49 H           5.1766    1.8743    0.5551 H       1  UNL1        0.0326
     50 H           5.0681    1.1180   -1.0814 H       1  UNL1        0.0326
     51 H           3.2655    1.4448    2.0913 H       1  UNL1        0.0621
     52 H           0.8009    1.0634    2.2424 H       1  UNL1        0.0636
     53 H          -1.1646    0.2037    1.3871 H       1  UNL1        0.1550
     54 H          -1.9698   -0.9564   -3.8825 H       1  UNL1        0.0839
     55 H          -6.0639   -0.9030   -6.0403 H       1  UNL1        0.1453
     56 H          -7.1485   -2.3194   -6.0222 H       1  UNL1        0.1453
     57 H          -7.2598   -0.8361   -1.5984 H       1  UNL1        0.0822
     58 H          -4.1753   -1.4258    1.3429 H       1  UNL1        0.0638
     59 H          -4.9358   -0.9332    3.5836 H       1  UNL1        0.0621
     60 H          -7.3438    0.9075   -0.2185 H       1  UNL1        0.0641
     61 H          -9.3624    1.3406    1.8894 H       1  UNL1        0.0313
     62 H          -8.1996    2.6868    2.4237 H       1  UNL1        0.0313
     63 H          -9.3217    0.3496    3.9951 H       1  UNL1        0.0272
     64 H          -8.9093    2.0076    4.4929 H       1  UNL1        0.0272
     65 H          -6.6482    1.5098    4.7454 H       1  UNL1        0.0313
     66 H          -7.2364   -0.1645    4.9594 H       1  UNL1        0.0313
     67 H           0.8400   -0.4716   -1.6907 H       1  UNL1        0.0636
     68 H           3.2068   -0.1165   -1.8922 H       1  UNL1        0.0621
     69 H           7.4888   -1.7006    1.2560 H       1  UNL1        0.0439
     70 H           7.8387   -0.3042    2.3168 H       1  UNL1        0.0439
     71 H           9.9875   -0.9845    1.6508 H       1  UNL1        0.0439
     72 H           9.4873   -1.5928    0.0591 H       1  UNL1        0.0439
@<TRIPOS>BOND
     1     1     2    1
     2     2     3    1
     3     3     4    1
     4     4     5    1
     5     5     6    1
     6     6     7    1
     7     7     8    1
     8     8     9   ar
     9     9    10   ar
    10    10    11   ar
    11    11    12    1
    12    12    13    1
    13    13    14   ar
    14    14    15   ar
    15    15    16   ar
    16    16    17   ar
    17    17    18    2
    18    17    19   ar
    19    19    20    1
    20    20    21   am
    21    20    22    2
    22    19    23   ar
    23    23    24   ar
    24    24    25    1
    25    25    26   ar
    26    26    27   ar
    27    27    28   ar
    28    28    29   ar
    29    29    30   ar
    30    29    31    1
    31    31    32    1
    32    32    33    1
    33    24    34   ar
    34    34    35   ar
    35    11    36   ar
    36    36    37   ar
    37     5    38    1
    38    38    39    1
    39    39     2    1
    40    37     8   ar
    41    35    13   ar
    42    34    16   ar
    43    30    25   ar
    44    33    28    1
    45     1    40    1
    46     1    41    1
    47     1    42    1
    48     3    43    1
    49     3    44    1
    50     4    45    1
    51     4    46    1
    52     6    47    1
    53     6    48    1
    54     7    49    1
    55     7    50    1
    56     9    51    1
    57    10    52    1
    58    12    53    1
    59    15    54    1
    60    21    55    1
    61    21    56    1
    62    23    57    1
    63    26    58    1
    64    27    59    1
    65    30    60    1
    66    31    61    1
    67    31    62    1
    68    32    63    1
    69    32    64    1
    70    33    65    1
    71    33    66    1
    72    36    67    1
    73    37    68    1
    74    38    69    1
    75    38    70    1
    76    39    71    1
    77    39    72    1
