@<TRIPOS>MOLECULE
*****
 46 49 0 0 0
SMALL
GASTEIGER

@<TRIPOS>ATOM
      1 O           7.9857   -0.9332    0.5536 O.2     1  UNL1       -0.2687
      2 C           7.3999    0.1410    0.3971 C.2     1  UNL1        0.2593
      3 C           5.9177    0.1732    0.3660 C.2     1  UNL1        0.0027
      4 C           5.2288   -0.9429    0.5017 C.2     1  UNL1       -0.0496
      5 C           3.7785   -1.0148    0.4841 C.ar    1  UNL1       -0.0246
      6 C           3.1784   -2.2689    0.6286 C.ar    1  UNL1       -0.0543
      7 C           1.8180   -2.3584    0.5922 C.ar    1  UNL1       -0.0565
      8 C           1.0512   -1.2186    0.4140 C.ar    1  UNL1       -0.0289
      9 C           1.6331    0.0226    0.2715 C.ar    1  UNL1       -0.0284
     10 C           3.0186    0.1204    0.3079 C.ar    1  UNL1       -0.0499
     11 C           0.5530    1.0329    0.0926 C.3     1  UNL1        0.0247
     12 N          -0.4522    0.1958   -0.5826 N.3     1  UNL1       -0.2937
     13 C          -1.7742    0.8063   -0.4700 C.3     1  UNL1        0.0036
     14 C          -2.7007    0.0099   -1.3990 C.3     1  UNL1       -0.0113
     15 C          -4.0984    0.5402   -1.3124 C.ar    1  UNL1       -0.0010
     16 C          -4.7649    1.4258   -2.1116 C.ar    1  UNL1        0.0536
     17 N          -5.9968    1.6015   -1.6000 N.ar    1  UNL1       -0.1745
     18 N          -6.1572    0.8596   -0.4911 N.ar    1  UNL1       -0.2396
     19 C          -7.2171    0.7260    0.3220 C.ar    1  UNL1        0.0297
     20 C          -7.1223   -0.1335    1.4147 C.ar    1  UNL1       -0.0435
     21 C          -5.9508   -0.8416    1.6606 C.ar    1  UNL1       -0.0583
     22 C          -4.9073   -0.6495    0.7799 C.ar    1  UNL1       -0.0359
     23 C          -4.9948    0.2075   -0.3135 C.ar    1  UNL1        0.0700
     24 C          -0.4065   -0.9766    0.3245 C.3     1  UNL1        0.0247
     25 N           8.1431    1.3368    0.2465 N.am    1  UNL1       -0.1940
     26 O           9.4923    1.3562    0.2641 O.3     1  UNL1       -0.2949
     27 H           5.3995    1.1000    0.2384 H       1  UNL1        0.0670
     28 H           5.7821   -1.8745    0.6389 H       1  UNL1        0.0625
     29 H           3.8117   -3.1621    0.7688 H       1  UNL1        0.0624
     30 H           1.3791   -3.3394    0.7069 H       1  UNL1        0.0621
     31 H           3.4313    1.1090    0.1941 H       1  UNL1        0.0627
     32 H           0.8532    1.8028   -0.6499 H       1  UNL1        0.0476
     33 H           0.2396    1.4034    1.0574 H       1  UNL1        0.0476
     34 H          -1.7900    1.8565   -0.7579 H       1  UNL1        0.0430
     35 H          -2.1114    0.6837    0.5563 H       1  UNL1        0.0430
     36 H          -2.7385   -1.0324   -1.0284 H       1  UNL1        0.0327
     37 H          -2.3483    0.0733   -2.4479 H       1  UNL1        0.0327
     38 H          -4.3721    1.8955   -2.9863 H       1  UNL1        0.0851
     39 H          -8.1579    1.2429    0.1976 H       1  UNL1        0.0830
     40 H          -7.9477   -0.2747    2.0976 H       1  UNL1        0.0633
     41 H          -5.8592   -1.5139    2.4975 H       1  UNL1        0.0619
     42 H          -3.9477   -1.1750    0.9057 H       1  UNL1        0.0639
     43 H          -0.7818   -0.6358    1.3134 H       1  UNL1        0.0476
     44 H          -0.9333   -1.8376   -0.0900 H       1  UNL1        0.0476
     45 H           7.6422    2.2394    0.1205 H       1  UNL1        0.1825
     46 H           9.7940    2.2211   -0.1054 H       1  UNL1        0.2414
@<TRIPOS>BOND
     1     1     2    2
     2     2     3    1
     3     3     4    2
     4     4     5    1
     5     5     6   ar
     6     6     7   ar
     7     7     8   ar
     8     8     9   ar
     9     9    10   ar
    10     9    11    1
    11    11    12    1
    12    12    13    1
    13    13    14    1
    14    14    15    1
    15    15    16   ar
    16    16    17   ar
    17    17    18   ar
    18    18    19   ar
    19    19    20   ar
    20    20    21   ar
    21    21    22   ar
    22    22    23   ar
    23    12    24    1
    24     2    25   am
    25    25    26    1
    26    10     5   ar
    27    23    15   ar
    28    24     8    1
    29    23    18   ar
    30     3    27    1
    31     4    28    1
    32     6    29    1
    33     7    30    1
    34    10    31    1
    35    11    32    1
    36    11    33    1
    37    13    34    1
    38    13    35    1
    39    14    36    1
    40    14    37    1
    41    16    38    1
    42    19    39    1
    43    20    40    1
    44    21    41    1
    45    22    42    1
    46    24    43    1
    47    24    44    1
    48    25    45    1
    49    26    46    1
