
     RDKit          3D

 46 49  0  0  0  0  0  0  0  0999 V2000
    7.9857   -0.9332    0.5536 O   0  0  0  0  0  0  0  0  0  0  0  0
    7.3999    0.1410    0.3971 C   0  0  0  0  0  0  0  0  0  0  0  0
    5.9177    0.1732    0.3660 C   0  0  0  0  0  0  0  0  0  0  0  0
    5.2288   -0.9429    0.5017 C   0  0  0  0  0  0  0  0  0  0  0  0
    3.7785   -1.0148    0.4841 C   0  0  0  0  0  0  0  0  0  0  0  0
    3.1784   -2.2689    0.6286 C   0  0  0  0  0  0  0  0  0  0  0  0
    1.8180   -2.3584    0.5922 C   0  0  0  0  0  0  0  0  0  0  0  0
    1.0512   -1.2186    0.4140 C   0  0  0  0  0  0  0  0  0  0  0  0
    1.6331    0.0226    0.2715 C   0  0  0  0  0  0  0  0  0  0  0  0
    3.0186    0.1204    0.3079 C   0  0  0  0  0  0  0  0  0  0  0  0
    0.5530    1.0329    0.0926 C   0  0  0  0  0  0  0  0  0  0  0  0
   -0.4522    0.1958   -0.5826 N   0  0  0  0  0  0  0  0  0  0  0  0
   -1.7742    0.8063   -0.4700 C   0  0  0  0  0  0  0  0  0  0  0  0
   -2.7007    0.0099   -1.3990 C   0  0  0  0  0  0  0  0  0  0  0  0
   -4.0984    0.5402   -1.3124 C   0  0  0  0  0  0  0  0  0  0  0  0
   -4.7649    1.4258   -2.1116 C   0  0  0  0  0  0  0  0  0  0  0  0
   -5.9968    1.6015   -1.6000 N   0  0  0  0  0  0  0  0  0  0  0  0
   -6.1572    0.8596   -0.4911 N   0  0  0  0  0  0  0  0  0  0  0  0
   -7.2171    0.7260    0.3220 C   0  0  0  0  0  0  0  0  0  0  0  0
   -7.1223   -0.1335    1.4147 C   0  0  0  0  0  0  0  0  0  0  0  0
   -5.9508   -0.8416    1.6606 C   0  0  0  0  0  0  0  0  0  0  0  0
   -4.9073   -0.6495    0.7799 C   0  0  0  0  0  0  0  0  0  0  0  0
   -4.9948    0.2075   -0.3135 C   0  0  0  0  0  0  0  0  0  0  0  0
   -0.4065   -0.9766    0.3245 C   0  0  0  0  0  0  0  0  0  0  0  0
    8.1431    1.3368    0.2465 N   0  0  0  0  0  0  0  0  0  0  0  0
    9.4923    1.3562    0.2641 O   0  0  0  0  0  0  0  0  0  0  0  0
    5.3995    1.1000    0.2384 H   0  0  0  0  0  0  0  0  0  0  0  0
    5.7821   -1.8745    0.6389 H   0  0  0  0  0  0  0  0  0  0  0  0
    3.8117   -3.1621    0.7688 H   0  0  0  0  0  0  0  0  0  0  0  0
    1.3791   -3.3394    0.7069 H   0  0  0  0  0  0  0  0  0  0  0  0
    3.4313    1.1090    0.1941 H   0  0  0  0  0  0  0  0  0  0  0  0
    0.8532    1.8028   -0.6499 H   0  0  0  0  0  0  0  0  0  0  0  0
    0.2396    1.4034    1.0574 H   0  0  0  0  0  0  0  0  0  0  0  0
   -1.7900    1.8565   -0.7579 H   0  0  0  0  0  0  0  0  0  0  0  0
   -2.1114    0.6837    0.5563 H   0  0  0  0  0  0  0  0  0  0  0  0
   -2.7385   -1.0324   -1.0284 H   0  0  0  0  0  0  0  0  0  0  0  0
   -2.3483    0.0733   -2.4479 H   0  0  0  0  0  0  0  0  0  0  0  0
   -4.3721    1.8955   -2.9863 H   0  0  0  0  0  0  0  0  0  0  0  0
   -8.1579    1.2429    0.1976 H   0  0  0  0  0  0  0  0  0  0  0  0
   -7.9477   -0.2747    2.0976 H   0  0  0  0  0  0  0  0  0  0  0  0
   -5.8592   -1.5139    2.4975 H   0  0  0  0  0  0  0  0  0  0  0  0
   -3.9477   -1.1750    0.9057 H   0  0  0  0  0  0  0  0  0  0  0  0
   -0.7818   -0.6358    1.3134 H   0  0  0  0  0  0  0  0  0  0  0  0
   -0.9333   -1.8376   -0.0900 H   0  0  0  0  0  0  0  0  0  0  0  0
    7.6422    2.2394    0.1205 H   0  0  0  0  0  0  0  0  0  0  0  0
    9.7940    2.2211   -0.1054 H   0  0  0  0  0  0  0  0  0  0  0  0
  1  2  2  0
  2  3  1  0
  3  4  2  0
  4  5  1  0
  5  6  2  0
  6  7  1  0
  7  8  2  0
  8  9  1  0
  9 10  2  0
  9 11  1  0
 11 12  1  0
 12 13  1  0
 13 14  1  0
 14 15  1  0
 15 16  1  0
 16 17  2  0
 17 18  1  0
 18 19  1  0
 19 20  2  0
 20 21  1  0
 21 22  2  0
 22 23  1  0
 12 24  1  0
  2 25  1  0
 25 26  1  0
 10  5  1  0
 23 15  2  0
 24  8  1  0
 23 18  1  0
  3 27  1  0
  4 28  1  0
  6 29  1  0
  7 30  1  0
 10 31  1  0
 11 32  1  0
 11 33  1  0
 13 34  1  0
 13 35  1  0
 14 36  1  0
 14 37  1  0
 16 38  1  0
 19 39  1  0
 20 40  1  0
 21 41  1  0
 22 42  1  0
 24 43  1  0
 24 44  1  0
 25 45  1  0
 26 46  1  0
M  END
$$$$
