@<TRIPOS>MOLECULE
*****
 47 49 0 0 0
SMALL
GASTEIGER

@<TRIPOS>ATOM
      1 C          -5.3062    1.7253    0.1278 C.3     1  UNL1       -0.0607
      2 C          -3.9005    1.2109    0.3853 C.3     1  UNL1       -0.0209
      3 C          -3.0376    2.4339    0.6216 C.3     1  UNL1       -0.0607
      4 C          -3.4017    0.5274   -0.8301 C.3     1  UNL1        0.1132
      5 C          -4.3286   -0.6110   -1.1309 C.2     1  UNL1        0.2642
      6 O          -5.5706   -0.4092   -1.3140 O.2     1  UNL1       -0.2713
      7 N          -3.7807   -1.9208   -1.2054 N.am    1  UNL1       -0.1144
      8 O          -4.5485   -2.9813   -0.8286 O.3     1  UNL1       -0.2854
      9 C          -2.4475   -2.0407   -1.6768 C.2     1  UNL1        0.2608
     10 O          -1.9621   -3.1809   -1.8528 O.2     1  UNL1       -0.2716
     11 C          -1.7129   -0.7757   -1.9314 C.3     1  UNL1        0.1002
     12 N          -2.0475    0.1259   -0.8345 N.3     1  UNL1       -0.1555
     13 S          -1.3340   -0.4321    0.5633 S.O2    1  UNL1        0.0620
     14 O          -1.6181    0.2666    1.8185 O.2     1  UNL1       -0.1528
     15 O          -1.7142   -1.8966    0.7574 O.2     1  UNL1       -0.1528
     16 C           0.4193   -0.4373    0.3518 C.ar    1  UNL1        0.1055
     17 C           1.1074   -1.5055   -0.1373 C.ar    1  UNL1       -0.0348
     18 C           2.4956   -1.4269   -0.2721 C.ar    1  UNL1       -0.0522
     19 C           3.1824   -0.2876    0.0809 C.ar    1  UNL1       -0.0178
     20 C           4.6228   -0.1327   -0.0304 C.ar    1  UNL1       -0.0179
     21 C           5.2228    1.0771   -0.2835 C.ar    1  UNL1       -0.0540
     22 C           6.5975    1.2133   -0.3868 C.ar    1  UNL1       -0.0612
     23 C           7.3994    0.1036   -0.2321 C.ar    1  UNL1       -0.0617
     24 C           6.8186   -1.1094    0.0205 C.ar    1  UNL1       -0.0612
     25 C           5.4312   -1.2360    0.1228 C.ar    1  UNL1       -0.0540
     26 C           2.4701    0.7855    0.5748 C.ar    1  UNL1       -0.0522
     27 C           1.1014    0.7044    0.7063 C.ar    1  UNL1       -0.0348
     28 H          -6.0844    1.0098    0.4654 H       1  UNL1        0.0233
     29 H          -5.4472    2.1026   -0.8890 H       1  UNL1        0.0233
     30 H          -5.4327    2.6095    0.8203 H       1  UNL1        0.0233
     31 H          -3.9910    0.5700    1.2780 H       1  UNL1        0.0316
     32 H          -2.9265    2.6810    1.6971 H       1  UNL1        0.0233
     33 H          -2.0532    2.3616    0.0933 H       1  UNL1        0.0233
     34 H          -3.5189    3.3525    0.1702 H       1  UNL1        0.0233
     35 H          -3.5402    1.2386   -1.6890 H       1  UNL1        0.0579
     36 H          -4.2489   -3.2054    0.0992 H       1  UNL1        0.2422
     37 H          -0.6137   -0.9346   -1.9285 H       1  UNL1        0.0540
     38 H          -1.9973   -0.3025   -2.8921 H       1  UNL1        0.0540
     39 H           0.5590   -2.3930   -0.4106 H       1  UNL1        0.0637
     40 H           3.0598   -2.2610   -0.6573 H       1  UNL1        0.0624
     41 H           4.5900    1.9343   -0.4023 H       1  UNL1        0.0624
     42 H           7.0520    2.1715   -0.5861 H       1  UNL1        0.0618
     43 H           8.4802    0.1839   -0.3084 H       1  UNL1        0.0618
     44 H           7.4317   -1.9777    0.1424 H       1  UNL1        0.0618
     45 H           5.0329   -2.2109    0.3219 H       1  UNL1        0.0624
     46 H           2.9438    1.7182    0.8744 H       1  UNL1        0.0624
     47 H           0.5466    1.5616    1.0992 H       1  UNL1        0.0637
@<TRIPOS>BOND
     1     1     2    1
     2     2     3    1
     3     2     4    1
     4     4     5    1
     5     5     6    2
     6     5     7   am
     7     7     8    1
     8     7     9   am
     9     9    10    2
    10     9    11    1
    11    11    12    1
    12    12    13    1
    13    13    14    2
    14    13    15    2
    15    13    16    1
    16    16    17   ar
    17    17    18   ar
    18    18    19   ar
    19    19    20    1
    20    20    21   ar
    21    21    22   ar
    22    22    23   ar
    23    23    24   ar
    24    24    25   ar
    25    19    26   ar
    26    26    27   ar
    27    12     4    1
    28    27    16   ar
    29    25    20   ar
    30     1    28    1
    31     1    29    1
    32     1    30    1
    33     2    31    1
    34     3    32    1
    35     3    33    1
    36     3    34    1
    37     4    35    1
    38     8    36    1
    39    11    37    1
    40    11    38    1
    41    17    39    1
    42    18    40    1
    43    21    41    1
    44    22    42    1
    45    23    43    1
    46    24    44    1
    47    25    45    1
    48    26    46    1
    49    27    47    1
