
     RDKit          3D

 47 49  0  0  0  0  0  0  0  0999 V2000
   -5.3062    1.7253    0.1278 C   0  0  0  0  0  0  0  0  0  0  0  0
   -3.9005    1.2109    0.3853 C   0  0  0  0  0  0  0  0  0  0  0  0
   -3.0376    2.4339    0.6216 C   0  0  0  0  0  0  0  0  0  0  0  0
   -3.4017    0.5274   -0.8301 C   0  0  2  0  0  0  0  0  0  0  0  0
   -4.3286   -0.6110   -1.1309 C   0  0  0  0  0  0  0  0  0  0  0  0
   -5.5706   -0.4092   -1.3140 O   0  0  0  0  0  0  0  0  0  0  0  0
   -3.7807   -1.9208   -1.2054 N   0  0  0  0  0  0  0  0  0  0  0  0
   -4.5485   -2.9813   -0.8286 O   0  0  0  0  0  0  0  0  0  0  0  0
   -2.4475   -2.0407   -1.6768 C   0  0  0  0  0  0  0  0  0  0  0  0
   -1.9621   -3.1809   -1.8528 O   0  0  0  0  0  0  0  0  0  0  0  0
   -1.7129   -0.7757   -1.9314 C   0  0  0  0  0  0  0  0  0  0  0  0
   -2.0475    0.1259   -0.8345 N   0  0  0  0  0  0  0  0  0  0  0  0
   -1.3340   -0.4321    0.5633 S   0  0  0  0  0  6  0  0  0  0  0  0
   -1.6181    0.2666    1.8185 O   0  0  0  0  0  0  0  0  0  0  0  0
   -1.7142   -1.8966    0.7574 O   0  0  0  0  0  0  0  0  0  0  0  0
    0.4193   -0.4373    0.3518 C   0  0  0  0  0  0  0  0  0  0  0  0
    1.1074   -1.5055   -0.1373 C   0  0  0  0  0  0  0  0  0  0  0  0
    2.4956   -1.4269   -0.2721 C   0  0  0  0  0  0  0  0  0  0  0  0
    3.1824   -0.2876    0.0809 C   0  0  0  0  0  0  0  0  0  0  0  0
    4.6228   -0.1327   -0.0304 C   0  0  0  0  0  0  0  0  0  0  0  0
    5.2228    1.0771   -0.2835 C   0  0  0  0  0  0  0  0  0  0  0  0
    6.5975    1.2133   -0.3868 C   0  0  0  0  0  0  0  0  0  0  0  0
    7.3994    0.1036   -0.2321 C   0  0  0  0  0  0  0  0  0  0  0  0
    6.8186   -1.1094    0.0205 C   0  0  0  0  0  0  0  0  0  0  0  0
    5.4312   -1.2360    0.1228 C   0  0  0  0  0  0  0  0  0  0  0  0
    2.4701    0.7855    0.5748 C   0  0  0  0  0  0  0  0  0  0  0  0
    1.1014    0.7044    0.7063 C   0  0  0  0  0  0  0  0  0  0  0  0
   -6.0844    1.0098    0.4654 H   0  0  0  0  0  0  0  0  0  0  0  0
   -5.4472    2.1026   -0.8890 H   0  0  0  0  0  0  0  0  0  0  0  0
   -5.4327    2.6095    0.8203 H   0  0  0  0  0  0  0  0  0  0  0  0
   -3.9910    0.5700    1.2780 H   0  0  0  0  0  0  0  0  0  0  0  0
   -2.9265    2.6810    1.6971 H   0  0  0  0  0  0  0  0  0  0  0  0
   -2.0532    2.3616    0.0933 H   0  0  0  0  0  0  0  0  0  0  0  0
   -3.5189    3.3525    0.1702 H   0  0  0  0  0  0  0  0  0  0  0  0
   -3.5402    1.2386   -1.6890 H   0  0  0  0  0  0  0  0  0  0  0  0
   -4.2489   -3.2054    0.0992 H   0  0  0  0  0  0  0  0  0  0  0  0
   -0.6137   -0.9346   -1.9285 H   0  0  0  0  0  0  0  0  0  0  0  0
   -1.9973   -0.3025   -2.8921 H   0  0  0  0  0  0  0  0  0  0  0  0
    0.5590   -2.3930   -0.4106 H   0  0  0  0  0  0  0  0  0  0  0  0
    3.0598   -2.2610   -0.6573 H   0  0  0  0  0  0  0  0  0  0  0  0
    4.5900    1.9343   -0.4023 H   0  0  0  0  0  0  0  0  0  0  0  0
    7.0520    2.1715   -0.5861 H   0  0  0  0  0  0  0  0  0  0  0  0
    8.4802    0.1839   -0.3084 H   0  0  0  0  0  0  0  0  0  0  0  0
    7.4317   -1.9777    0.1424 H   0  0  0  0  0  0  0  0  0  0  0  0
    5.0329   -2.2109    0.3219 H   0  0  0  0  0  0  0  0  0  0  0  0
    2.9438    1.7182    0.8744 H   0  0  0  0  0  0  0  0  0  0  0  0
    0.5466    1.5616    1.0992 H   0  0  0  0  0  0  0  0  0  0  0  0
  1  2  1  0
  2  3  1  0
  2  4  1  0
  4  5  1  0
  5  6  2  0
  5  7  1  0
  7  8  1  0
  7  9  1  0
  9 10  2  0
  9 11  1  0
 11 12  1  0
 12 13  1  0
 13 14  2  0
 13 15  2  0
 13 16  1  0
 16 17  2  0
 17 18  1  0
 18 19  2  0
 19 20  1  0
 20 21  2  0
 21 22  1  0
 22 23  2  0
 23 24  1  0
 24 25  2  0
 19 26  1  0
 26 27  2  0
 12  4  1  0
 27 16  1  0
 25 20  1  0
  1 28  1  0
  1 29  1  0
  1 30  1  0
  2 31  1  0
  3 32  1  0
  3 33  1  0
  3 34  1  0
  4 35  1  6
  8 36  1  0
 11 37  1  0
 11 38  1  0
 17 39  1  0
 18 40  1  0
 21 41  1  0
 22 42  1  0
 23 43  1  0
 24 44  1  0
 25 45  1  0
 26 46  1  0
 27 47  1  0
M  END
$$$$
