@<TRIPOS>MOLECULE
*****
 53 57 0 0 0
SMALL
GASTEIGER

@<TRIPOS>ATOM
      1 C          -3.6475   -0.2757   -2.4909 C.3     1  UNL1       -0.0199
      2 C          -4.6044   -1.0417   -1.6705 C.ar    1  UNL1        0.0706
      3 N          -5.4815   -1.9550   -2.1504 N.ar    1  UNL1       -0.1760
      4 N          -6.1938   -2.4596   -1.1585 N.ar    1  UNL1       -0.2735
      5 C          -7.2281   -3.4633   -1.2974 C.3     1  UNL1        0.0302
      6 C          -5.7758   -1.8691   -0.0254 C.ar    1  UNL1        0.0361
      7 C          -4.7674   -0.9631   -0.3123 C.ar    1  UNL1        0.0576
      8 C          -4.0682   -0.1315    0.6741 C.ar    1  UNL1        0.1443
      9 N          -4.3102   -0.1330    1.9977 N.ar    1  UNL1       -0.2082
     10 C          -3.5086    0.7383    2.6509 C.ar    1  UNL1        0.1802
     11 N          -3.3827    1.0814    3.9537 N.ar    1  UNL1       -0.2329
     12 C          -2.4764    2.0014    4.3135 C.ar    1  UNL1        0.0502
     13 C          -1.6535    2.6230    3.3977 C.ar    1  UNL1        0.0823
     14 CL         -0.4703    3.8273    3.8869 Cl      1  UNL1       -0.0800
     15 C          -1.7987    2.2570    2.0687 C.ar    1  UNL1        0.0787
     16 N          -0.9955    2.8439    1.0602 N.pl3   1  UNL1       -0.3116
     17 C           0.2495    2.2920    0.6725 C.ar    1  UNL1        0.0314
     18 C           0.6948    1.1405    1.3013 C.ar    1  UNL1       -0.0398
     19 C           1.9188    0.6289    0.8950 C.ar    1  UNL1       -0.0479
     20 C           2.6719    1.2250   -0.0877 C.ar    1  UNL1        0.0371
     21 C           3.9568    0.6801   -0.5079 C.2     1  UNL1        0.2483
     22 O           4.6015    1.2838   -1.4244 O.2     1  UNL1       -0.2699
     23 N           4.5459   -0.4889    0.0392 N.am    1  UNL1       -0.2815
     24 C           5.8044   -0.9894   -0.3990 C.ar    1  UNL1        0.0337
     25 C           5.9217   -1.8949   -1.4286 C.ar    1  UNL1       -0.0405
     26 C           7.1561   -2.3596   -1.8283 C.ar    1  UNL1       -0.0600
     27 C           8.2944   -1.9218   -1.1993 C.ar    1  UNL1       -0.0616
     28 C           8.2081   -1.0193   -0.1697 C.ar    1  UNL1       -0.0600
     29 C           6.9770   -0.5677    0.2152 C.ar    1  UNL1       -0.0405
     30 C           2.1890    2.3679   -0.6845 C.ar    1  UNL1       -0.0479
     31 C           0.9831    2.9079   -0.3131 C.ar    1  UNL1       -0.0398
     32 C          -2.7264    1.3121    1.6816 C.ar    1  UNL1        0.1084
     33 N          -3.0906    0.7622    0.4892 N.ar    1  UNL1       -0.3350
     34 H          -3.7635   -0.5501   -3.5841 H       1  UNL1        0.0293
     35 H          -2.5927   -0.4870   -2.2158 H       1  UNL1        0.0293
     36 H          -3.8115    0.8193   -2.4483 H       1  UNL1        0.0293
     37 H          -6.8743   -4.3492   -1.8839 H       1  UNL1        0.0473
     38 H          -7.5966   -3.7902   -0.3087 H       1  UNL1        0.0473
     39 H          -8.1089   -3.0637   -1.8614 H       1  UNL1        0.0473
     40 H          -6.1624   -2.0655    0.9646 H       1  UNL1        0.0833
     41 H          -2.3597    2.2942    5.3739 H       1  UNL1        0.0846
     42 H          -1.3530    3.7035    0.6078 H       1  UNL1        0.1523
     43 H           0.1113    0.6687    2.0706 H       1  UNL1        0.0636
     44 H           2.2448   -0.2621    1.3940 H       1  UNL1        0.0626
     45 H           4.0317   -0.9943    0.7894 H       1  UNL1        0.1551
     46 H           5.0089   -2.2369   -1.9225 H       1  UNL1        0.0636
     47 H           7.2545   -3.0780   -2.6446 H       1  UNL1        0.0618
     48 H           9.2860   -2.2585   -1.4781 H       1  UNL1        0.0618
     49 H           9.0850   -0.6460    0.3563 H       1  UNL1        0.0618
     50 H           6.9156    0.1497    1.0345 H       1  UNL1        0.0636
     51 H           2.7579    2.8692   -1.4679 H       1  UNL1        0.0626
     52 H           0.5777    3.8042   -0.7634 H       1  UNL1        0.0636
     53 H          -2.6439    1.0338   -0.3908 H       1  UNL1        0.1675
@<TRIPOS>BOND
     1     1     2    1
     2     2     3   ar
     3     3     4   ar
     4     4     5    1
     5     4     6   ar
     6     6     7   ar
     7     7     8    1
     8     8     9   ar
     9     9    10   ar
    10    10    11   ar
    11    11    12   ar
    12    12    13   ar
    13    13    14    1
    14    13    15   ar
    15    15    16    1
    16    16    17    1
    17    17    18   ar
    18    18    19   ar
    19    19    20   ar
    20    20    21    1
    21    21    22    2
    22    21    23   am
    23    23    24    1
    24    24    25   ar
    25    25    26   ar
    26    26    27   ar
    27    27    28   ar
    28    28    29   ar
    29    20    30   ar
    30    30    31   ar
    31    15    32   ar
    32    32    33   ar
    33     7     2   ar
    34    33     8   ar
    35    32    10   ar
    36    31    17   ar
    37    29    24   ar
    38     1    34    1
    39     1    35    1
    40     1    36    1
    41     5    37    1
    42     5    38    1
    43     5    39    1
    44     6    40    1
    45    12    41    1
    46    16    42    1
    47    18    43    1
    48    19    44    1
    49    23    45    1
    50    25    46    1
    51    26    47    1
    52    27    48    1
    53    28    49    1
    54    29    50    1
    55    30    51    1
    56    31    52    1
    57    33    53    1
