@<TRIPOS>MOLECULE
*****
 45 48 0 0 0
SMALL
GASTEIGER

@<TRIPOS>ATOM
      1 C           4.5275    3.8869   -1.2189 C.3     1  UNL1        0.0125
      2 C           4.1674    2.4743   -0.8820 C.2     1  UNL1        0.2141
      3 O           4.8208    1.7953   -0.0595 O.2     1  UNL1       -0.2758
      4 N           3.0394    1.8447   -1.5055 N.am    1  UNL1       -0.2857
      5 C           2.7221    0.5059   -1.1675 C.ar    1  UNL1        0.0340
      6 C           3.2738   -0.5273   -1.8721 C.ar    1  UNL1       -0.0404
      7 C           3.0007   -1.8459   -1.5874 C.ar    1  UNL1       -0.0594
      8 C           2.1287   -2.1292   -0.5403 C.ar    1  UNL1       -0.0524
      9 C           1.5586   -1.1225    0.1858 C.ar    1  UNL1        0.0042
     10 C           0.6627   -1.4287    1.2747 C.ar    1  UNL1        0.0983
     11 N           1.0512   -1.9740    2.4656 N.ar    1  UNL1       -0.2351
     12 C          -0.0015   -2.1225    3.2489 C.ar    1  UNL1        0.0973
     13 N          -1.0684   -1.6736    2.5640 N.ar    1  UNL1       -0.3229
     14 C          -2.4061   -1.6697    3.0859 C.3     1  UNL1        0.0852
     15 C          -3.1855   -2.9250    2.8299 C.3     1  UNL1        0.2569
     16 F          -4.4365   -2.7540    3.3921 F       1  UNL1       -0.2073
     17 F          -2.5743   -3.9483    3.5643 F       1  UNL1       -0.2073
     18 C          -0.7056   -1.2385    1.3472 C.ar    1  UNL1        0.0968
     19 C          -1.5519   -0.6677    0.2868 C.ar    1  UNL1        0.1103
     20 C          -2.3679   -1.4734   -0.4786 C.ar    1  UNL1       -0.0290
     21 C          -3.1792   -0.9775   -1.4732 C.ar    1  UNL1       -0.0153
     22 C          -3.1687    0.3754   -1.7056 C.ar    1  UNL1        0.1555
     23 N          -3.8037    1.2023   -2.5625 N.ar    1  UNL1       -0.2333
     24 C          -3.4099    2.4709   -2.3516 C.ar    1  UNL1        0.0659
     25 C          -2.4981    2.4456   -1.3304 C.ar    1  UNL1        0.1618
     26 C          -1.8154    3.5895   -0.7771 C.1     1  UNL1        0.1208
     27 N          -1.2502    4.5082   -0.3331 N.1     1  UNL1       -0.1892
     28 N          -2.3704    1.1478   -0.9543 N.ar    1  UNL1       -0.2023
     29 N          -1.5857    0.6455    0.0121 N.ar    1  UNL1       -0.1623
     30 C           1.8508    0.1788   -0.1230 C.ar    1  UNL1       -0.0312
     31 H           3.6453    4.4931   -1.4923 H       1  UNL1        0.0323
     32 H           4.9696    4.3302   -0.3083 H       1  UNL1        0.0323
     33 H           5.2581    3.9527   -2.0296 H       1  UNL1        0.0323
     34 H           2.5071    2.4235   -2.1877 H       1  UNL1        0.1548
     35 H           3.9481   -0.2744   -2.6800 H       1  UNL1        0.0636
     36 H           3.4706   -2.5997   -2.1832 H       1  UNL1        0.0618
     37 H           1.9401   -3.1955   -0.3493 H       1  UNL1        0.0624
     38 H           0.0172   -2.5279    4.2433 H       1  UNL1        0.1029
     39 H          -2.3707   -1.4091    4.1647 H       1  UNL1        0.0548
     40 H          -2.9591   -0.8234    2.5845 H       1  UNL1        0.0548
     41 H          -3.2988   -3.1826    1.7763 H       1  UNL1        0.1037
     42 H          -2.3945   -2.5440   -0.3224 H       1  UNL1        0.0641
     43 H          -3.8222   -1.5905   -2.0808 H       1  UNL1        0.0655
     44 H          -3.7570    3.3459   -2.8959 H       1  UNL1        0.0859
     45 H           1.4214    1.0085    0.4265 H       1  UNL1        0.0643
@<TRIPOS>BOND
     1     1     2    1
     2     2     3    2
     3     2     4   am
     4     4     5    1
     5     5     6   ar
     6     6     7   ar
     7     7     8   ar
     8     8     9   ar
     9     9    10    1
    10    10    11   ar
    11    11    12   ar
    12    12    13   ar
    13    13    14    1
    14    14    15    1
    15    15    16    1
    16    15    17    1
    17    13    18   ar
    18    18    19    1
    19    19    20   ar
    20    20    21   ar
    21    21    22   ar
    22    22    23   ar
    23    23    24   ar
    24    24    25   ar
    25    25    26    1
    26    26    27    3
    27    25    28   ar
    28    28    29   ar
    29     9    30   ar
    30    30     5   ar
    31    18    10   ar
    32    29    19   ar
    33    28    22   ar
    34     1    31    1
    35     1    32    1
    36     1    33    1
    37     4    34    1
    38     6    35    1
    39     7    36    1
    40     8    37    1
    41    12    38    1
    42    14    39    1
    43    14    40    1
    44    15    41    1
    45    20    42    1
    46    21    43    1
    47    24    44    1
    48    30    45    1
