@<TRIPOS>MOLECULE
*****
 57 61 0 0 0
SMALL
GASTEIGER

@<TRIPOS>ATOM
      1 C          -1.4316   -1.6550    3.4143 C.3     1  UNL1        0.0790
      2 O          -2.3815   -1.6108    2.3702 O.3     1  UNL1       -0.4914
      3 C          -1.8883   -1.4627    1.0593 C.ar    1  UNL1        0.1635
      4 C          -0.5584   -1.3644    0.7869 C.ar    1  UNL1        0.0077
      5 C          -0.0373   -1.2183   -0.4861 C.ar    1  UNL1        0.0546
      6 N           1.3497   -1.1226   -0.6901 N.ar    1  UNL1       -0.2665
      7 C           2.0194   -1.7859   -1.6432 C.ar    1  UNL1        0.1039
      8 N           3.3133   -1.6973   -1.8344 N.ar    1  UNL1       -0.2360
      9 C           4.1416   -0.9023   -1.0673 C.ar    1  UNL1        0.0856
     10 C           5.4726   -0.7257   -1.1608 C.ar    1  UNL1       -0.0207
     11 C           6.0828    0.0976   -0.3095 C.ar    1  UNL1        0.0221
     12 C           7.4857    0.4837   -0.1672 C.ar    1  UNL1       -0.0111
     13 C           7.8691    1.3700    0.8122 C.ar    1  UNL1       -0.0522
     14 C           9.2086    1.7415    0.9514 C.ar    1  UNL1       -0.0428
     15 C          10.1851    1.2364    0.1181 C.ar    1  UNL1        0.0410
     16 CL         11.8733    1.7085    0.2981 Cl      1  UNL1       -0.0835
     17 C           9.7875    0.3483   -0.8603 C.ar    1  UNL1       -0.0428
     18 C           8.4441   -0.0272   -1.0033 C.ar    1  UNL1       -0.0522
     19 S           4.7626    0.7151    0.7382 S.2     1  UNL1       -0.0813
     20 C           3.4647   -0.2248   -0.0953 C.ar    1  UNL1        0.1030
     21 C           2.0914   -0.3088    0.1196 C.ar    1  UNL1        0.2727
     22 O           1.5597    0.3517    1.0376 O.2     1  UNL1       -0.2660
     23 C          -0.9309   -1.1719   -1.5275 C.ar    1  UNL1       -0.0340
     24 C          -2.3019   -1.2715   -1.2703 C.ar    1  UNL1       -0.0143
     25 C          -2.8137   -1.4154   -0.0035 C.ar    1  UNL1        0.1621
     26 O          -4.1354   -1.5124    0.3114 O.3     1  UNL1       -0.4870
     27 C          -5.2130   -1.4424   -0.5435 C.3     1  UNL1        0.1024
     28 C          -5.3356   -0.0942   -1.1700 C.3     1  UNL1        0.0331
     29 N          -5.5123    0.9538   -0.1684 N.3     1  UNL1       -0.2991
     30 C          -5.6202    2.2103   -0.8673 C.3     1  UNL1       -0.0010
     31 C          -6.5480    3.0469    0.0096 C.3     1  UNL1       -0.0390
     32 C          -7.5536    2.0025    0.4474 C.3     1  UNL1       -0.0390
     33 C          -6.6964    0.7796    0.6134 C.3     1  UNL1       -0.0010
     34 H          -1.9356   -1.7487    4.3923 H       1  UNL1        0.0660
     35 H          -0.8076   -0.7390    3.3457 H       1  UNL1        0.0660
     36 H          -0.7194   -2.5080    3.2242 H       1  UNL1        0.0660
     37 H           0.1249   -1.4069    1.6538 H       1  UNL1        0.0676
     38 H           1.4045   -2.4469   -2.2980 H       1  UNL1        0.1033
     39 H           6.0872   -1.2572   -1.9425 H       1  UNL1        0.0650
     40 H           7.1012    1.7673    1.4676 H       1  UNL1        0.0624
     41 H           9.4918    2.4461    1.7350 H       1  UNL1        0.0632
     42 H          10.5225   -0.0688   -1.5320 H       1  UNL1        0.0632
     43 H           8.1392   -0.7261   -1.7751 H       1  UNL1        0.0624
     44 H          -0.5580   -1.0588   -2.5301 H       1  UNL1        0.0639
     45 H          -2.9373   -1.2534   -2.1321 H       1  UNL1        0.0656
     46 H          -6.1726   -1.7796   -0.0786 H       1  UNL1        0.0709
     47 H          -5.0375   -2.2270   -1.3505 H       1  UNL1        0.0709
     48 H          -4.5693    0.2360   -1.8450 H       1  UNL1        0.0460
     49 H          -6.2942   -0.1022   -1.7744 H       1  UNL1        0.0460
     50 H          -4.6452    2.7423   -0.9468 H       1  UNL1        0.0427
     51 H          -6.1020    2.0999   -1.8521 H       1  UNL1        0.0427
     52 H          -6.0294    3.4104    0.9216 H       1  UNL1        0.0278
     53 H          -7.0207    3.8640   -0.5694 H       1  UNL1        0.0278
     54 H          -8.0432    2.3023    1.4042 H       1  UNL1        0.0278
     55 H          -8.3687    1.8622   -0.2953 H       1  UNL1        0.0278
     56 H          -6.4967    0.6480    1.6986 H       1  UNL1        0.0427
     57 H          -7.2867   -0.0880    0.2064 H       1  UNL1        0.0427
@<TRIPOS>BOND
     1     1     2    1
     2     2     3    1
     3     3     4   ar
     4     4     5   ar
     5     5     6    1
     6     6     7   ar
     7     7     8   ar
     8     8     9   ar
     9     9    10   ar
    10    10    11   ar
    11    11    12    1
    12    12    13   ar
    13    13    14   ar
    14    14    15   ar
    15    15    16    1
    16    15    17   ar
    17    17    18   ar
    18    11    19   ar
    19    19    20   ar
    20    20    21   ar
    21    21    22    2
    22     5    23   ar
    23    23    24   ar
    24    24    25   ar
    25    25    26    1
    26    26    27    1
    27    27    28    1
    28    28    29    1
    29    29    30    1
    30    30    31    1
    31    31    32    1
    32    32    33    1
    33    25     3   ar
    34    33    29    1
    35    21     6   ar
    36    20     9   ar
    37    18    12   ar
    38     1    34    1
    39     1    35    1
    40     1    36    1
    41     4    37    1
    42     7    38    1
    43    10    39    1
    44    13    40    1
    45    14    41    1
    46    17    42    1
    47    18    43    1
    48    23    44    1
    49    24    45    1
    50    27    46    1
    51    27    47    1
    52    28    48    1
    53    28    49    1
    54    30    50    1
    55    30    51    1
    56    31    52    1
    57    31    53    1
    58    32    54    1
    59    32    55    1
    60    33    56    1
    61    33    57    1
