
     RDKit          3D

 57 61  0  0  0  0  0  0  0  0999 V2000
   -1.4316   -1.6550    3.4143 C   0  0  0  0  0  0  0  0  0  0  0  0
   -2.3815   -1.6108    2.3702 O   0  0  0  0  0  0  0  0  0  0  0  0
   -1.8883   -1.4627    1.0593 C   0  0  0  0  0  0  0  0  0  0  0  0
   -0.5584   -1.3644    0.7869 C   0  0  0  0  0  0  0  0  0  0  0  0
   -0.0373   -1.2183   -0.4861 C   0  0  0  0  0  0  0  0  0  0  0  0
    1.3497   -1.1226   -0.6901 N   0  0  0  0  0  0  0  0  0  0  0  0
    2.0194   -1.7859   -1.6432 C   0  0  0  0  0  0  0  0  0  0  0  0
    3.3133   -1.6973   -1.8344 N   0  0  0  0  0  0  0  0  0  0  0  0
    4.1416   -0.9023   -1.0673 C   0  0  0  0  0  0  0  0  0  0  0  0
    5.4726   -0.7257   -1.1608 C   0  0  0  0  0  0  0  0  0  0  0  0
    6.0828    0.0976   -0.3095 C   0  0  0  0  0  0  0  0  0  0  0  0
    7.4857    0.4837   -0.1672 C   0  0  0  0  0  0  0  0  0  0  0  0
    7.8691    1.3700    0.8122 C   0  0  0  0  0  0  0  0  0  0  0  0
    9.2086    1.7415    0.9514 C   0  0  0  0  0  0  0  0  0  0  0  0
   10.1851    1.2364    0.1181 C   0  0  0  0  0  0  0  0  0  0  0  0
   11.8733    1.7085    0.2981 Cl  0  0  0  0  0  0  0  0  0  0  0  0
    9.7875    0.3483   -0.8603 C   0  0  0  0  0  0  0  0  0  0  0  0
    8.4441   -0.0272   -1.0033 C   0  0  0  0  0  0  0  0  0  0  0  0
    4.7626    0.7151    0.7382 S   0  0  0  0  0  0  0  0  0  0  0  0
    3.4647   -0.2248   -0.0953 C   0  0  0  0  0  0  0  0  0  0  0  0
    2.0914   -0.3088    0.1196 C   0  0  0  0  0  0  0  0  0  0  0  0
    1.5597    0.3517    1.0376 O   0  0  0  0  0  0  0  0  0  0  0  0
   -0.9309   -1.1719   -1.5275 C   0  0  0  0  0  0  0  0  0  0  0  0
   -2.3019   -1.2715   -1.2703 C   0  0  0  0  0  0  0  0  0  0  0  0
   -2.8137   -1.4154   -0.0035 C   0  0  0  0  0  0  0  0  0  0  0  0
   -4.1354   -1.5124    0.3114 O   0  0  0  0  0  0  0  0  0  0  0  0
   -5.2130   -1.4424   -0.5435 C   0  0  0  0  0  0  0  0  0  0  0  0
   -5.3356   -0.0942   -1.1700 C   0  0  0  0  0  0  0  0  0  0  0  0
   -5.5123    0.9538   -0.1684 N   0  0  0  0  0  0  0  0  0  0  0  0
   -5.6202    2.2103   -0.8673 C   0  0  0  0  0  0  0  0  0  0  0  0
   -6.5480    3.0469    0.0096 C   0  0  0  0  0  0  0  0  0  0  0  0
   -7.5536    2.0025    0.4474 C   0  0  0  0  0  0  0  0  0  0  0  0
   -6.6964    0.7796    0.6134 C   0  0  0  0  0  0  0  0  0  0  0  0
   -1.9356   -1.7487    4.3923 H   0  0  0  0  0  0  0  0  0  0  0  0
   -0.8076   -0.7390    3.3457 H   0  0  0  0  0  0  0  0  0  0  0  0
   -0.7194   -2.5080    3.2242 H   0  0  0  0  0  0  0  0  0  0  0  0
    0.1249   -1.4069    1.6538 H   0  0  0  0  0  0  0  0  0  0  0  0
    1.4045   -2.4469   -2.2980 H   0  0  0  0  0  0  0  0  0  0  0  0
    6.0872   -1.2572   -1.9425 H   0  0  0  0  0  0  0  0  0  0  0  0
    7.1012    1.7673    1.4676 H   0  0  0  0  0  0  0  0  0  0  0  0
    9.4918    2.4461    1.7350 H   0  0  0  0  0  0  0  0  0  0  0  0
   10.5225   -0.0688   -1.5320 H   0  0  0  0  0  0  0  0  0  0  0  0
    8.1392   -0.7261   -1.7751 H   0  0  0  0  0  0  0  0  0  0  0  0
   -0.5580   -1.0588   -2.5301 H   0  0  0  0  0  0  0  0  0  0  0  0
   -2.9373   -1.2534   -2.1321 H   0  0  0  0  0  0  0  0  0  0  0  0
   -6.1726   -1.7796   -0.0786 H   0  0  0  0  0  0  0  0  0  0  0  0
   -5.0375   -2.2270   -1.3505 H   0  0  0  0  0  0  0  0  0  0  0  0
   -4.5693    0.2360   -1.8450 H   0  0  0  0  0  0  0  0  0  0  0  0
   -6.2942   -0.1022   -1.7744 H   0  0  0  0  0  0  0  0  0  0  0  0
   -4.6452    2.7423   -0.9468 H   0  0  0  0  0  0  0  0  0  0  0  0
   -6.1020    2.0999   -1.8521 H   0  0  0  0  0  0  0  0  0  0  0  0
   -6.0294    3.4104    0.9216 H   0  0  0  0  0  0  0  0  0  0  0  0
   -7.0207    3.8640   -0.5694 H   0  0  0  0  0  0  0  0  0  0  0  0
   -8.0432    2.3023    1.4042 H   0  0  0  0  0  0  0  0  0  0  0  0
   -8.3687    1.8622   -0.2953 H   0  0  0  0  0  0  0  0  0  0  0  0
   -6.4967    0.6480    1.6986 H   0  0  0  0  0  0  0  0  0  0  0  0
   -7.2867   -0.0880    0.2064 H   0  0  0  0  0  0  0  0  0  0  0  0
  1  2  1  0
  2  3  1  0
  3  4  2  0
  4  5  1  0
  5  6  1  0
  6  7  1  0
  7  8  2  0
  8  9  1  0
  9 10  1  0
 10 11  2  0
 11 12  1  0
 12 13  2  0
 13 14  1  0
 14 15  2  0
 15 16  1  0
 15 17  1  0
 17 18  2  0
 11 19  1  0
 19 20  1  0
 20 21  1  0
 21 22  2  0
  5 23  2  0
 23 24  1  0
 24 25  2  0
 25 26  1  0
 26 27  1  0
 27 28  1  0
 28 29  1  0
 29 30  1  0
 30 31  1  0
 31 32  1  0
 32 33  1  0
 25  3  1  0
 33 29  1  0
 21  6  1  0
 20  9  2  0
 18 12  1  0
  1 34  1  0
  1 35  1  0
  1 36  1  0
  4 37  1  0
  7 38  1  0
 10 39  1  0
 13 40  1  0
 14 41  1  0
 17 42  1  0
 18 43  1  0
 23 44  1  0
 24 45  1  0
 27 46  1  0
 27 47  1  0
 28 48  1  0
 28 49  1  0
 30 50  1  0
 30 51  1  0
 31 52  1  0
 31 53  1  0
 32 54  1  0
 32 55  1  0
 33 56  1  0
 33 57  1  0
M  END
$$$$
