@<TRIPOS>MOLECULE
*****
 59 62 0 0 0
SMALL
GASTEIGER

@<TRIPOS>ATOM
      1 C          -2.4023    2.4579    0.8643 C.3     1  UNL1        0.2011
      2 O          -1.2636    2.8572    0.1266 O.3     1  UNL1       -0.4731
      3 C          -0.1435    2.0499   -0.0587 C.ar    1  UNL1        0.1434
      4 C          -0.2173    0.6795    0.1426 C.ar    1  UNL1        0.0789
      5 C           0.9251   -0.1032   -0.0523 C.ar    1  UNL1       -0.0288
      6 C           2.1357    0.4841   -0.4467 C.ar    1  UNL1       -0.0109
      7 C           2.1723    1.8498   -0.6377 C.ar    1  UNL1       -0.0503
      8 C           1.0507    2.6289   -0.4479 C.ar    1  UNL1       -0.0175
      9 C           3.1659   -0.5249   -0.5836 C.ar    1  UNL1        0.0431
     10 C           3.3996   -1.1658   -1.7876 C.ar    1  UNL1        0.1293
     11 N           2.6059   -0.7991   -2.9077 N.pl3   1  UNL1       -0.3425
     12 N           4.3473   -2.1132   -1.9209 N.ar    1  UNL1       -0.1995
     13 C           5.1196   -2.4871   -0.8841 C.ar    1  UNL1        0.2145
     14 N           6.1512   -3.4631   -0.8705 N.pl3   1  UNL1       -0.3274
     15 N           4.8998   -1.8697    0.2901 N.ar    1  UNL1       -0.2190
     16 C           3.9651   -0.9180    0.4709 C.ar    1  UNL1        0.0556
     17 C           3.8116   -0.2899    1.8251 C.3     1  UNL1       -0.0124
     18 C           4.4861    1.0612    1.7431 C.3     1  UNL1       -0.0598
     19 N          -1.4578    0.1117    0.5418 N.am    1  UNL1       -0.2648
     20 C          -1.5965   -1.2945    0.7612 C.3     1  UNL1        0.0221
     21 C          -1.9989   -1.9800   -0.5447 C.3     1  UNL1       -0.0132
     22 C          -2.1446   -3.4836   -0.3135 C.3     1  UNL1        0.0487
     23 O          -0.8873   -3.9110    0.1220 O.3     1  UNL1       -0.3829
     24 C          -0.8675   -5.2759    0.3739 C.3     1  UNL1        0.0364
     25 C          -2.5780    0.9685    0.7203 C.2     1  UNL1        0.2653
     26 O          -3.7506    0.4767    0.7600 O.2     1  UNL1       -0.2708
     27 C          -3.6230    3.1666    0.4407 C.ar    1  UNL1        0.0070
     28 C          -4.5090    3.6899    1.3722 C.ar    1  UNL1       -0.0191
     29 C          -5.6517    4.3528    1.0005 C.ar    1  UNL1        0.1265
     30 F          -6.5476    4.8814    1.8821 F       1  UNL1       -0.2054
     31 C          -5.8604    4.4643   -0.3626 C.ar    1  UNL1        0.0088
     32 C          -5.0149    3.9645   -1.3348 C.ar    1  UNL1        0.1265
     33 F          -5.3683    4.1601   -2.6168 F       1  UNL1       -0.2054
     34 C          -3.8647    3.2973   -0.9101 C.ar    1  UNL1       -0.0191
     35 H          -2.1529    2.6317    1.9312 H       1  UNL1        0.0884
     36 H           0.7600   -1.1530    0.1287 H       1  UNL1        0.0643
     37 H           3.1537    2.1849   -0.9409 H       1  UNL1        0.0625
     38 H           1.1667    3.6932   -0.6194 H       1  UNL1        0.0655
     39 H           1.9991   -1.5410   -3.2903 H       1  UNL1        0.1437
     40 H           2.4399    0.0472   -3.4988 H       1  UNL1        0.1437
     41 H           5.8393   -4.3258   -0.3713 H       1  UNL1        0.1452
     42 H           6.9411   -3.0049   -1.3840 H       1  UNL1        0.1452
     43 H           2.7466   -0.0843    2.0544 H       1  UNL1        0.0326
     44 H           4.3227   -0.8654    2.6024 H       1  UNL1        0.0326
     45 H           5.4431    0.9963    2.3250 H       1  UNL1        0.0233
     46 H           4.6948    1.3582    0.6880 H       1  UNL1        0.0233
     47 H           3.8914    1.8346    2.2798 H       1  UNL1        0.0233
     48 H          -0.7691   -1.7926    1.2777 H       1  UNL1        0.0469
     49 H          -2.4795   -1.4585    1.4543 H       1  UNL1        0.0469
     50 H          -2.9933   -1.6312   -0.8762 H       1  UNL1        0.0303
     51 H          -1.2251   -1.8610   -1.3272 H       1  UNL1        0.0303
     52 H          -2.4522   -3.9675   -1.2370 H       1  UNL1        0.0560
     53 H          -2.8465   -3.6594    0.5222 H       1  UNL1        0.0560
     54 H          -1.1139   -5.8554   -0.5275 H       1  UNL1        0.0523
     55 H           0.1349   -5.5252    0.7806 H       1  UNL1        0.0523
     56 H          -1.6534   -5.4547    1.1645 H       1  UNL1        0.0523
     57 H          -4.3350    3.5966    2.4518 H       1  UNL1        0.0650
     58 H          -6.7765    4.9962   -0.6644 H       1  UNL1        0.0675
     59 H          -3.2244    2.9181   -1.6805 H       1  UNL1        0.0650
@<TRIPOS>BOND
     1     1     2    1
     2     2     3    1
     3     3     4   ar
     4     4     5   ar
     5     5     6   ar
     6     6     7   ar
     7     7     8   ar
     8     6     9    1
     9     9    10   ar
    10    10    11    1
    11    10    12   ar
    12    12    13   ar
    13    13    14    1
    14    13    15   ar
    15    15    16   ar
    16    16    17    1
    17    17    18    1
    18     4    19    1
    19    19    20    1
    20    20    21    1
    21    21    22    1
    22    22    23    1
    23    23    24    1
    24    19    25   am
    25    25    26    2
    26     1    27    1
    27    27    28   ar
    28    28    29   ar
    29    29    30    1
    30    29    31   ar
    31    31    32   ar
    32    32    33    1
    33    32    34   ar
    34    25     1    1
    35    34    27   ar
    36     8     3   ar
    37    16     9   ar
    38     1    35    1
    39     5    36    1
    40     7    37    1
    41     8    38    1
    42    11    39    1
    43    11    40    1
    44    14    41    1
    45    14    42    1
    46    17    43    1
    47    17    44    1
    48    18    45    1
    49    18    46    1
    50    18    47    1
    51    20    48    1
    52    20    49    1
    53    21    50    1
    54    21    51    1
    55    22    52    1
    56    22    53    1
    57    24    54    1
    58    24    55    1
    59    24    56    1
    60    28    57    1
    61    31    58    1
    62    34    59    1
