
     RDKit          3D

 59 62  0  0  0  0  0  0  0  0999 V2000
   -2.4023    2.4579    0.8643 C   0  0  2  0  0  0  0  0  0  0  0  0
   -1.2636    2.8572    0.1266 O   0  0  0  0  0  0  0  0  0  0  0  0
   -0.1435    2.0499   -0.0587 C   0  0  0  0  0  0  0  0  0  0  0  0
   -0.2173    0.6795    0.1426 C   0  0  0  0  0  0  0  0  0  0  0  0
    0.9251   -0.1032   -0.0523 C   0  0  0  0  0  0  0  0  0  0  0  0
    2.1357    0.4841   -0.4467 C   0  0  0  0  0  0  0  0  0  0  0  0
    2.1723    1.8498   -0.6377 C   0  0  0  0  0  0  0  0  0  0  0  0
    1.0507    2.6289   -0.4479 C   0  0  0  0  0  0  0  0  0  0  0  0
    3.1659   -0.5249   -0.5836 C   0  0  0  0  0  0  0  0  0  0  0  0
    3.3996   -1.1658   -1.7876 C   0  0  0  0  0  0  0  0  0  0  0  0
    2.6059   -0.7991   -2.9077 N   0  0  0  0  0  0  0  0  0  0  0  0
    4.3473   -2.1132   -1.9209 N   0  0  0  0  0  0  0  0  0  0  0  0
    5.1196   -2.4871   -0.8841 C   0  0  0  0  0  0  0  0  0  0  0  0
    6.1512   -3.4631   -0.8705 N   0  0  0  0  0  0  0  0  0  0  0  0
    4.8998   -1.8697    0.2901 N   0  0  0  0  0  0  0  0  0  0  0  0
    3.9651   -0.9180    0.4709 C   0  0  0  0  0  0  0  0  0  0  0  0
    3.8116   -0.2899    1.8251 C   0  0  0  0  0  0  0  0  0  0  0  0
    4.4861    1.0612    1.7431 C   0  0  0  0  0  0  0  0  0  0  0  0
   -1.4578    0.1117    0.5418 N   0  0  0  0  0  0  0  0  0  0  0  0
   -1.5965   -1.2945    0.7612 C   0  0  0  0  0  0  0  0  0  0  0  0
   -1.9989   -1.9800   -0.5447 C   0  0  0  0  0  0  0  0  0  0  0  0
   -2.1446   -3.4836   -0.3135 C   0  0  0  0  0  0  0  0  0  0  0  0
   -0.8873   -3.9110    0.1220 O   0  0  0  0  0  0  0  0  0  0  0  0
   -0.8675   -5.2759    0.3739 C   0  0  0  0  0  0  0  0  0  0  0  0
   -2.5780    0.9685    0.7203 C   0  0  0  0  0  0  0  0  0  0  0  0
   -3.7506    0.4767    0.7600 O   0  0  0  0  0  0  0  0  0  0  0  0
   -3.6230    3.1666    0.4407 C   0  0  0  0  0  0  0  0  0  0  0  0
   -4.5090    3.6899    1.3722 C   0  0  0  0  0  0  0  0  0  0  0  0
   -5.6517    4.3528    1.0005 C   0  0  0  0  0  0  0  0  0  0  0  0
   -6.5476    4.8814    1.8821 F   0  0  0  0  0  0  0  0  0  0  0  0
   -5.8604    4.4643   -0.3626 C   0  0  0  0  0  0  0  0  0  0  0  0
   -5.0149    3.9645   -1.3348 C   0  0  0  0  0  0  0  0  0  0  0  0
   -5.3683    4.1601   -2.6168 F   0  0  0  0  0  0  0  0  0  0  0  0
   -3.8647    3.2973   -0.9101 C   0  0  0  0  0  0  0  0  0  0  0  0
   -2.1529    2.6317    1.9312 H   0  0  0  0  0  0  0  0  0  0  0  0
    0.7600   -1.1530    0.1287 H   0  0  0  0  0  0  0  0  0  0  0  0
    3.1537    2.1849   -0.9409 H   0  0  0  0  0  0  0  0  0  0  0  0
    1.1667    3.6932   -0.6194 H   0  0  0  0  0  0  0  0  0  0  0  0
    1.9991   -1.5410   -3.2903 H   0  0  0  0  0  0  0  0  0  0  0  0
    2.4399    0.0472   -3.4988 H   0  0  0  0  0  0  0  0  0  0  0  0
    5.8393   -4.3258   -0.3713 H   0  0  0  0  0  0  0  0  0  0  0  0
    6.9411   -3.0049   -1.3840 H   0  0  0  0  0  0  0  0  0  0  0  0
    2.7466   -0.0843    2.0544 H   0  0  0  0  0  0  0  0  0  0  0  0
    4.3227   -0.8654    2.6024 H   0  0  0  0  0  0  0  0  0  0  0  0
    5.4431    0.9963    2.3250 H   0  0  0  0  0  0  0  0  0  0  0  0
    4.6948    1.3582    0.6880 H   0  0  0  0  0  0  0  0  0  0  0  0
    3.8914    1.8346    2.2798 H   0  0  0  0  0  0  0  0  0  0  0  0
   -0.7691   -1.7926    1.2777 H   0  0  0  0  0  0  0  0  0  0  0  0
   -2.4795   -1.4585    1.4543 H   0  0  0  0  0  0  0  0  0  0  0  0
   -2.9933   -1.6312   -0.8762 H   0  0  0  0  0  0  0  0  0  0  0  0
   -1.2251   -1.8610   -1.3272 H   0  0  0  0  0  0  0  0  0  0  0  0
   -2.4522   -3.9675   -1.2370 H   0  0  0  0  0  0  0  0  0  0  0  0
   -2.8465   -3.6594    0.5222 H   0  0  0  0  0  0  0  0  0  0  0  0
   -1.1139   -5.8554   -0.5275 H   0  0  0  0  0  0  0  0  0  0  0  0
    0.1349   -5.5252    0.7806 H   0  0  0  0  0  0  0  0  0  0  0  0
   -1.6534   -5.4547    1.1645 H   0  0  0  0  0  0  0  0  0  0  0  0
   -4.3350    3.5966    2.4518 H   0  0  0  0  0  0  0  0  0  0  0  0
   -6.7765    4.9962   -0.6644 H   0  0  0  0  0  0  0  0  0  0  0  0
   -3.2244    2.9181   -1.6805 H   0  0  0  0  0  0  0  0  0  0  0  0
  1  2  1  0
  2  3  1  0
  3  4  2  0
  4  5  1  0
  5  6  2  0
  6  7  1  0
  7  8  2  0
  6  9  1  0
  9 10  2  0
 10 11  1  0
 10 12  1  0
 12 13  2  0
 13 14  1  0
 13 15  1  0
 15 16  2  0
 16 17  1  0
 17 18  1  0
  4 19  1  0
 19 20  1  0
 20 21  1  0
 21 22  1  0
 22 23  1  0
 23 24  1  0
 19 25  1  0
 25 26  2  0
  1 27  1  0
 27 28  2  0
 28 29  1  0
 29 30  1  0
 29 31  2  0
 31 32  1  0
 32 33  1  0
 32 34  2  0
 25  1  1  0
 34 27  1  0
  8  3  1  0
 16  9  1  0
  1 35  1  1
  5 36  1  0
  7 37  1  0
  8 38  1  0
 11 39  1  0
 11 40  1  0
 14 41  1  0
 14 42  1  0
 17 43  1  0
 17 44  1  0
 18 45  1  0
 18 46  1  0
 18 47  1  0
 20 48  1  0
 20 49  1  0
 21 50  1  0
 21 51  1  0
 22 52  1  0
 22 53  1  0
 24 54  1  0
 24 55  1  0
 24 56  1  0
 28 57  1  0
 31 58  1  0
 34 59  1  0
M  END
$$$$
