@<TRIPOS>MOLECULE
*****
 57 59 0 0 0
SMALL
GASTEIGER

@<TRIPOS>ATOM
      1 C           0.3121    3.4320   -1.3207 C.3     1  UNL1        0.0122
      2 C           0.0068    1.9409   -1.3109 C.2     1  UNL1        0.2107
      3 O          -0.1993    1.2699   -2.1285 O.2     1  UNL1       -0.2761
      4 N           0.0613    1.4496    0.1382 N.am    1  UNL1       -0.2999
      5 C          -0.2997    0.0189    0.1844 C.3     1  UNL1        0.1519
      6 C           0.6987   -0.8273    0.8354 C.3     1  UNL1        0.0043
      7 C           1.9901   -0.8157    0.2585 C.ar    1  UNL1       -0.0447
      8 C           2.3996   -1.7458   -0.6792 C.ar    1  UNL1       -0.0551
      9 C           3.9432   -1.7992   -0.9260 C.ar    1  UNL1       -0.0194
     10 C           4.7868   -1.0956   -0.4563 C.ar    1  UNL1        0.1420
     11 N           6.0957   -0.5603   -0.4108 N.pl3   1  UNL1       -0.0734
     12 C           7.0667   -0.2491   -0.3420 C.cat   1  UNL1        0.3821
     13 N           7.1134    1.4227   -1.0741 N.pl3   1  UNL1       -0.2889
     14 N           8.3401   -0.5607    0.2750 N.pl3   1  UNL1       -0.2889
     15 C           4.2114    0.0073    0.7058 C.ar    1  UNL1       -0.0194
     16 C           2.9429   -0.0062    0.9165 C.ar    1  UNL1       -0.0551
     17 P          -1.7895   -0.3232    1.2169 P.3     1  UNL1        0.4539
     18 O          -1.4414    0.0126    2.6495 O.2     1  UNL1       -0.2304
     19 O          -1.9342   -2.0641    1.2017 O.3     1  UNL1       -0.4144
     20 C          -2.5709   -2.8687    0.3535 C.ar    1  UNL1        0.1309
     21 C          -3.9926   -2.7347    0.3023 C.ar    1  UNL1       -0.0194
     22 C          -4.7349   -3.5486   -0.4415 C.ar    1  UNL1       -0.0583
     23 C          -4.2847   -4.6122   -1.2520 C.ar    1  UNL1       -0.0615
     24 C          -2.9221   -4.6224   -1.1268 C.ar    1  UNL1       -0.0583
     25 C          -2.0923   -3.9093   -0.4801 C.ar    1  UNL1       -0.0194
     26 O          -3.1464    0.4444    0.6117 O.3     1  UNL1       -0.4144
     27 C          -3.6327    1.6138    0.7612 C.ar    1  UNL1        0.1309
     28 C          -4.2637    2.1775   -0.3739 C.ar    1  UNL1       -0.0194
     29 C          -4.9237    3.3706   -0.4195 C.ar    1  UNL1       -0.0583
     30 C          -5.0167    4.1393    0.8012 C.ar    1  UNL1       -0.0615
     31 C          -4.3914    3.5518    1.8943 C.ar    1  UNL1       -0.0583
     32 C          -3.7204    2.4113    1.9143 C.ar    1  UNL1       -0.0194
     33 H           1.2868    3.5578   -0.8647 H       1  UNL1        0.0322
     34 H           0.2832    3.8538   -2.3247 H       1  UNL1        0.0322
     35 H          -0.5395    3.8960   -0.7199 H       1  UNL1        0.0322
     36 H           0.3229    2.0423    0.8405 H       1  UNL1        0.1496
     37 H          -0.5437   -0.3241   -0.8085 H       1  UNL1        0.0651
     38 H           0.2650   -1.8638    0.7777 H       1  UNL1        0.0338
     39 H           0.7318   -0.5418    1.8975 H       1  UNL1        0.0338
     40 H           1.7966   -2.3356   -1.2012 H       1  UNL1        0.0621
     41 H           4.1907   -2.5504   -1.6301 H       1  UNL1        0.0653
     42 H           7.1560    1.0083   -1.9776 H       1  UNL1        0.2547
     43 H           7.0870    1.9816   -0.3069 H       1  UNL1        0.2547
     44 H           9.0396   -0.9333   -0.3712 H       1  UNL1        0.2547
     45 H           8.3432   -0.3298    1.2573 H       1  UNL1        0.2547
     46 H           4.9671    0.6210    1.1166 H       1  UNL1        0.0653
     47 H           2.5580    0.7280    1.5744 H       1  UNL1        0.0621
     48 H          -4.3893   -2.0241    0.9905 H       1  UNL1        0.0654
     49 H          -5.8483   -3.4193   -0.4661 H       1  UNL1        0.0619
     50 H          -4.9824   -5.2138   -1.7052 H       1  UNL1        0.0618
     51 H          -2.4235   -5.4918   -1.7674 H       1  UNL1        0.0619
     52 H          -0.9952   -4.0681   -0.4589 H       1  UNL1        0.0654
     53 H          -4.2390    1.5710   -1.3097 H       1  UNL1        0.0654
     54 H          -5.3313    3.7512   -1.3158 H       1  UNL1        0.0619
     55 H          -5.5678    5.0218    0.7667 H       1  UNL1        0.0618
     56 H          -4.5113    4.1256    2.8824 H       1  UNL1        0.0619
     57 H          -3.2691    2.0181    2.8461 H       1  UNL1        0.0654
@<TRIPOS>BOND
     1     1     2    1
     2     2     3    2
     3     2     4   am
     4     4     5    1
     5     5     6    1
     6     6     7    1
     7     7     8   ar
     8     8     9   ar
     9     9    10   ar
    10    10    11    1
    11    11    12    2
    12    12    13    1
    13    12    14    1
    14    10    15   ar
    15    15    16   ar
    16     5    17    1
    17    17    18    2
    18    17    19    1
    19    19    20    1
    20    20    21   ar
    21    21    22   ar
    22    22    23   ar
    23    23    24   ar
    24    24    25   ar
    25    17    26    1
    26    26    27    1
    27    27    28   ar
    28    28    29   ar
    29    29    30   ar
    30    30    31   ar
    31    31    32   ar
    32    16     7   ar
    33    25    20   ar
    34    32    27   ar
    35     1    33    1
    36     1    34    1
    37     1    35    1
    38     4    36    1
    39     5    37    1
    40     6    38    1
    41     6    39    1
    42     8    40    1
    43     9    41    1
    44    13    42    1
    45    13    43    1
    46    14    44    1
    47    14    45    1
    48    15    46    1
    49    16    47    1
    50    21    48    1
    51    22    49    1
    52    23    50    1
    53    24    51    1
    54    25    52    1
    55    28    53    1
    56    29    54    1
    57    30    55    1
    58    31    56    1
    59    32    57    1
