
     RDKit          3D

 37 41  0  0  0  0  0  0  0  0999 V2000
    1.2198    1.6055   -0.7407 O   0  0  0  0  0  0  0  0  0  0  0  0
    1.6519    0.5184   -0.3439 C   0  0  0  0  0  0  0  0  0  0  0  0
    3.0525    0.2561   -0.2595 N   0  0  0  0  0  0  0  0  0  0  0  0
    3.9570    1.3116   -0.6564 C   0  0  0  0  0  0  0  0  0  0  0  0
    5.3331    1.2907   -0.0910 C   0  0  0  0  0  0  0  0  0  0  0  0
    5.1404    0.8001   -1.4619 C   0  0  0  0  0  0  0  0  0  0  0  0
    0.7539   -0.5872    0.0716 C   0  0  0  0  0  0  0  0  0  0  0  0
    1.1586   -1.8182    0.4332 N   0  0  0  0  0  0  0  0  0  0  0  0
    0.1100   -2.5870    0.7338 C   0  0  0  0  0  0  0  0  0  0  0  0
   -0.0271   -3.9191    1.1575 C   0  0  0  0  0  0  0  0  0  0  0  0
   -1.2872   -4.4330    1.3905 C   0  0  0  0  0  0  0  0  0  0  0  0
   -2.3603   -3.5967    1.1913 C   0  0  0  0  0  0  0  0  0  0  0  0
   -2.1534   -2.3478    0.7896 N   0  0  0  0  0  0  0  0  0  0  0  0
   -0.9720   -1.8173    0.5560 N   0  0  0  0  0  0  0  0  0  0  0  0
   -0.6165   -0.5731    0.1476 C   0  0  0  0  0  0  0  0  0  0  0  0
   -1.5193    0.5268   -0.1063 C   0  0  0  0  0  0  0  0  0  0  0  0
   -1.3707    1.7539    0.4649 C   0  0  0  0  0  0  0  0  0  0  0  0
   -2.2871    2.7549    0.1346 C   0  0  0  0  0  0  0  0  0  0  0  0
   -3.3289    2.5524   -0.7393 C   0  0  0  0  0  0  0  0  0  0  0  0
   -4.3379    3.2969   -1.2355 N   0  0  0  0  0  0  0  0  0  0  0  0
   -5.0763    2.5527   -2.0779 C   0  0  0  0  0  0  0  0  0  0  0  0
   -4.5341    1.3589   -2.1065 O   0  0  0  0  0  0  0  0  0  0  0  0
   -3.4836    1.3110   -1.3195 C   0  0  0  0  0  0  0  0  0  0  0  0
   -2.5802    0.3201   -0.9959 C   0  0  0  0  0  0  0  0  0  0  0  0
    3.4232   -0.6580    0.0742 H   0  0  0  0  0  0  0  0  0  0  0  0
    3.4941    2.2514   -0.9988 H   0  0  0  0  0  0  0  0  0  0  0  0
    5.8478    2.2617    0.1247 H   0  0  0  0  0  0  0  0  0  0  0  0
    5.5046    0.5461    0.7110 H   0  0  0  0  0  0  0  0  0  0  0  0
    5.2471   -0.2830   -1.6467 H   0  0  0  0  0  0  0  0  0  0  0  0
    5.4003    1.4105   -2.3504 H   0  0  0  0  0  0  0  0  0  0  0  0
    0.8538   -4.5206    1.2944 H   0  0  0  0  0  0  0  0  0  0  0  0
   -1.4069   -5.4659    1.7197 H   0  0  0  0  0  0  0  0  0  0  0  0
   -3.3530   -3.9986    1.3739 H   0  0  0  0  0  0  0  0  0  0  0  0
   -0.5869    1.9824    1.1719 H   0  0  0  0  0  0  0  0  0  0  0  0
   -2.1689    3.7278    0.5870 H   0  0  0  0  0  0  0  0  0  0  0  0
   -5.9622    2.8577   -2.6432 H   0  0  0  0  0  0  0  0  0  0  0  0
   -2.7353   -0.6424   -1.4727 H   0  0  0  0  0  0  0  0  0  0  0  0
  1  2  2  0
  2  3  1  0
  3  4  1  0
  4  5  1  0
  5  6  1  0
  2  7  1  0
  7  8  1  0
  8  9  2  0
  9 10  1  0
 10 11  2  0
 11 12  1  0
 12 13  2  0
 13 14  1  0
 14 15  1  0
 15 16  1  0
 16 17  2  0
 17 18  1  0
 18 19  2  0
 19 20  1  0
 20 21  2  0
 21 22  1  0
 22 23  1  0
 23 24  2  0
  6  4  1  0
 15  7  2  0
 24 16  1  0
 14  9  1  0
 23 19  1  0
  3 25  1  0
  4 26  1  0
  5 27  1  0
  5 28  1  0
  6 29  1  0
  6 30  1  0
 10 31  1  0
 11 32  1  0
 12 33  1  0
 17 34  1  0
 18 35  1  0
 21 36  1  0
 24 37  1  0
M  END
$$$$
