@<TRIPOS>MOLECULE
*****
 37 41 0 0 0
SMALL
GASTEIGER

@<TRIPOS>ATOM
      1 O           1.2198    1.6055   -0.7407 O.2     1  UNL1       -0.2684
      2 C           1.6519    0.5184   -0.3439 C.2     1  UNL1        0.2648
      3 N           3.0525    0.2561   -0.2595 N.am    1  UNL1       -0.3072
      4 C           3.9570    1.3116   -0.6564 C.3     1  UNL1        0.0236
      5 C           5.3331    1.2907   -0.0910 C.3     1  UNL1       -0.0328
      6 C           5.1404    0.8001   -1.4619 C.3     1  UNL1       -0.0328
      7 C           0.7539   -0.5872    0.0716 C.ar    1  UNL1        0.1536
      8 N           1.1586   -1.8182    0.4332 N.ar    1  UNL1       -0.2211
      9 C           0.1100   -2.5870    0.7338 C.ar    1  UNL1        0.1556
     10 C          -0.0271   -3.9191    1.1575 C.ar    1  UNL1       -0.0159
     11 C          -1.2872   -4.4330    1.3905 C.ar    1  UNL1       -0.0384
     12 C          -2.3603   -3.5967    1.1913 C.ar    1  UNL1        0.0485
     13 N          -2.1534   -2.3478    0.7896 N.ar    1  UNL1       -0.1729
     14 N          -0.9720   -1.8173    0.5560 N.ar    1  UNL1       -0.2119
     15 C          -0.6165   -0.5731    0.1476 C.ar    1  UNL1        0.1053
     16 C          -1.5193    0.5268   -0.1063 C.ar    1  UNL1        0.0063
     17 C          -1.3707    1.7539    0.4649 C.ar    1  UNL1       -0.0503
     18 C          -2.2871    2.7549    0.1346 C.ar    1  UNL1       -0.0320
     19 C          -3.3289    2.5524   -0.7393 C.ar    1  UNL1        0.1093
     20 N          -4.3379    3.2969   -1.2355 N.ar    1  UNL1       -0.2161
     21 C          -5.0763    2.5527   -2.0779 C.ar    1  UNL1        0.1831
     22 O          -4.5341    1.3589   -2.1065 O.2     1  UNL1       -0.4424
     23 C          -3.4836    1.3110   -1.3195 C.ar    1  UNL1        0.1557
     24 C          -2.5802    0.3201   -0.9959 C.ar    1  UNL1       -0.0079
     25 H           3.4232   -0.6580    0.0742 H       1  UNL1        0.1493
     26 H           3.4941    2.2514   -0.9988 H       1  UNL1        0.0498
     27 H           5.8478    2.2617    0.1247 H       1  UNL1        0.0284
     28 H           5.5046    0.5461    0.7110 H       1  UNL1        0.0284
     29 H           5.2471   -0.2830   -1.6467 H       1  UNL1        0.0284
     30 H           5.4003    1.4105   -2.3504 H       1  UNL1        0.0284
     31 H           0.8538   -4.5206    1.2944 H       1  UNL1        0.0655
     32 H          -1.4069   -5.4659    1.7197 H       1  UNL1        0.0634
     33 H          -3.3530   -3.9986    1.3739 H       1  UNL1        0.0847
     34 H          -0.5869    1.9824    1.1719 H       1  UNL1        0.0625
     35 H          -2.1689    3.7278    0.5870 H       1  UNL1        0.0640
     36 H          -5.9622    2.8577   -2.6432 H       1  UNL1        0.1255
     37 H          -2.7353   -0.6424   -1.4727 H       1  UNL1        0.0661
@<TRIPOS>BOND
     1     1     2    2
     2     2     3   am
     3     3     4    1
     4     4     5    1
     5     5     6    1
     6     2     7    1
     7     7     8   ar
     8     8     9   ar
     9     9    10   ar
    10    10    11   ar
    11    11    12   ar
    12    12    13   ar
    13    13    14   ar
    14    14    15   ar
    15    15    16    1
    16    16    17   ar
    17    17    18   ar
    18    18    19   ar
    19    19    20   ar
    20    20    21   ar
    21    21    22   ar
    22    22    23   ar
    23    23    24   ar
    24     6     4    1
    25    15     7   ar
    26    24    16   ar
    27    14     9   ar
    28    23    19   ar
    29     3    25    1
    30     4    26    1
    31     5    27    1
    32     5    28    1
    33     6    29    1
    34     6    30    1
    35    10    31    1
    36    11    32    1
    37    12    33    1
    38    17    34    1
    39    18    35    1
    40    21    36    1
    41    24    37    1
