
     RDKit          3D

 32 33  0  0  0  0  0  0  0  0999 V2000
    5.5835    0.3508   -0.5173 N   0  0  0  0  0  0  0  0  0  0  0  0
    4.6701   -1.0902   -0.2651 S   0  0  0  0  0  0  0  0  0  0  0  0
    4.8755   -2.0081   -1.4271 O   0  0  0  0  0  0  0  0  0  0  0  0
    5.0822   -1.7854    0.9980 O   0  0  0  0  0  0  0  0  0  0  0  0
    2.9773   -0.6521   -0.2136 C   0  0  0  0  0  0  0  0  0  0  0  0
    2.0835   -1.6799   -0.0179 C   0  0  0  0  0  0  0  0  0  0  0  0
    2.5841   -3.3536    0.1736 Cl  0  0  0  0  0  0  0  0  0  0  0  0
    0.7285   -1.4573    0.0405 C   0  0  0  0  0  0  0  0  0  0  0  0
    0.2885   -0.1587   -0.1047 C   0  0  0  0  0  0  0  0  0  0  0  0
   -1.1044    0.1224   -0.0517 N   0  0  0  0  0  0  0  0  0  0  0  0
   -2.0638   -0.9470    0.1538 C   0  0  0  0  0  0  0  0  0  0  0  0
   -3.4665   -0.4535    0.1791 C   0  0  0  0  0  0  0  0  0  0  0  0
   -4.4061   -0.2810   -0.8136 C   0  0  0  0  0  0  0  0  0  0  0  0
   -5.5551    0.2117   -0.2272 C   0  0  0  0  0  0  0  0  0  0  0  0
   -5.2468    0.3132    1.1082 C   0  0  0  0  0  0  0  0  0  0  0  0
   -4.0085   -0.0857    1.3206 O   0  0  0  0  0  0  0  0  0  0  0  0
    1.1973    0.8570   -0.2998 C   0  0  0  0  0  0  0  0  0  0  0  0
    2.5617    0.6681   -0.3633 C   0  0  0  0  0  0  0  0  0  0  0  0
    0.8078    2.2539   -0.4614 C   0  0  0  0  0  0  0  0  0  0  0  0
   -0.3052    3.0535   -0.4959 O   0  0  0  0  0  0  0  0  0  0  0  0
    1.5633    3.2448   -0.6432 O   0  0  0  0  0  0  0  0  0  0  0  0
    5.5048    0.9551    0.3381 H   0  0  0  0  0  0  0  0  0  0  0  0
    5.1351    0.8850   -1.2880 H   0  0  0  0  0  0  0  0  0  0  0  0
   -0.0229   -2.2155    0.1909 H   0  0  0  0  0  0  0  0  0  0  0  0
   -1.4998    1.0817   -0.1544 H   0  0  0  0  0  0  0  0  0  0  0  0
   -1.8271   -1.5439    1.0680 H   0  0  0  0  0  0  0  0  0  0  0  0
   -1.9676   -1.5963   -0.7591 H   0  0  0  0  0  0  0  0  0  0  0  0
   -4.2034   -0.5141   -1.8502 H   0  0  0  0  0  0  0  0  0  0  0  0
   -6.4614    0.4434   -0.7678 H   0  0  0  0  0  0  0  0  0  0  0  0
   -5.9352    0.6712    1.8610 H   0  0  0  0  0  0  0  0  0  0  0  0
    3.2893    1.4509   -0.5154 H   0  0  0  0  0  0  0  0  0  0  0  0
   -0.8587    3.2598   -1.3301 H   0  0  0  0  0  0  0  0  0  0  0  0
  1  2  1  0
  2  3  2  0
  2  4  2  0
  2  5  1  0
  5  6  2  0
  6  7  1  0
  6  8  1  0
  8  9  2  0
  9 10  1  0
 10 11  1  0
 11 12  1  0
 12 13  2  0
 13 14  1  0
 14 15  2  0
 15 16  1  0
  9 17  1  0
 17 18  2  0
 17 19  1  0
 19 20  1  0
 19 21  2  0
 18  5  1  0
 16 12  1  0
  1 22  1  0
  1 23  1  0
  8 24  1  0
 10 25  1  0
 11 26  1  0
 11 27  1  0
 13 28  1  0
 14 29  1  0
 15 30  1  0
 18 31  1  0
 20 32  1  0
M  END
$$$$
