
     RDKit          3D

 22 24  0  0  0  0  0  0  0  0999 V2000
   -5.0756   -1.0721    0.8837 O   0  0  0  0  0  0  0  0  0  0  0  0
   -3.8547   -0.6586    0.3935 C   0  0  0  0  0  0  0  0  0  0  0  0
   -2.7813   -1.0744    1.1488 C   0  0  0  0  0  0  0  0  0  0  0  0
   -1.5186   -0.6959    0.7165 C   0  0  0  0  0  0  0  0  0  0  0  0
   -1.2278    0.0855   -0.4396 C   0  0  0  0  0  0  0  0  0  0  0  0
   -2.3437    0.4729   -1.1566 C   0  0  0  0  0  0  0  0  0  0  0  0
   -3.5979    0.0973   -0.7278 C   0  0  0  0  0  0  0  0  0  0  0  0
    0.0285    0.3701   -0.7297 N   0  0  0  0  0  0  0  0  0  0  0  0
    0.9745   -0.0326   -0.0089 C   0  0  0  0  0  0  0  0  0  0  0  0
    0.2209   -0.9749    1.3396 S   0  0  0  0  0  0  0  0  0  0  0  0
    2.4150    0.1325   -0.0960 C   0  0  0  0  0  0  0  0  0  0  0  0
    2.9786    0.7862   -1.0155 N   0  0  0  0  0  0  0  0  0  0  0  0
    4.3708    0.8459   -0.9495 C   0  0  0  0  0  0  0  0  0  0  0  0
    5.0908    1.1665   -1.9539 O   0  0  0  0  0  0  0  0  0  0  0  0
    5.0267    0.5148    0.3688 C   0  0  0  0  0  0  0  0  0  0  0  0
    3.6633   -0.5271    1.0351 S   0  0  0  0  0  0  0  0  0  0  0  0
   -5.8909   -0.5323    0.6281 H   0  0  0  0  0  0  0  0  0  0  0  0
   -2.7470   -1.6614    2.0462 H   0  0  0  0  0  0  0  0  0  0  0  0
   -2.3065    1.0720   -2.0643 H   0  0  0  0  0  0  0  0  0  0  0  0
   -4.4823    0.3984   -1.2870 H   0  0  0  0  0  0  0  0  0  0  0  0
    5.9036   -0.1229    0.2584 H   0  0  0  0  0  0  0  0  0  0  0  0
    5.1539    1.4100    1.0063 H   0  0  0  0  0  0  0  0  0  0  0  0
  1  2  1  0
  2  3  2  0
  3  4  1  0
  4  5  2  0
  5  6  1  0
  6  7  2  0
  5  8  1  0
  8  9  2  0
  9 10  1  0
  9 11  1  0
 11 12  2  0
 12 13  1  0
 13 14  2  0
 13 15  1  0
 15 16  1  0
  7  2  1  0
 16 11  1  0
 10  4  1  0
  1 17  1  0
  3 18  1  0
  6 19  1  0
  7 20  1  0
 15 21  1  0
 15 22  1  0
M  END
$$$$
