@<TRIPOS>MOLECULE
*****
 56 58 0 0 0
SMALL
GASTEIGER

@<TRIPOS>ATOM
      1 C          -5.5000   -2.5658    0.0015 C.3     1  UNL1       -0.0524
      2 C          -6.0275   -1.3032    0.6462 C.3     1  UNL1       -0.0039
      3 N          -5.5101   -0.1376    0.0015 N.3     1  UNL1       -0.3014
      4 C          -6.0278    1.0912    0.5814 C.3     1  UNL1       -0.0039
      5 C          -7.5042    1.2520    0.2925 C.3     1  UNL1       -0.0524
      6 C          -4.0648   -0.0948   -0.1101 C.3     1  UNL1        0.0145
      7 C          -3.3521    0.0729    1.1918 C.3     1  UNL1        0.0247
      8 N          -1.9143    0.1114    1.0310 N.am    1  UNL1       -0.3101
      9 C          -1.1520    1.0445    0.2943 C.2     1  UNL1        0.2461
     10 O          -1.9293    1.8957   -0.2380 O.2     1  UNL1       -0.2701
     11 C           0.2716    1.1525    0.0816 C.ar    1  UNL1        0.0604
     12 C           0.7667    2.1569   -0.7570 C.ar    1  UNL1        0.0257
     13 C           0.0645    3.2292   -1.5512 C.3     1  UNL1       -0.0237
     14 N           2.1074    2.0223   -0.7609 N.ar    1  UNL1       -0.3578
     15 C           2.5391    1.0044    0.0108 C.ar    1  UNL1        0.0438
     16 C           3.9501    0.7161    0.1810 C.2     1  UNL1       -0.0253
     17 C           4.6527   -0.3628   -0.0600 C.2     1  UNL1        0.0479
     18 C           4.0916   -1.5831   -0.6007 C.2     1  UNL1        0.2490
     19 O           2.8997   -1.7621   -0.9293 O.2     1  UNL1       -0.2698
     20 N           5.1795   -2.4868   -0.6671 N.am    1  UNL1       -0.2809
     21 C           6.3603   -1.8365   -0.1843 C.ar    1  UNL1        0.0417
     22 C           6.0752   -0.5420    0.1930 C.ar    1  UNL1        0.0097
     23 C           7.0763    0.2920    0.6980 C.ar    1  UNL1       -0.0337
     24 C           8.3755   -0.1690    0.8282 C.ar    1  UNL1        0.0417
     25 CL          9.6191    0.9124    1.4709 Cl      1  UNL1       -0.0835
     26 C           8.6620   -1.4669    0.4499 C.ar    1  UNL1       -0.0416
     27 C           7.6684   -2.2943   -0.0510 C.ar    1  UNL1       -0.0385
     28 C           1.3736    0.4745    0.5298 C.ar    1  UNL1       -0.0134
     29 C           1.3144   -0.6433    1.4770 C.3     1  UNL1       -0.0370
     30 H          -5.1490   -2.3409   -1.0241 H       1  UNL1        0.0242
     31 H          -6.3285   -3.3133   -0.1147 H       1  UNL1        0.0242
     32 H          -4.7589   -3.0245    0.6628 H       1  UNL1        0.0242
     33 H          -7.1359   -1.2905    0.4641 H       1  UNL1        0.0424
     34 H          -5.8871   -1.3223    1.7471 H       1  UNL1        0.0424
     35 H          -5.4960    1.9817    0.2202 H       1  UNL1        0.0424
     36 H          -5.8491    1.0426    1.6951 H       1  UNL1        0.0424
     37 H          -7.7926    2.3090    0.0756 H       1  UNL1        0.0242
     38 H          -7.8109    0.6594   -0.6029 H       1  UNL1        0.0242
     39 H          -8.0778    0.9569    1.1931 H       1  UNL1        0.0242
     40 H          -3.6864   -0.9836   -0.6255 H       1  UNL1        0.0442
     41 H          -3.8451    0.7627   -0.7758 H       1  UNL1        0.0442
     42 H          -3.6925    0.9879    1.7366 H       1  UNL1        0.0475
     43 H          -3.6256   -0.7846    1.8327 H       1  UNL1        0.0475
     44 H          -1.3575   -0.6294    1.5048 H       1  UNL1        0.1491
     45 H          -0.0901    4.1202   -0.9217 H       1  UNL1        0.0292
     46 H          -0.8622    2.8696   -2.0216 H       1  UNL1        0.0292
     47 H           0.7424    3.5230   -2.3905 H       1  UNL1        0.0292
     48 H           2.7595    2.6555   -1.3171 H       1  UNL1        0.1656
     49 H           4.5014    1.5804    0.5885 H       1  UNL1        0.0646
     50 H           5.0547   -3.4664   -1.0277 H       1  UNL1        0.1552
     51 H           6.7843    1.3159    0.9816 H       1  UNL1        0.0639
     52 H           9.6987   -1.7560    0.5803 H       1  UNL1        0.0633
     53 H           7.9263   -3.2896   -0.3332 H       1  UNL1        0.0637
     54 H           2.3551   -0.9218    1.7789 H       1  UNL1        0.0278
     55 H           0.7831   -0.3354    2.4051 H       1  UNL1        0.0278
     56 H           0.7741   -1.4867    1.0395 H       1  UNL1        0.0278
@<TRIPOS>BOND
     1     1     2    1
     2     2     3    1
     3     3     4    1
     4     4     5    1
     5     3     6    1
     6     6     7    1
     7     7     8    1
     8     8     9   am
     9     9    10    2
    10     9    11    1
    11    11    12   ar
    12    12    13    1
    13    12    14   ar
    14    14    15   ar
    15    15    16    1
    16    16    17    2
    17    17    18    1
    18    18    19    2
    19    18    20   am
    20    20    21    1
    21    21    22   ar
    22    22    23   ar
    23    23    24   ar
    24    24    25    1
    25    24    26   ar
    26    26    27   ar
    27    15    28   ar
    28    28    29    1
    29    28    11   ar
    30    22    17    1
    31    27    21   ar
    32     1    30    1
    33     1    31    1
    34     1    32    1
    35     2    33    1
    36     2    34    1
    37     4    35    1
    38     4    36    1
    39     5    37    1
    40     5    38    1
    41     5    39    1
    42     6    40    1
    43     6    41    1
    44     7    42    1
    45     7    43    1
    46     8    44    1
    47    13    45    1
    48    13    46    1
    49    13    47    1
    50    14    48    1
    51    16    49    1
    52    20    50    1
    53    23    51    1
    54    26    52    1
    55    27    53    1
    56    29    54    1
    57    29    55    1
    58    29    56    1
