
     RDKit          3D

 56 58  0  0  0  0  0  0  0  0999 V2000
   -5.5000   -2.5658    0.0015 C   0  0  0  0  0  0  0  0  0  0  0  0
   -6.0275   -1.3032    0.6462 C   0  0  0  0  0  0  0  0  0  0  0  0
   -5.5101   -0.1376    0.0015 N   0  0  0  0  0  0  0  0  0  0  0  0
   -6.0278    1.0912    0.5814 C   0  0  0  0  0  0  0  0  0  0  0  0
   -7.5042    1.2520    0.2925 C   0  0  0  0  0  0  0  0  0  0  0  0
   -4.0648   -0.0948   -0.1101 C   0  0  0  0  0  0  0  0  0  0  0  0
   -3.3521    0.0729    1.1918 C   0  0  0  0  0  0  0  0  0  0  0  0
   -1.9143    0.1114    1.0310 N   0  0  0  0  0  0  0  0  0  0  0  0
   -1.1520    1.0445    0.2943 C   0  0  0  0  0  0  0  0  0  0  0  0
   -1.9293    1.8957   -0.2380 O   0  0  0  0  0  0  0  0  0  0  0  0
    0.2716    1.1525    0.0816 C   0  0  0  0  0  0  0  0  0  0  0  0
    0.7667    2.1569   -0.7570 C   0  0  0  0  0  0  0  0  0  0  0  0
    0.0645    3.2292   -1.5512 C   0  0  0  0  0  0  0  0  0  0  0  0
    2.1074    2.0223   -0.7609 N   0  0  0  0  0  0  0  0  0  0  0  0
    2.5391    1.0044    0.0108 C   0  0  0  0  0  0  0  0  0  0  0  0
    3.9501    0.7161    0.1810 C   0  0  0  0  0  0  0  0  0  0  0  0
    4.6527   -0.3628   -0.0600 C   0  0  0  0  0  0  0  0  0  0  0  0
    4.0916   -1.5831   -0.6007 C   0  0  0  0  0  0  0  0  0  0  0  0
    2.8997   -1.7621   -0.9293 O   0  0  0  0  0  0  0  0  0  0  0  0
    5.1795   -2.4868   -0.6671 N   0  0  0  0  0  0  0  0  0  0  0  0
    6.3603   -1.8365   -0.1843 C   0  0  0  0  0  0  0  0  0  0  0  0
    6.0752   -0.5420    0.1930 C   0  0  0  0  0  0  0  0  0  0  0  0
    7.0763    0.2920    0.6980 C   0  0  0  0  0  0  0  0  0  0  0  0
    8.3755   -0.1690    0.8282 C   0  0  0  0  0  0  0  0  0  0  0  0
    9.6191    0.9124    1.4709 Cl  0  0  0  0  0  0  0  0  0  0  0  0
    8.6620   -1.4669    0.4499 C   0  0  0  0  0  0  0  0  0  0  0  0
    7.6684   -2.2943   -0.0510 C   0  0  0  0  0  0  0  0  0  0  0  0
    1.3736    0.4745    0.5298 C   0  0  0  0  0  0  0  0  0  0  0  0
    1.3144   -0.6433    1.4770 C   0  0  0  0  0  0  0  0  0  0  0  0
   -5.1490   -2.3409   -1.0241 H   0  0  0  0  0  0  0  0  0  0  0  0
   -6.3285   -3.3133   -0.1147 H   0  0  0  0  0  0  0  0  0  0  0  0
   -4.7589   -3.0245    0.6628 H   0  0  0  0  0  0  0  0  0  0  0  0
   -7.1359   -1.2905    0.4641 H   0  0  0  0  0  0  0  0  0  0  0  0
   -5.8871   -1.3223    1.7471 H   0  0  0  0  0  0  0  0  0  0  0  0
   -5.4960    1.9817    0.2202 H   0  0  0  0  0  0  0  0  0  0  0  0
   -5.8491    1.0426    1.6951 H   0  0  0  0  0  0  0  0  0  0  0  0
   -7.7926    2.3090    0.0756 H   0  0  0  0  0  0  0  0  0  0  0  0
   -7.8109    0.6594   -0.6029 H   0  0  0  0  0  0  0  0  0  0  0  0
   -8.0778    0.9569    1.1931 H   0  0  0  0  0  0  0  0  0  0  0  0
   -3.6864   -0.9836   -0.6255 H   0  0  0  0  0  0  0  0  0  0  0  0
   -3.8451    0.7627   -0.7758 H   0  0  0  0  0  0  0  0  0  0  0  0
   -3.6925    0.9879    1.7366 H   0  0  0  0  0  0  0  0  0  0  0  0
   -3.6256   -0.7846    1.8327 H   0  0  0  0  0  0  0  0  0  0  0  0
   -1.3575   -0.6294    1.5048 H   0  0  0  0  0  0  0  0  0  0  0  0
   -0.0901    4.1202   -0.9217 H   0  0  0  0  0  0  0  0  0  0  0  0
   -0.8622    2.8696   -2.0216 H   0  0  0  0  0  0  0  0  0  0  0  0
    0.7424    3.5230   -2.3905 H   0  0  0  0  0  0  0  0  0  0  0  0
    2.7595    2.6555   -1.3171 H   0  0  0  0  0  0  0  0  0  0  0  0
    4.5014    1.5804    0.5885 H   0  0  0  0  0  0  0  0  0  0  0  0
    5.0547   -3.4664   -1.0277 H   0  0  0  0  0  0  0  0  0  0  0  0
    6.7843    1.3159    0.9816 H   0  0  0  0  0  0  0  0  0  0  0  0
    9.6987   -1.7560    0.5803 H   0  0  0  0  0  0  0  0  0  0  0  0
    7.9263   -3.2896   -0.3332 H   0  0  0  0  0  0  0  0  0  0  0  0
    2.3551   -0.9218    1.7789 H   0  0  0  0  0  0  0  0  0  0  0  0
    0.7831   -0.3354    2.4051 H   0  0  0  0  0  0  0  0  0  0  0  0
    0.7741   -1.4867    1.0395 H   0  0  0  0  0  0  0  0  0  0  0  0
  1  2  1  0
  2  3  1  0
  3  4  1  0
  4  5  1  0
  3  6  1  0
  6  7  1  0
  7  8  1  0
  8  9  1  0
  9 10  2  0
  9 11  1  0
 11 12  2  0
 12 13  1  0
 12 14  1  0
 14 15  1  0
 15 16  1  0
 16 17  2  0
 17 18  1  0
 18 19  2  0
 18 20  1  0
 20 21  1  0
 21 22  2  0
 22 23  1  0
 23 24  2  0
 24 25  1  0
 24 26  1  0
 26 27  2  0
 15 28  2  0
 28 29  1  0
 28 11  1  0
 22 17  1  0
 27 21  1  0
  1 30  1  0
  1 31  1  0
  1 32  1  0
  2 33  1  0
  2 34  1  0
  4 35  1  0
  4 36  1  0
  5 37  1  0
  5 38  1  0
  5 39  1  0
  6 40  1  0
  6 41  1  0
  7 42  1  0
  7 43  1  0
  8 44  1  0
 13 45  1  0
 13 46  1  0
 13 47  1  0
 14 48  1  0
 16 49  1  0
 20 50  1  0
 23 51  1  0
 26 52  1  0
 27 53  1  0
 29 54  1  0
 29 55  1  0
 29 56  1  0
M  END
$$$$
