@<TRIPOS>MOLECULE
*****
 60 63 0 0 0
SMALL
GASTEIGER

@<TRIPOS>ATOM
      1 C           5.3598    0.1306    0.5347 C.3     1  UNL1       -0.0349
      2 C           4.9104   -1.2693    0.3565 C.3     1  UNL1        0.0759
      3 C           6.0578   -2.2015    0.9576 C.3     1  UNL1       -0.0349
      4 O           4.7829   -1.7541   -0.9360 O.3     1  UNL1       -0.3876
      5 C           3.7242   -1.6225    1.1694 C.3     1  UNL1        0.0414
      6 N           2.4107   -1.3223    0.6680 N.am    1  UNL1       -0.2961
      7 C           1.8579   -0.1026    0.2820 C.2     1  UNL1        0.3106
      8 O           2.5900    0.9196    0.3487 O.2     1  UNL1       -0.2521
      9 N           0.5339    0.1421   -0.1962 N.am    1  UNL1       -0.1973
     10 C          -0.4378   -0.8571   -0.1805 C.2     1  UNL1        0.3216
     11 O          -0.2471   -2.0610    0.2075 O.2     1  UNL1       -0.2512
     12 N          -1.8009   -0.6482   -0.6122 N.am    1  UNL1       -0.2271
     13 C          -2.7799   -1.6682   -0.5432 C.ar    1  UNL1        0.0430
     14 C          -3.2323   -2.0794    0.7091 C.ar    1  UNL1       -0.0399
     15 C          -4.2285   -3.0278    0.8154 C.ar    1  UNL1       -0.0595
     16 C          -4.7953   -3.5852   -0.2808 C.ar    1  UNL1       -0.0500
     17 C          -4.3548   -3.1865   -1.5506 C.ar    1  UNL1        0.0566
     18 C          -5.0216   -3.7897   -2.7226 C.3     1  UNL1        0.4175
     19 F          -4.2203   -4.7827   -3.2244 F       1  UNL1       -0.1659
     20 F          -6.2448   -4.3182   -2.2799 F       1  UNL1       -0.1659
     21 F          -5.2927   -2.7836   -3.6462 F       1  UNL1       -0.1659
     22 C          -3.3469   -2.2277   -1.6435 C.ar    1  UNL1       -0.0283
     23 C          -2.1211    0.6639   -1.0793 C.2     1  UNL1        0.0290
     24 C          -1.2022    1.5784   -1.0896 C.2     1  UNL1        0.0379
     25 C          -1.8641    2.7939   -1.6303 C.2     1  UNL1        0.1632
     26 O          -1.6279    3.9952   -1.4641 O.2     1  UNL1       -0.2923
     27 C          -2.9908    2.2708   -2.5080 C.3     1  UNL1        0.0154
     28 C          -3.4536    1.1485   -1.5871 C.3     1  UNL1       -0.0064
     29 C           0.1846    1.4856   -0.6379 C.3     1  UNL1        0.0914
     30 C           0.3902    2.4699    0.4826 C.ar    1  UNL1       -0.0219
     31 C          -0.0178    2.1912    1.7629 C.ar    1  UNL1       -0.0552
     32 C           0.1076    3.0770    2.8024 C.ar    1  UNL1       -0.0440
     33 C           0.6792    4.3229    2.5370 C.ar    1  UNL1        0.0518
     34 C           0.7740    5.2612    3.6802 C.1     1  UNL1        0.0992
     35 N           0.8505    5.9724    4.5178 N.1     1  UNL1       -0.1909
     36 C           1.0943    4.6257    1.2922 C.ar    1  UNL1       -0.0440
     37 C           0.9561    3.7047    0.2356 C.ar    1  UNL1       -0.0552
     38 H           4.9688    0.6012    1.4636 H       1  UNL1        0.0258
     39 H           6.4878    0.1618    0.6874 H       1  UNL1        0.0258
     40 H           5.1072    0.7498   -0.3366 H       1  UNL1        0.0258
     41 H           5.8825   -2.2262    2.0368 H       1  UNL1        0.0258
     42 H           6.9950   -1.7676    0.6178 H       1  UNL1        0.0258
     43 H           5.8402   -3.1825    0.5216 H       1  UNL1        0.0258
     44 H           4.6258   -2.7453   -0.8403 H       1  UNL1        0.2102
     45 H           3.7648   -2.7410    1.4108 H       1  UNL1        0.0490
     46 H           3.8009   -1.1673    2.2003 H       1  UNL1        0.0490
     47 H           1.7468   -2.1633    0.5653 H       1  UNL1        0.1503
     48 H          -2.7655   -1.6372    1.5728 H       1  UNL1        0.0636
     49 H          -4.5859   -3.3622    1.7956 H       1  UNL1        0.0618
     50 H          -5.5908   -4.3409   -0.1638 H       1  UNL1        0.0623
     51 H          -3.0513   -1.9487   -2.6553 H       1  UNL1        0.0642
     52 H          -2.5706    1.8619   -3.4338 H       1  UNL1        0.0349
     53 H          -3.7220    3.0631   -2.6571 H       1  UNL1        0.0349
     54 H          -4.0546    1.5988   -0.7976 H       1  UNL1        0.0330
     55 H          -3.9072    0.3574   -2.1773 H       1  UNL1        0.0330
     56 H           0.8692    1.7031   -1.4754 H       1  UNL1        0.0608
     57 H          -0.4700    1.2196    1.9596 H       1  UNL1        0.0621
     58 H          -0.2071    2.8712    3.8002 H       1  UNL1        0.0630
     59 H           1.5405    5.6036    1.0897 H       1  UNL1        0.0630
     60 H           1.3119    4.0247   -0.7315 H       1  UNL1        0.0621
@<TRIPOS>BOND
     1     1     2    1
     2     2     3    1
     3     2     4    1
     4     2     5    1
     5     5     6    1
     6     6     7   am
     7     7     8    2
     8     7     9   am
     9     9    10   am
    10    10    11    2
    11    10    12   am
    12    12    13    1
    13    13    14   ar
    14    14    15   ar
    15    15    16   ar
    16    16    17   ar
    17    17    18    1
    18    18    19    1
    19    18    20    1
    20    18    21    1
    21    17    22   ar
    22    12    23    1
    23    23    24    2
    24    24    25    1
    25    25    26    2
    26    25    27    1
    27    27    28    1
    28    24    29    1
    29    29    30    1
    30    30    31   ar
    31    31    32   ar
    32    32    33   ar
    33    33    34    1
    34    34    35    3
    35    33    36   ar
    36    36    37   ar
    37    29     9    1
    38    37    30   ar
    39    22    13   ar
    40    28    23    1
    41     1    38    1
    42     1    39    1
    43     1    40    1
    44     3    41    1
    45     3    42    1
    46     3    43    1
    47     4    44    1
    48     5    45    1
    49     5    46    1
    50     6    47    1
    51    14    48    1
    52    15    49    1
    53    16    50    1
    54    22    51    1
    55    27    52    1
    56    27    53    1
    57    28    54    1
    58    28    55    1
    59    29    56    1
    60    31    57    1
    61    32    58    1
    62    36    59    1
    63    37    60    1
