@<TRIPOS>MOLECULE
*****
 54 57 0 0 0
SMALL
GASTEIGER

@<TRIPOS>ATOM
      1 C           5.1832    3.6018    0.3228 C.3     1  UNL1       -0.0223
      2 C           5.3377    2.1119    0.3638 C.ar    1  UNL1        0.0389
      3 C           4.1920    1.3251    0.1843 C.ar    1  UNL1       -0.0312
      4 C           4.2955   -0.0379    0.2156 C.ar    1  UNL1        0.0065
      5 C           3.1800   -0.8770    0.0416 C.ar    1  UNL1        0.0426
      6 N           1.9012   -0.3063   -0.1741 N.am    1  UNL1       -0.2689
      7 C           0.7019   -1.0304   -0.3631 C.2     1  UNL1        0.3044
      8 O           0.6929   -2.2805   -0.3516 O.2     1  UNL1       -0.2525
      9 N          -0.5593   -0.3442   -0.5771 N.am    1  UNL1       -0.2921
     10 C          -1.7795   -1.1013   -0.7693 C.3     1  UNL1        0.0569
     11 C          -2.4065   -0.8343   -2.1126 C.3     1  UNL1        0.0093
     12 C          -2.8876    0.5717   -2.2816 C.3     1  UNL1        0.1071
     13 C          -4.2371    0.6042   -2.9915 C.3     1  UNL1       -0.0251
     14 C          -1.9159    1.3701   -3.1242 C.3     1  UNL1       -0.0251
     15 O          -3.0998    1.2059   -1.0156 O.3     1  UNL1       -0.4857
     16 C          -3.4224    0.4735    0.1163 C.ar    1  UNL1        0.1297
     17 C          -4.3299    0.8518    1.0576 C.ar    1  UNL1        0.0225
     18 C          -4.5622    0.0215    2.1513 C.ar    1  UNL1        0.1335
     19 O          -5.4867    0.3685    3.1456 O.3     1  UNL1       -0.4056
     20 C          -4.9402    1.1269    4.2342 C.3     1  UNL1        0.5752
     21 F          -3.9487    0.4231    4.8674 F       1  UNL1       -0.1328
     22 F          -4.3485    2.2367    3.6475 F       1  UNL1       -0.1328
     23 F          -5.9650    1.4826    5.0555 F       1  UNL1       -0.1328
     24 C          -3.8988   -1.1739    2.3083 C.ar    1  UNL1       -0.0191
     25 C          -2.9775   -1.5644    1.3588 C.ar    1  UNL1       -0.0499
     26 C          -2.7579   -0.7397    0.2882 C.ar    1  UNL1        0.0148
     27 C           3.4586   -2.2180    0.1014 C.ar    1  UNL1       -0.0398
     28 C           4.7018   -2.7741    0.3111 C.ar    1  UNL1       -0.0594
     29 C           5.7764   -1.9452    0.4785 C.ar    1  UNL1       -0.0525
     30 C           5.5550   -0.5686    0.4277 C.ar    1  UNL1        0.0020
     31 C           6.6896    0.2045    0.6056 C.ar    1  UNL1        0.0356
     32 N           6.5320    1.5358    0.5657 N.ar    1  UNL1       -0.2595
     33 H           4.8314    3.9579   -0.6569 H       1  UNL1        0.0292
     34 H           6.1948    4.0438    0.4843 H       1  UNL1        0.0292
     35 H           4.5613    3.9638    1.1692 H       1  UNL1        0.0292
     36 H           3.2557    1.8233    0.0255 H       1  UNL1        0.0642
     37 H           1.7952    0.7338   -0.2023 H       1  UNL1        0.1564
     38 H          -0.5122    0.6924   -0.5802 H       1  UNL1        0.1508
     39 H          -1.5360   -2.1743   -0.7183 H       1  UNL1        0.0551
     40 H          -3.2956   -1.5062   -2.1873 H       1  UNL1        0.0325
     41 H          -1.7280   -1.1447   -2.9354 H       1  UNL1        0.0325
     42 H          -4.7116   -0.4064   -2.9881 H       1  UNL1        0.0268
     43 H          -4.9456    1.2953   -2.5164 H       1  UNL1        0.0268
     44 H          -4.1176    0.9428   -4.0534 H       1  UNL1        0.0268
     45 H          -2.0788    1.0951   -4.2036 H       1  UNL1        0.0268
     46 H          -0.8605    1.1162   -2.9168 H       1  UNL1        0.0268
     47 H          -2.1250    2.4488   -3.0588 H       1  UNL1        0.0268
     48 H          -4.8476    1.7734    0.9455 H       1  UNL1        0.0691
     49 H          -4.0617   -1.8323    3.1454 H       1  UNL1        0.0654
     50 H          -2.4252   -2.4847    1.4205 H       1  UNL1        0.0623
     51 H           2.6642   -2.9302   -0.0213 H       1  UNL1        0.0636
     52 H           4.8538   -3.8570    0.3474 H       1  UNL1        0.0618
     53 H           6.7494   -2.3667    0.6425 H       1  UNL1        0.0624
     54 H           7.6654   -0.2538    0.7704 H       1  UNL1        0.0836
@<TRIPOS>BOND
     1     1     2    1
     2     2     3   ar
     3     3     4   ar
     4     4     5   ar
     5     5     6    1
     6     6     7   am
     7     7     8    2
     8     7     9   am
     9     9    10    1
    10    10    11    1
    11    11    12    1
    12    12    13    1
    13    12    14    1
    14    12    15    1
    15    15    16    1
    16    16    17   ar
    17    17    18   ar
    18    18    19    1
    19    19    20    1
    20    20    21    1
    21    20    22    1
    22    20    23    1
    23    18    24   ar
    24    24    25   ar
    25    25    26   ar
    26     5    27   ar
    27    27    28   ar
    28    28    29   ar
    29    29    30   ar
    30    30    31   ar
    31    31    32   ar
    32    32     2   ar
    33    30     4   ar
    34    26    10    1
    35    26    16   ar
    36     1    33    1
    37     1    34    1
    38     1    35    1
    39     3    36    1
    40     6    37    1
    41     9    38    1
    42    10    39    1
    43    11    40    1
    44    11    41    1
    45    13    42    1
    46    13    43    1
    47    13    44    1
    48    14    45    1
    49    14    46    1
    50    14    47    1
    51    17    48    1
    52    24    49    1
    53    25    50    1
    54    27    51    1
    55    28    52    1
    56    29    53    1
    57    31    54    1
