
     RDKit          3D

 39 41  0  0  0  0  0  0  0  0999 V2000
   -4.1948    1.6168    0.3524 N   0  0  0  0  0  0  0  0  0  0  0  0
   -3.4667    0.7435   -0.5391 C   0  0  0  0  0  0  0  0  0  0  0  0
   -4.0429   -0.6477   -0.4762 C   0  0  0  0  0  0  0  0  0  0  0  0
   -3.9135   -1.2834    0.8635 C   0  0  0  0  0  0  0  0  0  0  0  0
   -2.5913   -0.9309    1.4733 C   0  0  0  0  0  0  0  0  0  0  0  0
   -1.5636   -0.5321    0.4327 C   0  0  0  0  0  0  0  0  0  0  0  0
   -0.2766   -0.5234    1.0328 N   0  0  0  0  0  0  0  0  0  0  0  0
    0.8244   -0.2276    0.1702 C   0  0  1  0  0  0  0  0  0  0  0  0
    1.0563    1.0795   -0.4788 C   0  0  0  0  0  0  0  0  0  0  0  0
    1.9943    0.5837    0.5749 C   0  0  2  0  0  0  0  0  0  0  0  0
    3.3422    0.1786    0.0790 C   0  0  0  0  0  0  0  0  0  0  0  0
    4.4976    0.4207    0.8075 C   0  0  0  0  0  0  0  0  0  0  0  0
    5.7395    0.0311    0.3208 C   0  0  0  0  0  0  0  0  0  0  0  0
    5.8679   -0.6081   -0.8996 C   0  0  0  0  0  0  0  0  0  0  0  0
    4.7332   -0.8495   -1.6223 C   0  0  0  0  0  0  0  0  0  0  0  0
    3.5007   -0.4634   -1.1405 C   0  0  0  0  0  0  0  0  0  0  0  0
   -1.9769    0.7352   -0.2711 C   0  0  0  0  0  0  0  0  0  0  0  0
   -3.6303    2.4102    0.6924 H   0  0  0  0  0  0  0  0  0  0  0  0
   -5.1208    1.8862   -0.0258 H   0  0  0  0  0  0  0  0  0  0  0  0
   -3.6118    1.1202   -1.5682 H   0  0  0  0  0  0  0  0  0  0  0  0
   -3.5843   -1.3049   -1.2593 H   0  0  0  0  0  0  0  0  0  0  0  0
   -5.1356   -0.6428   -0.7313 H   0  0  0  0  0  0  0  0  0  0  0  0
   -4.7203   -0.8937    1.5268 H   0  0  0  0  0  0  0  0  0  0  0  0
   -3.9888   -2.3989    0.7950 H   0  0  0  0  0  0  0  0  0  0  0  0
   -2.2424   -1.7902    2.0810 H   0  0  0  0  0  0  0  0  0  0  0  0
   -2.7163   -0.0876    2.1947 H   0  0  0  0  0  0  0  0  0  0  0  0
   -1.5843   -1.3443   -0.3395 H   0  0  0  0  0  0  0  0  0  0  0  0
   -0.2127   -0.0664    1.9471 H   0  0  0  0  0  0  0  0  0  0  0  0
    1.0465   -1.1011   -0.5275 H   0  0  0  0  0  0  0  0  0  0  0  0
    0.4507    1.9546   -0.1819 H   0  0  0  0  0  0  0  0  0  0  0  0
    1.3960    1.1438   -1.5362 H   0  0  0  0  0  0  0  0  0  0  0  0
    2.0240    1.0823    1.5602 H   0  0  0  0  0  0  0  0  0  0  0  0
    4.3853    0.9271    1.7715 H   0  0  0  0  0  0  0  0  0  0  0  0
    6.6129    0.2363    0.9143 H   0  0  0  0  0  0  0  0  0  0  0  0
    6.8454   -0.9014   -1.2559 H   0  0  0  0  0  0  0  0  0  0  0  0
    4.8431   -1.3558   -2.5866 H   0  0  0  0  0  0  0  0  0  0  0  0
    2.6175   -0.6773   -1.7547 H   0  0  0  0  0  0  0  0  0  0  0  0
   -1.4100    0.9002   -1.1966 H   0  0  0  0  0  0  0  0  0  0  0  0
   -1.7938    1.5808    0.4122 H   0  0  0  0  0  0  0  0  0  0  0  0
  1  2  1  0
  2  3  1  0
  3  4  1  0
  4  5  1  0
  5  6  1  0
  6  7  1  0
  7  8  1  0
  8  9  1  0
  9 10  1  0
 10 11  1  0
 11 12  2  0
 12 13  1  0
 13 14  2  0
 14 15  1  0
 15 16  2  0
  6 17  1  0
 17  2  1  0
 10  8  1  0
 16 11  1  0
  1 18  1  0
  1 19  1  0
  2 20  1  0
  3 21  1  0
  3 22  1  0
  4 23  1  0
  4 24  1  0
  5 25  1  0
  5 26  1  0
  6 27  1  0
  7 28  1  0
  8 29  1  6
  9 30  1  0
  9 31  1  0
 10 32  1  1
 12 33  1  0
 13 34  1  0
 14 35  1  0
 15 36  1  0
 16 37  1  0
 17 38  1  0
 17 39  1  0
M  END
$$$$
