@<TRIPOS>MOLECULE
*****
 39 41 0 0 0
SMALL
GASTEIGER

@<TRIPOS>ATOM
      1 N          -4.1948    1.6168    0.3524 N.3     1  UNL1       -0.3272
      2 C          -3.4667    0.7435   -0.5391 C.3     1  UNL1        0.0062
      3 C          -4.0429   -0.6477   -0.4762 C.3     1  UNL1       -0.0377
      4 C          -3.9135   -1.2834    0.8635 C.3     1  UNL1       -0.0502
      5 C          -2.5913   -0.9309    1.4733 C.3     1  UNL1       -0.0374
      6 C          -1.5636   -0.5321    0.4327 C.3     1  UNL1        0.0093
      7 N          -0.2766   -0.5234    1.0328 N.3     1  UNL1       -0.3099
      8 C           0.8244   -0.2276    0.1702 C.3     1  UNL1        0.0153
      9 C           1.0563    1.0795   -0.4788 C.3     1  UNL1       -0.0287
     10 C           1.9943    0.5837    0.5749 C.3     1  UNL1        0.0010
     11 C           3.3422    0.1786    0.0790 C.ar    1  UNL1       -0.0428
     12 C           4.4976    0.4207    0.8075 C.ar    1  UNL1       -0.0583
     13 C           5.7395    0.0311    0.3208 C.ar    1  UNL1       -0.0615
     14 C           5.8679   -0.6081   -0.8996 C.ar    1  UNL1       -0.0617
     15 C           4.7332   -0.8495   -1.6223 C.ar    1  UNL1       -0.0615
     16 C           3.5007   -0.4634   -1.1405 C.ar    1  UNL1       -0.0583
     17 C          -1.9769    0.7352   -0.2711 C.3     1  UNL1       -0.0223
     18 H          -3.6303    2.4102    0.6924 H       1  UNL1        0.1185
     19 H          -5.1208    1.8862   -0.0258 H       1  UNL1        0.1185
     20 H          -3.6118    1.1202   -1.5682 H       1  UNL1        0.0459
     21 H          -3.5843   -1.3049   -1.2593 H       1  UNL1        0.0280
     22 H          -5.1356   -0.6428   -0.7313 H       1  UNL1        0.0280
     23 H          -4.7203   -0.8937    1.5268 H       1  UNL1        0.0266
     24 H          -3.9888   -2.3989    0.7950 H       1  UNL1        0.0266
     25 H          -2.2424   -1.7902    2.0810 H       1  UNL1        0.0280
     26 H          -2.7163   -0.0876    2.1947 H       1  UNL1        0.0280
     27 H          -1.5843   -1.3443   -0.3395 H       1  UNL1        0.0461
     28 H          -0.2127   -0.0664    1.9471 H       1  UNL1        0.1225
     29 H           1.0465   -1.1011   -0.5275 H       1  UNL1        0.0466
     30 H           0.4507    1.9546   -0.1819 H       1  UNL1        0.0287
     31 H           1.3960    1.1438   -1.5362 H       1  UNL1        0.0287
     32 H           2.0240    1.0823    1.5602 H       1  UNL1        0.0364
     33 H           4.3853    0.9271    1.7715 H       1  UNL1        0.0620
     34 H           6.6129    0.2363    0.9143 H       1  UNL1        0.0618
     35 H           6.8454   -0.9014   -1.2559 H       1  UNL1        0.0618
     36 H           4.8431   -1.3558   -2.5866 H       1  UNL1        0.0618
     37 H           2.6175   -0.6773   -1.7547 H       1  UNL1        0.0620
     38 H          -1.4100    0.9002   -1.1966 H       1  UNL1        0.0295
     39 H          -1.7938    1.5808    0.4122 H       1  UNL1        0.0295
@<TRIPOS>BOND
     1     1     2    1
     2     2     3    1
     3     3     4    1
     4     4     5    1
     5     5     6    1
     6     6     7    1
     7     7     8    1
     8     8     9    1
     9     9    10    1
    10    10    11    1
    11    11    12   ar
    12    12    13   ar
    13    13    14   ar
    14    14    15   ar
    15    15    16   ar
    16     6    17    1
    17    17     2    1
    18    10     8    1
    19    16    11   ar
    20     1    18    1
    21     1    19    1
    22     2    20    1
    23     3    21    1
    24     3    22    1
    25     4    23    1
    26     4    24    1
    27     5    25    1
    28     5    26    1
    29     6    27    1
    30     7    28    1
    31     8    29    1
    32     9    30    1
    33     9    31    1
    34    10    32    1
    35    12    33    1
    36    13    34    1
    37    14    35    1
    38    15    36    1
    39    16    37    1
    40    17    38    1
    41    17    39    1
