@<TRIPOS>MOLECULE
*****
 46 48 0 0 0
SMALL
GASTEIGER

@<TRIPOS>ATOM
      1 C          -3.6648   -1.0877   -1.5557 C.3     1  UNL1       -0.0265
      2 C          -3.5231   -0.2592   -0.2595 C.3     1  UNL1        0.1117
      3 C          -4.5147    0.9085   -0.4971 C.3     1  UNL1        0.0352
      4 N          -5.8100    0.3226   -0.5681 N.3     1  UNL1       -0.3049
      5 C          -6.2954   -0.2152    0.6738 C.3     1  UNL1       -0.0129
      6 C          -6.7824    1.1118   -1.2704 C.3     1  UNL1       -0.0129
      7 O          -2.2513    0.1362   -0.1557 O.3     1  UNL1       -0.4701
      8 C          -1.2364   -0.1250    0.6746 C.ar    1  UNL1        0.2538
      9 N          -0.0646    0.5561    0.3940 N.ar    1  UNL1       -0.1938
     10 C           1.0415    0.4206    1.1101 C.ar    1  UNL1        0.1461
     11 N           2.2090    1.1308    0.7749 N.pl3   1  UNL1       -0.2831
     12 C           3.3482    0.4706    0.2609 C.ar    1  UNL1        0.1245
     13 C           4.4583    1.2732    0.0051 C.ar    1  UNL1       -0.0138
     14 C           5.6141    0.7309   -0.4689 C.ar    1  UNL1       -0.0118
     15 C           6.7152    1.5207   -0.7127 C.ar    1  UNL1       -0.0538
     16 C           7.9001    1.0157   -1.1814 C.ar    1  UNL1       -0.0598
     17 C           7.9574   -0.3433   -1.4068 C.ar    1  UNL1       -0.0427
     18 C           6.8594   -1.1555   -1.1675 C.ar    1  UNL1        0.0501
     19 CL          6.9801   -2.8723   -1.4671 Cl      1  UNL1       -0.0829
     20 C           5.6740   -0.6290   -0.6956 C.ar    1  UNL1        0.0187
     21 C           4.5791   -1.4160   -0.4442 C.ar    1  UNL1        0.0388
     22 N           3.4369   -0.8358    0.0321 N.ar    1  UNL1       -0.2395
     23 C           1.0454   -0.4446    2.2020 C.ar    1  UNL1        0.0693
     24 N          -0.0762   -1.0991    2.4740 N.ar    1  UNL1       -0.2364
     25 C          -1.2126   -0.9554    1.7327 C.ar    1  UNL1        0.2019
     26 C          -2.3532   -1.7498    2.1499 C.1     1  UNL1        0.1246
     27 N          -3.2420   -2.3715    2.4809 N.1     1  UNL1       -0.1891
     28 H          -3.5718   -2.1492   -1.2467 H       1  UNL1        0.0266
     29 H          -4.6335   -0.9229   -2.0386 H       1  UNL1        0.0266
     30 H          -2.8247   -0.8572   -2.2167 H       1  UNL1        0.0266
     31 H          -3.9977   -0.8569    0.5224 H       1  UNL1        0.0743
     32 H          -4.3559    1.6073    0.3299 H       1  UNL1        0.0462
     33 H          -4.2737    1.4298   -1.4412 H       1  UNL1        0.0462
     34 H          -6.4953   -1.2975    0.5226 H       1  UNL1        0.0391
     35 H          -5.5958   -0.1301    1.5222 H       1  UNL1        0.0391
     36 H          -7.2735    0.2368    0.9736 H       1  UNL1        0.0391
     37 H          -7.4833    1.6518   -0.5970 H       1  UNL1        0.0391
     38 H          -7.4045    0.4150   -1.8810 H       1  UNL1        0.0391
     39 H          -6.3552    1.8250   -1.9873 H       1  UNL1        0.0391
     40 H           2.1875    2.1786    0.9261 H       1  UNL1        0.1550
     41 H           4.4208    2.3386    0.1784 H       1  UNL1        0.0658
     42 H           6.6482    2.5999   -0.5260 H       1  UNL1        0.0624
     43 H           8.7405    1.6585   -1.3591 H       1  UNL1        0.0618
     44 H           8.9036   -0.7251   -1.7782 H       1  UNL1        0.0632
     45 H           4.6354   -2.4798   -0.6237 H       1  UNL1        0.0837
     46 H           1.9367   -0.5607    2.7780 H       1  UNL1        0.0865
@<TRIPOS>BOND
     1     1     2    1
     2     2     3    1
     3     3     4    1
     4     4     5    1
     5     4     6    1
     6     2     7    1
     7     7     8    1
     8     8     9   ar
     9     9    10   ar
    10    10    11    1
    11    11    12    1
    12    12    13   ar
    13    13    14   ar
    14    14    15   ar
    15    15    16   ar
    16    16    17   ar
    17    17    18   ar
    18    18    19    1
    19    18    20   ar
    20    20    21   ar
    21    21    22   ar
    22    10    23   ar
    23    23    24   ar
    24    24    25   ar
    25    25    26    1
    26    26    27    3
    27    25     8   ar
    28    22    12   ar
    29    20    14   ar
    30     1    28    1
    31     1    29    1
    32     1    30    1
    33     2    31    1
    34     3    32    1
    35     3    33    1
    36     5    34    1
    37     5    35    1
    38     5    36    1
    39     6    37    1
    40     6    38    1
    41     6    39    1
    42    11    40    1
    43    13    41    1
    44    15    42    1
    45    16    43    1
    46    17    44    1
    47    21    45    1
    48    23    46    1
