
     RDKit          3D

 46 48  0  0  0  0  0  0  0  0999 V2000
   -3.6648   -1.0877   -1.5557 C   0  0  0  0  0  0  0  0  0  0  0  0
   -3.5231   -0.2592   -0.2595 C   0  0  2  0  0  0  0  0  0  0  0  0
   -4.5147    0.9085   -0.4971 C   0  0  0  0  0  0  0  0  0  0  0  0
   -5.8100    0.3226   -0.5681 N   0  0  0  0  0  0  0  0  0  0  0  0
   -6.2954   -0.2152    0.6738 C   0  0  0  0  0  0  0  0  0  0  0  0
   -6.7824    1.1118   -1.2704 C   0  0  0  0  0  0  0  0  0  0  0  0
   -2.2513    0.1362   -0.1557 O   0  0  0  0  0  0  0  0  0  0  0  0
   -1.2364   -0.1250    0.6746 C   0  0  0  0  0  0  0  0  0  0  0  0
   -0.0646    0.5561    0.3940 N   0  0  0  0  0  0  0  0  0  0  0  0
    1.0415    0.4206    1.1101 C   0  0  0  0  0  0  0  0  0  0  0  0
    2.2090    1.1308    0.7749 N   0  0  0  0  0  0  0  0  0  0  0  0
    3.3482    0.4706    0.2609 C   0  0  0  0  0  0  0  0  0  0  0  0
    4.4583    1.2732    0.0051 C   0  0  0  0  0  0  0  0  0  0  0  0
    5.6141    0.7309   -0.4689 C   0  0  0  0  0  0  0  0  0  0  0  0
    6.7152    1.5207   -0.7127 C   0  0  0  0  0  0  0  0  0  0  0  0
    7.9001    1.0157   -1.1814 C   0  0  0  0  0  0  0  0  0  0  0  0
    7.9574   -0.3433   -1.4068 C   0  0  0  0  0  0  0  0  0  0  0  0
    6.8594   -1.1555   -1.1675 C   0  0  0  0  0  0  0  0  0  0  0  0
    6.9801   -2.8723   -1.4671 Cl  0  0  0  0  0  0  0  0  0  0  0  0
    5.6740   -0.6290   -0.6956 C   0  0  0  0  0  0  0  0  0  0  0  0
    4.5791   -1.4160   -0.4442 C   0  0  0  0  0  0  0  0  0  0  0  0
    3.4369   -0.8358    0.0321 N   0  0  0  0  0  0  0  0  0  0  0  0
    1.0454   -0.4446    2.2020 C   0  0  0  0  0  0  0  0  0  0  0  0
   -0.0762   -1.0991    2.4740 N   0  0  0  0  0  0  0  0  0  0  0  0
   -1.2126   -0.9554    1.7327 C   0  0  0  0  0  0  0  0  0  0  0  0
   -2.3532   -1.7498    2.1499 C   0  0  0  0  0  0  0  0  0  0  0  0
   -3.2420   -2.3715    2.4809 N   0  0  0  0  0  0  0  0  0  0  0  0
   -3.5718   -2.1492   -1.2467 H   0  0  0  0  0  0  0  0  0  0  0  0
   -4.6335   -0.9229   -2.0386 H   0  0  0  0  0  0  0  0  0  0  0  0
   -2.8247   -0.8572   -2.2167 H   0  0  0  0  0  0  0  0  0  0  0  0
   -3.9977   -0.8569    0.5224 H   0  0  0  0  0  0  0  0  0  0  0  0
   -4.3559    1.6073    0.3299 H   0  0  0  0  0  0  0  0  0  0  0  0
   -4.2737    1.4298   -1.4412 H   0  0  0  0  0  0  0  0  0  0  0  0
   -6.4953   -1.2975    0.5226 H   0  0  0  0  0  0  0  0  0  0  0  0
   -5.5958   -0.1301    1.5222 H   0  0  0  0  0  0  0  0  0  0  0  0
   -7.2735    0.2368    0.9736 H   0  0  0  0  0  0  0  0  0  0  0  0
   -7.4833    1.6518   -0.5970 H   0  0  0  0  0  0  0  0  0  0  0  0
   -7.4045    0.4150   -1.8810 H   0  0  0  0  0  0  0  0  0  0  0  0
   -6.3552    1.8250   -1.9873 H   0  0  0  0  0  0  0  0  0  0  0  0
    2.1875    2.1786    0.9261 H   0  0  0  0  0  0  0  0  0  0  0  0
    4.4208    2.3386    0.1784 H   0  0  0  0  0  0  0  0  0  0  0  0
    6.6482    2.5999   -0.5260 H   0  0  0  0  0  0  0  0  0  0  0  0
    8.7405    1.6585   -1.3591 H   0  0  0  0  0  0  0  0  0  0  0  0
    8.9036   -0.7251   -1.7782 H   0  0  0  0  0  0  0  0  0  0  0  0
    4.6354   -2.4798   -0.6237 H   0  0  0  0  0  0  0  0  0  0  0  0
    1.9367   -0.5607    2.7780 H   0  0  0  0  0  0  0  0  0  0  0  0
  1  2  1  0
  2  3  1  0
  3  4  1  0
  4  5  1  0
  4  6  1  0
  2  7  1  0
  7  8  1  0
  8  9  2  0
  9 10  1  0
 10 11  1  0
 11 12  1  0
 12 13  2  0
 13 14  1  0
 14 15  2  0
 15 16  1  0
 16 17  2  0
 17 18  1  0
 18 19  1  0
 18 20  2  0
 20 21  1  0
 21 22  2  0
 10 23  2  0
 23 24  1  0
 24 25  2  0
 25 26  1  0
 26 27  3  0
 25  8  1  0
 22 12  1  0
 20 14  1  0
  1 28  1  0
  1 29  1  0
  1 30  1  0
  2 31  1  1
  3 32  1  0
  3 33  1  0
  5 34  1  0
  5 35  1  0
  5 36  1  0
  6 37  1  0
  6 38  1  0
  6 39  1  0
 11 40  1  0
 13 41  1  0
 15 42  1  0
 16 43  1  0
 17 44  1  0
 21 45  1  0
 23 46  1  0
M  END
$$$$
