@<TRIPOS>MOLECULE
*****
 107 112 0 0 0
SMALL
GASTEIGER

@<TRIPOS>ATOM
      1 C           5.6337    2.4098    2.0733 C.3     1  UNL1        0.0788
      2 O           4.8120    1.3187    1.6852 O.3     1  UNL1       -0.4950
      3 C           5.3739    0.3774    0.8264 C.ar    1  UNL1        0.1226
      4 C           4.6156   -0.7182    0.4066 C.ar    1  UNL1        0.0013
      5 C           5.1100   -1.6770   -0.4374 C.ar    1  UNL1        0.0366
      6 N           4.3574   -2.7731   -0.9004 N.pl3   1  UNL1       -0.2992
      7 C           3.0833   -2.7141   -1.4794 C.ar    1  UNL1        0.1264
      8 C           2.4198   -1.5329   -1.6845 C.ar    1  UNL1        0.0208
      9 C           1.1511   -1.4914   -2.2874 C.ar    1  UNL1        0.1332
     10 O           0.5430   -0.2419   -2.4545 O.3     1  UNL1       -0.4553
     11 C          -0.4620    0.0790   -1.5372 C.ar    1  UNL1        0.1362
     12 C          -0.8303   -0.8079   -0.5482 C.ar    1  UNL1       -0.0170
     13 C          -1.8372   -0.4478    0.3371 C.ar    1  UNL1       -0.0364
     14 C          -2.4870    0.7467    0.2806 C.ar    1  UNL1        0.0427
     15 N          -3.5367    1.0802    1.1695 N.am    1  UNL1       -0.2686
     16 C          -4.8657    0.7489    0.8131 C.2     1  UNL1        0.3082
     17 O          -5.0606    0.1511   -0.2989 O.2     1  UNL1       -0.2521
     18 N          -5.9854    1.0357    1.6034 N.am    1  UNL1       -0.2660
     19 C          -7.3168    0.6935    1.2363 C.ar    1  UNL1        0.0789
     20 C          -7.9054   -0.4906    1.6117 C.ar    1  UNL1       -0.0330
     21 C          -9.2140   -0.7989    1.2201 C.ar    1  UNL1       -0.0382
     22 C          -9.7652   -2.0880    1.6706 C.3     1  UNL1       -0.0126
     23 C          -9.4548   -3.1830    0.6692 C.3     1  UNL1       -0.0560
     24 C         -11.2471   -2.0629    1.9324 C.3     1  UNL1       -0.0560
     25 C          -9.1067   -2.4455    3.0061 C.3     1  UNL1       -0.0560
     26 C          -9.8857    0.1207    0.4507 C.ar    1  UNL1       -0.0320
     27 C          -9.3248    1.3279    0.0516 C.ar    1  UNL1        0.0913
     28 N         -10.0409    2.2692   -0.7500 N.pl3   1  UNL1       -0.2173
     29 S         -11.5942    1.8939   -1.4106 S.O2    1  UNL1        0.0404
     30 C         -12.7624    1.5738   -0.1224 C.3     1  UNL1        0.0736
     31 O         -11.5218    0.7456   -2.3827 O.2     1  UNL1       -0.1555
     32 O         -12.0363    3.0953   -2.2300 O.2     1  UNL1       -0.1555
     33 C          -8.0335    1.5772    0.4668 C.ar    1  UNL1        0.1634
     34 O          -7.4587    2.7715    0.0793 O.3     1  UNL1       -0.4914
     35 C          -6.7429    2.8500   -1.1453 C.3     1  UNL1        0.0790
     36 C          -2.1132    1.6412   -0.7157 C.ar    1  UNL1        0.0069
     37 C          -2.7706    2.8583   -0.7673 C.ar    1  UNL1       -0.0521
     38 C          -2.4306    3.7727   -1.7327 C.ar    1  UNL1       -0.0611
     39 C          -1.4232    3.4394   -2.6374 C.ar    1  UNL1       -0.0611
     40 C          -0.7757    2.2262   -2.5763 C.ar    1  UNL1       -0.0505
     41 C          -1.1184    1.3063   -1.6044 C.ar    1  UNL1        0.0262
     42 C           0.5429   -2.6425   -2.6888 C.ar    1  UNL1       -0.0011
     43 C           1.2285   -3.8222   -2.4724 C.ar    1  UNL1        0.0332
     44 N           2.4408   -3.8544   -1.8949 N.ar    1  UNL1       -0.2400
     45 C           6.4346   -1.5043   -0.8655 C.ar    1  UNL1       -0.0282
     46 C           7.2168   -0.4351   -0.4724 C.ar    1  UNL1        0.0419
     47 C           8.5797   -0.3327   -0.9677 C.2     1  UNL1        0.2443
     48 O           8.9905   -1.2140   -1.7784 O.2     1  UNL1       -0.2702
     49 N           9.4867    0.6880   -0.6063 N.am    1  UNL1       -0.3101
     50 C          10.8434    0.7505   -1.1278 C.3     1  UNL1        0.0247
     51 C          11.6575   -0.4575   -0.7910 C.3     1  UNL1        0.0146
     52 N          11.7687   -0.6147    0.6470 N.3     1  UNL1       -0.2965
     53 C          12.5100   -1.8255    0.9315 C.3     1  UNL1        0.0225
     54 C          13.9975   -1.6494    0.9385 C.3     1  UNL1        0.0604
     55 O          14.4551   -0.5732    0.2165 O.3     1  UNL1       -0.3772
     56 C          13.8922    0.6252    0.5967 C.3     1  UNL1        0.0604
     57 C          12.5234    0.4898    1.2140 C.3     1  UNL1        0.0225
     58 C           6.6934    0.5166    0.3777 C.ar    1  UNL1       -0.0077
     59 H           5.0695    3.2070    2.6041 H       1  UNL1        0.0660
     60 H           6.4826    1.9967    2.6405 H       1  UNL1        0.0660
     61 H           6.0366    2.9309    1.1535 H       1  UNL1        0.0660
     62 H           3.5888   -0.8036    0.7951 H       1  UNL1        0.0673
     63 H           4.8045   -3.7329   -0.7969 H       1  UNL1        0.1536
     64 H           2.8780   -0.6039   -1.3921 H       1  UNL1        0.0689
     65 H          -0.3268   -1.7679   -0.4830 H       1  UNL1        0.0655
     66 H          -2.1088   -1.1619    1.1054 H       1  UNL1        0.0637
     67 H          -3.3220    1.5543    2.0572 H       1  UNL1        0.1564
     68 H          -5.8415    1.5247    2.5057 H       1  UNL1        0.1565
     69 H          -7.3582   -1.1942    2.2143 H       1  UNL1        0.0640
     70 H          -9.7525   -2.8142   -0.3206 H       1  UNL1        0.0238
     71 H         -10.0375   -4.1116    0.9146 H       1  UNL1        0.0238
     72 H          -8.3693   -3.4071    0.6028 H       1  UNL1        0.0238
     73 H         -11.8513   -1.5883    1.1574 H       1  UNL1        0.0238
     74 H         -11.5629   -3.1477    1.9547 H       1  UNL1        0.0238
     75 H         -11.4059   -1.5906    2.9322 H       1  UNL1        0.0238
     76 H          -9.7991   -3.1429    3.5566 H       1  UNL1        0.0238
     77 H          -8.1571   -2.9618    2.8461 H       1  UNL1        0.0238
     78 H          -9.0328   -1.5084    3.5910 H       1  UNL1        0.0238
     79 H         -10.9036   -0.1141    0.1424 H       1  UNL1        0.0641
     80 H          -9.5810    3.1907   -0.9151 H       1  UNL1        0.1734
     81 H         -12.3127    1.7156    0.8916 H       1  UNL1        0.0482
     82 H         -13.1726    0.5490   -0.1993 H       1  UNL1        0.0482
     83 H         -13.6417    2.2666   -0.2520 H       1  UNL1        0.0482
     84 H          -5.7066    3.2074   -1.0036 H       1  UNL1        0.0660
     85 H          -6.7149    1.8738   -1.6812 H       1  UNL1        0.0660
     86 H          -7.3184    3.5651   -1.8011 H       1  UNL1        0.0660
     87 H          -3.5406    3.0661   -0.0383 H       1  UNL1        0.0624
     88 H          -2.9583    4.7148   -1.7522 H       1  UNL1        0.0618
     89 H          -1.1982    4.2038   -3.3793 H       1  UNL1        0.0618
     90 H          -0.0117    1.9894   -3.2734 H       1  UNL1        0.0625
     91 H          -0.4238   -2.5763   -3.1459 H       1  UNL1        0.0669
     92 H           0.7679   -4.7424   -2.7803 H       1  UNL1        0.0831
     93 H           6.8104   -2.2746   -1.5326 H       1  UNL1        0.0644
     94 H           9.1645    1.4205    0.0596 H       1  UNL1        0.1490
     95 H          10.8475    0.8376   -2.2504 H       1  UNL1        0.0475
     96 H          11.3286    1.6816   -0.7750 H       1  UNL1        0.0475
     97 H          12.6717   -0.2807   -1.2560 H       1  UNL1        0.0442
     98 H          11.2423   -1.3527   -1.2596 H       1  UNL1        0.0442
     99 H          12.1747   -2.6301    0.2245 H       1  UNL1        0.0449
    100 H          12.1730   -2.1865    1.9480 H       1  UNL1        0.0449
    101 H          14.4415   -2.5754    0.4927 H       1  UNL1        0.0572
    102 H          14.4033   -1.5438    1.9823 H       1  UNL1        0.0572
    103 H          14.5802    1.1339    1.3169 H       1  UNL1        0.0572
    104 H          13.8230    1.2973   -0.2988 H       1  UNL1        0.0572
    105 H          12.0202    1.4626    1.1237 H       1  UNL1        0.0449
    106 H          12.5718    0.2720    2.3211 H       1  UNL1        0.0449
    107 H           7.2758    1.3712    0.7081 H       1  UNL1        0.0662
@<TRIPOS>BOND
     1     1     2    1
     2     2     3    1
     3     3     4   ar
     4     4     5   ar
     5     5     6    1
     6     6     7    1
     7     7     8   ar
     8     8     9   ar
     9     9    10    1
    10    10    11    1
    11    11    12   ar
    12    12    13   ar
    13    13    14   ar
    14    14    15    1
    15    15    16   am
    16    16    17    2
    17    16    18   am
    18    18    19    1
    19    19    20   ar
    20    20    21   ar
    21    21    22    1
    22    22    23    1
    23    22    24    1
    24    22    25    1
    25    21    26   ar
    26    26    27   ar
    27    27    28    1
    28    28    29    1
    29    29    30    1
    30    29    31    2
    31    29    32    2
    32    27    33   ar
    33    33    34    1
    34    34    35    1
    35    14    36   ar
    36    36    37   ar
    37    37    38   ar
    38    38    39   ar
    39    39    40   ar
    40    40    41   ar
    41     9    42   ar
    42    42    43   ar
    43    43    44   ar
    44     5    45   ar
    45    45    46   ar
    46    46    47    1
    47    47    48    2
    48    47    49   am
    49    49    50    1
    50    50    51    1
    51    51    52    1
    52    52    53    1
    53    53    54    1
    54    54    55    1
    55    55    56    1
    56    56    57    1
    57    46    58   ar
    58    58     3   ar
    59    44     7   ar
    60    57    52    1
    61    41    11   ar
    62    33    19   ar
    63    41    36   ar
    64     1    59    1
    65     1    60    1
    66     1    61    1
    67     4    62    1
    68     6    63    1
    69     8    64    1
    70    12    65    1
    71    13    66    1
    72    15    67    1
    73    18    68    1
    74    20    69    1
    75    23    70    1
    76    23    71    1
    77    23    72    1
    78    24    73    1
    79    24    74    1
    80    24    75    1
    81    25    76    1
    82    25    77    1
    83    25    78    1
    84    26    79    1
    85    28    80    1
    86    30    81    1
    87    30    82    1
    88    30    83    1
    89    35    84    1
    90    35    85    1
    91    35    86    1
    92    37    87    1
    93    38    88    1
    94    39    89    1
    95    40    90    1
    96    42    91    1
    97    43    92    1
    98    45    93    1
    99    49    94    1
   100    50    95    1
   101    50    96    1
   102    51    97    1
   103    51    98    1
   104    53    99    1
   105    53   100    1
   106    54   101    1
   107    54   102    1
   108    56   103    1
   109    56   104    1
   110    57   105    1
   111    57   106    1
   112    58   107    1
