@<TRIPOS>MOLECULE
*****
 52 55 0 0 0
SMALL
GASTEIGER

@<TRIPOS>ATOM
      1 C          -1.3329   -0.6318   -2.3937 C.3     1  UNL1       -0.0381
      2 C          -0.9067   -0.7787   -0.9257 C.3     1  UNL1        0.0948
      3 N          -1.5544    0.1921   -0.0977 N.pl3   1  UNL1       -0.3320
      4 C          -2.9909    0.1597    0.0578 C.ar    1  UNL1        0.0461
      5 C          -3.7807   -0.7816   -0.5575 C.ar    1  UNL1       -0.0373
      6 C          -5.1669   -0.7490   -0.3575 C.ar    1  UNL1       -0.0325
      7 C          -5.7724    0.1987    0.4392 C.ar    1  UNL1        0.0889
      8 C          -7.2224    0.2052    0.6299 C.ar    1  UNL1        0.0867
      9 C          -8.1423   -0.6571    0.0916 C.ar    1  UNL1       -0.0148
     10 C          -9.3723   -0.2427    0.5655 C.ar    1  UNL1        0.0500
     11 N          -9.2069    0.8289    1.3602 N.ar    1  UNL1       -0.1793
     12 N          -7.9170    1.0755    1.3819 N.ar    1  UNL1       -0.2653
     13 C          -7.2703    2.1654    2.1280 C.3     1  UNL1        0.0309
     14 N          -4.9667    1.1008    1.0227 N.ar    1  UNL1       -0.2516
     15 C          -3.6280    1.0916    0.8464 C.ar    1  UNL1        0.0491
     16 C           0.5611   -0.7980   -0.8118 C.2     1  UNL1        0.2382
     17 O           1.2566   -1.6135   -1.5277 O.2     1  UNL1       -0.2734
     18 N           1.3562    0.0130    0.0354 N.am    1  UNL1       -0.2689
     19 C           2.7762   -0.0791    0.0762 C.ar    1  UNL1        0.1249
     20 C           3.5151    0.7127   -0.7732 C.ar    1  UNL1       -0.0209
     21 C           4.8969    0.6887   -0.8005 C.ar    1  UNL1       -0.0493
     22 C           5.5365   -0.1616    0.0577 C.ar    1  UNL1        0.0004
     23 C           6.9791   -0.2299    0.0748 C.ar    1  UNL1       -0.0164
     24 C           7.6688   -0.0116   -1.0936 C.ar    1  UNL1       -0.0540
     25 C           9.0456   -0.0734   -1.0962 C.ar    1  UNL1       -0.0612
     26 C           9.7228   -0.3577    0.0914 C.ar    1  UNL1       -0.0617
     27 C           9.0508   -0.5786    1.2679 C.ar    1  UNL1       -0.0612
     28 C           7.6816   -0.5133    1.2532 C.ar    1  UNL1       -0.0540
     29 C           4.8049   -0.9504    0.9038 C.ar    1  UNL1        0.0374
     30 N           3.4399   -0.9002    0.9030 N.ar    1  UNL1       -0.2395
     31 H          -1.5842   -1.6068   -2.7972 H       1  UNL1        0.0252
     32 H          -0.4659   -0.1476   -2.8944 H       1  UNL1        0.0252
     33 H          -2.1515    0.1222   -2.4344 H       1  UNL1        0.0252
     34 H          -1.2334   -1.8297   -0.6425 H       1  UNL1        0.0591
     35 H          -1.0012    0.9205    0.3865 H       1  UNL1        0.1468
     36 H          -3.3446   -1.5295   -1.1790 H       1  UNL1        0.0637
     37 H          -5.8184   -1.4875   -0.8361 H       1  UNL1        0.0640
     38 H          -7.9446   -1.5030   -0.5780 H       1  UNL1        0.0655
     39 H         -10.3401   -0.6862    0.3524 H       1  UNL1        0.0848
     40 H          -6.5414    1.7490    2.8738 H       1  UNL1        0.0473
     41 H          -8.0147    2.8243    2.5926 H       1  UNL1        0.0473
     42 H          -6.6556    2.7903    1.4392 H       1  UNL1        0.0473
     43 H          -2.9889    1.8432    1.3365 H       1  UNL1        0.0848
     44 H           0.9031    0.7015    0.6552 H       1  UNL1        0.1563
     45 H           3.0173    1.3918   -1.4586 H       1  UNL1        0.0652
     46 H           5.4931    1.3059   -1.4632 H       1  UNL1        0.0625
     47 H           7.1996    0.2129   -2.0448 H       1  UNL1        0.0624
     48 H           9.6074    0.0940   -2.0006 H       1  UNL1        0.0618
     49 H          10.8053   -0.4005    0.0612 H       1  UNL1        0.0618
     50 H           9.5991   -0.7956    2.1664 H       1  UNL1        0.0618
     51 H           7.0784   -0.6748    2.1376 H       1  UNL1        0.0624
     52 H           5.3201   -1.6189    1.5778 H       1  UNL1        0.0836
@<TRIPOS>BOND
     1     1     2    1
     2     2     3    1
     3     3     4    1
     4     4     5   ar
     5     5     6   ar
     6     6     7   ar
     7     7     8    1
     8     8     9   ar
     9     9    10   ar
    10    10    11   ar
    11    11    12   ar
    12    12    13    1
    13     7    14   ar
    14    14    15   ar
    15     2    16    1
    16    16    17    2
    17    16    18   am
    18    18    19    1
    19    19    20   ar
    20    20    21   ar
    21    21    22   ar
    22    22    23    1
    23    23    24   ar
    24    24    25   ar
    25    25    26   ar
    26    26    27   ar
    27    27    28   ar
    28    22    29   ar
    29    29    30   ar
    30    15     4   ar
    31    30    19   ar
    32    12     8   ar
    33    28    23   ar
    34     1    31    1
    35     1    32    1
    36     1    33    1
    37     2    34    1
    38     3    35    1
    39     5    36    1
    40     6    37    1
    41     9    38    1
    42    10    39    1
    43    13    40    1
    44    13    41    1
    45    13    42    1
    46    15    43    1
    47    18    44    1
    48    20    45    1
    49    21    46    1
    50    24    47    1
    51    25    48    1
    52    26    49    1
    53    27    50    1
    54    28    51    1
    55    29    52    1
