
     RDKit          3D

 52 55  0  0  0  0  0  0  0  0999 V2000
   -1.3329   -0.6318   -2.3937 C   0  0  0  0  0  0  0  0  0  0  0  0
   -0.9067   -0.7787   -0.9257 C   0  0  2  0  0  0  0  0  0  0  0  0
   -1.5544    0.1921   -0.0977 N   0  0  0  0  0  0  0  0  0  0  0  0
   -2.9909    0.1597    0.0578 C   0  0  0  0  0  0  0  0  0  0  0  0
   -3.7807   -0.7816   -0.5575 C   0  0  0  0  0  0  0  0  0  0  0  0
   -5.1669   -0.7490   -0.3575 C   0  0  0  0  0  0  0  0  0  0  0  0
   -5.7724    0.1987    0.4392 C   0  0  0  0  0  0  0  0  0  0  0  0
   -7.2224    0.2052    0.6299 C   0  0  0  0  0  0  0  0  0  0  0  0
   -8.1423   -0.6571    0.0916 C   0  0  0  0  0  0  0  0  0  0  0  0
   -9.3723   -0.2427    0.5655 C   0  0  0  0  0  0  0  0  0  0  0  0
   -9.2069    0.8289    1.3602 N   0  0  0  0  0  0  0  0  0  0  0  0
   -7.9170    1.0755    1.3819 N   0  0  0  0  0  0  0  0  0  0  0  0
   -7.2703    2.1654    2.1280 C   0  0  0  0  0  0  0  0  0  0  0  0
   -4.9667    1.1008    1.0227 N   0  0  0  0  0  0  0  0  0  0  0  0
   -3.6280    1.0916    0.8464 C   0  0  0  0  0  0  0  0  0  0  0  0
    0.5611   -0.7980   -0.8118 C   0  0  0  0  0  0  0  0  0  0  0  0
    1.2566   -1.6135   -1.5277 O   0  0  0  0  0  0  0  0  0  0  0  0
    1.3562    0.0130    0.0354 N   0  0  0  0  0  0  0  0  0  0  0  0
    2.7762   -0.0791    0.0762 C   0  0  0  0  0  0  0  0  0  0  0  0
    3.5151    0.7127   -0.7732 C   0  0  0  0  0  0  0  0  0  0  0  0
    4.8969    0.6887   -0.8005 C   0  0  0  0  0  0  0  0  0  0  0  0
    5.5365   -0.1616    0.0577 C   0  0  0  0  0  0  0  0  0  0  0  0
    6.9791   -0.2299    0.0748 C   0  0  0  0  0  0  0  0  0  0  0  0
    7.6688   -0.0116   -1.0936 C   0  0  0  0  0  0  0  0  0  0  0  0
    9.0456   -0.0734   -1.0962 C   0  0  0  0  0  0  0  0  0  0  0  0
    9.7228   -0.3577    0.0914 C   0  0  0  0  0  0  0  0  0  0  0  0
    9.0508   -0.5786    1.2679 C   0  0  0  0  0  0  0  0  0  0  0  0
    7.6816   -0.5133    1.2532 C   0  0  0  0  0  0  0  0  0  0  0  0
    4.8049   -0.9504    0.9038 C   0  0  0  0  0  0  0  0  0  0  0  0
    3.4399   -0.9002    0.9030 N   0  0  0  0  0  0  0  0  0  0  0  0
   -1.5842   -1.6068   -2.7972 H   0  0  0  0  0  0  0  0  0  0  0  0
   -0.4659   -0.1476   -2.8944 H   0  0  0  0  0  0  0  0  0  0  0  0
   -2.1515    0.1222   -2.4344 H   0  0  0  0  0  0  0  0  0  0  0  0
   -1.2334   -1.8297   -0.6425 H   0  0  0  0  0  0  0  0  0  0  0  0
   -1.0012    0.9205    0.3865 H   0  0  0  0  0  0  0  0  0  0  0  0
   -3.3446   -1.5295   -1.1790 H   0  0  0  0  0  0  0  0  0  0  0  0
   -5.8184   -1.4875   -0.8361 H   0  0  0  0  0  0  0  0  0  0  0  0
   -7.9446   -1.5030   -0.5780 H   0  0  0  0  0  0  0  0  0  0  0  0
  -10.3401   -0.6862    0.3524 H   0  0  0  0  0  0  0  0  0  0  0  0
   -6.5414    1.7490    2.8738 H   0  0  0  0  0  0  0  0  0  0  0  0
   -8.0147    2.8243    2.5926 H   0  0  0  0  0  0  0  0  0  0  0  0
   -6.6556    2.7903    1.4392 H   0  0  0  0  0  0  0  0  0  0  0  0
   -2.9889    1.8432    1.3365 H   0  0  0  0  0  0  0  0  0  0  0  0
    0.9031    0.7015    0.6552 H   0  0  0  0  0  0  0  0  0  0  0  0
    3.0173    1.3918   -1.4586 H   0  0  0  0  0  0  0  0  0  0  0  0
    5.4931    1.3059   -1.4632 H   0  0  0  0  0  0  0  0  0  0  0  0
    7.1996    0.2129   -2.0448 H   0  0  0  0  0  0  0  0  0  0  0  0
    9.6074    0.0940   -2.0006 H   0  0  0  0  0  0  0  0  0  0  0  0
   10.8053   -0.4005    0.0612 H   0  0  0  0  0  0  0  0  0  0  0  0
    9.5991   -0.7956    2.1664 H   0  0  0  0  0  0  0  0  0  0  0  0
    7.0784   -0.6748    2.1376 H   0  0  0  0  0  0  0  0  0  0  0  0
    5.3201   -1.6189    1.5778 H   0  0  0  0  0  0  0  0  0  0  0  0
  1  2  1  0
  2  3  1  0
  3  4  1  0
  4  5  2  0
  5  6  1  0
  6  7  2  0
  7  8  1  0
  8  9  2  0
  9 10  1  0
 10 11  2  0
 11 12  1  0
 12 13  1  0
  7 14  1  0
 14 15  2  0
  2 16  1  0
 16 17  2  0
 16 18  1  0
 18 19  1  0
 19 20  2  0
 20 21  1  0
 21 22  2  0
 22 23  1  0
 23 24  2  0
 24 25  1  0
 25 26  2  0
 26 27  1  0
 27 28  2  0
 22 29  1  0
 29 30  2  0
 15  4  1  0
 30 19  1  0
 12  8  1  0
 28 23  1  0
  1 31  1  0
  1 32  1  0
  1 33  1  0
  2 34  1  1
  3 35  1  0
  5 36  1  0
  6 37  1  0
  9 38  1  0
 10 39  1  0
 13 40  1  0
 13 41  1  0
 13 42  1  0
 15 43  1  0
 18 44  1  0
 20 45  1  0
 21 46  1  0
 24 47  1  0
 25 48  1  0
 26 49  1  0
 27 50  1  0
 28 51  1  0
 29 52  1  0
M  END
$$$$
