
     RDKit          3D

 57 57  0  0  0  0  0  0  0  0999 V2000
    2.7703   -3.4275   -2.0751 N   0  0  0  0  0  0  0  0  0  0  0  0
    2.7983   -2.8503   -0.7513 C   0  0  1  0  0  0  0  0  0  0  0  0
    2.1758   -1.4919   -0.8330 C   0  0  0  0  0  0  0  0  0  0  0  0
    2.1895   -0.8589    0.5414 C   0  0  0  0  0  0  0  0  0  0  0  0
    1.5505    0.4904    0.3681 C   0  0  0  0  0  0  0  0  0  0  0  0
    1.2278    0.6143   -0.8528 O   0  0  0  0  0  0  0  0  0  0  0  0
    1.3731    1.4127    1.4346 N   0  0  0  0  0  0  0  0  0  0  0  0
    0.7409    2.6469    1.0602 C   0  0  1  0  0  0  0  0  0  0  0  0
   -0.5334    2.8371    1.8506 C   0  0  0  0  0  0  0  0  0  0  0  0
   -1.7353    1.5307    1.5983 S   0  0  0  0  0  0  0  0  0  0  0  0
   -2.3138    1.5862   -0.1126 C   0  0  0  0  0  0  0  0  0  0  0  0
   -3.0335    2.7169   -0.4256 O   0  0  0  0  0  0  0  0  0  0  0  0
   -3.0538    0.4260   -0.4307 O   0  0  0  0  0  0  0  0  0  0  0  0
   -2.3255   -0.2466   -1.4101 C   0  0  0  0  0  0  0  0  0  0  0  0
   -3.0012   -1.4907   -1.8276 C   0  0  0  0  0  0  0  0  0  0  0  0
   -3.9175   -1.5871   -2.8542 C   0  0  0  0  0  0  0  0  0  0  0  0
   -4.5151   -2.8059   -3.1891 C   0  0  0  0  0  0  0  0  0  0  0  0
   -4.1844   -3.9580   -2.4747 C   0  0  0  0  0  0  0  0  0  0  0  0
   -3.2663   -3.8208   -1.4577 C   0  0  0  0  0  0  0  0  0  0  0  0
   -2.6511   -2.6292   -1.0949 C   0  0  0  0  0  0  0  0  0  0  0  0
   -4.7637   -5.2259   -2.7743 N   0  0  0  0  0  4  0  0  0  0  0  0
   -4.3512   -6.2803   -1.9937 O   0  0  0  0  0  1  0  0  0  0  0  0
   -5.5897   -5.3082   -3.7019 O   0  0  0  0  0  0  0  0  0  0  0  0
    1.6151    3.8262    1.3769 C   0  0  0  0  0  0  0  0  0  0  0  0
    1.1812    4.9933    1.0976 O   0  0  0  0  0  0  0  0  0  0  0  0
    2.9012    3.6193    1.9781 N   0  0  0  0  0  0  0  0  0  0  0  0
    3.7735    4.7398    2.2983 C   0  0  0  0  0  0  0  0  0  0  0  0
    3.0551    5.6061    3.2514 C   0  0  0  0  0  0  0  0  0  0  0  0
    3.5088    6.7774    3.8184 O   0  0  0  0  0  0  0  0  0  0  0  0
    1.8868    5.2869    3.6257 O   0  0  0  0  0  0  0  0  0  0  0  0
    1.9308   -3.6826    0.1388 C   0  0  0  0  0  0  0  0  0  0  0  0
    1.1800   -4.3361    1.0762 O   0  0  0  0  0  0  0  0  0  0  0  0
    1.5340   -4.5479   -0.6665 O   0  0  0  0  0  0  0  0  0  0  0  0
    3.3631   -2.9384   -2.7529 H   0  0  0  0  0  0  0  0  0  0  0  0
    2.8872   -4.4446   -2.0302 H   0  0  0  0  0  0  0  0  0  0  0  0
    3.8208   -2.7679   -0.3862 H   0  0  0  0  0  0  0  0  0  0  0  0
    1.1180   -1.5220   -1.1776 H   0  0  0  0  0  0  0  0  0  0  0  0
    2.7361   -0.8039   -1.5079 H   0  0  0  0  0  0  0  0  0  0  0  0
    1.5700   -1.4424    1.2648 H   0  0  0  0  0  0  0  0  0  0  0  0
    3.2178   -0.7041    0.9103 H   0  0  0  0  0  0  0  0  0  0  0  0
    1.6958    1.1577    2.3884 H   0  0  0  0  0  0  0  0  0  0  0  0
    0.4967    2.6653   -0.0003 H   0  0  0  0  0  0  0  0  0  0  0  0
   -0.9326    3.8434    1.5387 H   0  0  0  0  0  0  0  0  0  0  0  0
   -0.2946    2.9692    2.9371 H   0  0  0  0  0  0  0  0  0  0  0  0
   -1.3959    1.5581   -0.7633 H   0  0  0  0  0  0  0  0  0  0  0  0
   -3.7304    2.8531    0.2564 H   0  0  0  0  0  0  0  0  0  0  0  0
   -1.3132   -0.4244   -1.0104 H   0  0  0  0  0  0  0  0  0  0  0  0
   -2.2722    0.4796   -2.2734 H   0  0  0  0  0  0  0  0  0  0  0  0
   -4.1654   -0.6956   -3.3980 H   0  0  0  0  0  0  0  0  0  0  0  0
   -5.2229   -2.9040   -3.9750 H   0  0  0  0  0  0  0  0  0  0  0  0
   -2.9864   -4.7011   -0.8804 H   0  0  0  0  0  0  0  0  0  0  0  0
   -1.9404   -2.5937   -0.2874 H   0  0  0  0  0  0  0  0  0  0  0  0
    3.1596    2.6171    2.1656 H   0  0  0  0  0  0  0  0  0  0  0  0
    4.6850    4.2946    2.7750 H   0  0  0  0  0  0  0  0  0  0  0  0
    4.1256    5.2719    1.4033 H   0  0  0  0  0  0  0  0  0  0  0  0
    2.9131    7.6008    3.9497 H   0  0  0  0  0  0  0  0  0  0  0  0
    0.3076   -3.9309    1.3899 H   0  0  0  0  0  0  0  0  0  0  0  0
  1  2  1  0
  2  3  1  0
  3  4  1  0
  4  5  1  0
  5  6  2  0
  5  7  1  0
  7  8  1  0
  8  9  1  0
  9 10  1  0
 10 11  1  0
 11 12  1  0
 11 13  1  0
 13 14  1  0
 14 15  1  0
 15 16  2  0
 16 17  1  0
 17 18  2  0
 18 19  1  0
 19 20  2  0
 18 21  1  0
 21 22  1  0
 21 23  2  0
  8 24  1  0
 24 25  2  0
 24 26  1  0
 26 27  1  0
 27 28  1  0
 28 29  1  0
 28 30  2  0
  2 31  1  0
 31 32  1  0
 31 33  2  0
 20 15  1  0
  1 34  1  0
  1 35  1  0
  2 36  1  1
  3 37  1  0
  3 38  1  0
  4 39  1  0
  4 40  1  0
  7 41  1  0
  8 42  1  6
  9 43  1  0
  9 44  1  0
 11 45  1  0
 12 46  1  0
 14 47  1  0
 14 48  1  0
 16 49  1  0
 17 50  1  0
 19 51  1  0
 20 52  1  0
 26 53  1  0
 27 54  1  0
 27 55  1  0
 29 56  1  0
 32 57  1  0
M  CHG  2  21   1  22  -1
M  END
$$$$
