@<TRIPOS>MOLECULE
*****
 69 74 0 0 0
SMALL
GASTEIGER

@<TRIPOS>ATOM
      1 C          -2.4631   -6.1881    0.6537 C.3     1  UNL1       -0.0649
      2 C          -1.2985   -5.2924    0.3520 C.3     1  UNL1       -0.0491
      3 C          -1.3752   -3.9940    1.1293 C.3     1  UNL1        0.0054
      4 C          -0.2055   -3.1353    0.8035 C.ar    1  UNL1        0.1111
      5 N           0.7467   -3.5077   -0.0698 N.ar    1  UNL1       -0.2320
      6 C           1.6751   -2.5319   -0.1536 C.ar    1  UNL1        0.0922
      7 C           2.8311   -2.4537   -0.9077 C.ar    1  UNL1       -0.0223
      8 C           3.2817   -3.5210   -1.8322 C.3     1  UNL1       -0.0376
      9 C           3.6032   -1.3253   -0.7932 C.ar    1  UNL1       -0.0460
     10 C           3.2106   -0.3160    0.0580 C.ar    1  UNL1        0.0198
     11 C           4.0362    0.9051    0.1889 C.ar    1  UNL1        0.1417
     12 N           4.3213    1.5515    1.3334 N.ar    1  UNL1       -0.2275
     13 C           5.1013    2.6280    1.0801 C.ar    1  UNL1        0.0896
     14 C           5.6670    3.6102    1.8814 C.ar    1  UNL1       -0.0342
     15 C           6.4373    4.6114    1.3277 C.ar    1  UNL1       -0.0596
     16 C           6.6612    4.6562   -0.0381 C.ar    1  UNL1       -0.0597
     17 C           6.0869    3.6681   -0.8079 C.ar    1  UNL1       -0.0361
     18 C           5.3100    2.6522   -0.2794 C.ar    1  UNL1        0.0688
     19 N           4.6512    1.5951   -0.7881 N.ar    1  UNL1       -0.3267
     20 C           4.6248    1.2691   -2.1969 C.3     1  UNL1        0.0138
     21 C           2.0513   -0.4252    0.7965 C.ar    1  UNL1       -0.0254
     22 C           1.2572   -1.5437    0.7025 C.ar    1  UNL1        0.0700
     23 N           0.0967   -1.9231    1.2889 N.ar    1  UNL1       -0.3231
     24 C          -0.6718   -1.1722    2.2552 C.3     1  UNL1        0.0500
     25 C          -1.6910   -0.2903    1.6617 C.ar    1  UNL1       -0.0277
     26 C          -2.9901   -0.7232    1.5439 C.ar    1  UNL1       -0.0563
     27 C          -3.9805    0.0812    0.9832 C.ar    1  UNL1       -0.0537
     28 C          -3.6919    1.3442    0.5249 C.ar    1  UNL1       -0.0171
     29 C          -4.7049    2.2318   -0.0886 C.ar    1  UNL1       -0.0039
     30 C          -5.0100    3.4373    0.5578 C.ar    1  UNL1       -0.0532
     31 C          -5.9725    4.2964    0.0937 C.ar    1  UNL1       -0.0611
     32 C          -6.6821    3.9804   -1.0556 C.ar    1  UNL1       -0.0609
     33 C          -6.3862    2.8118   -1.6841 C.ar    1  UNL1       -0.0472
     34 C          -5.3984    1.9243   -1.2147 C.ar    1  UNL1        0.0665
     35 C          -5.0976    0.7252   -1.9715 C.2     1  UNL1        0.3374
     36 O          -4.1890   -0.0435   -1.6517 O.2     1  UNL1       -0.2451
     37 O          -5.8620    0.4335   -3.0975 O.3     1  UNL1       -0.4771
     38 C          -2.3793    1.7781    0.6460 C.ar    1  UNL1       -0.0537
     39 C          -1.4124    0.9717    1.2023 C.ar    1  UNL1       -0.0563
     40 H          -3.2501   -6.1584   -0.1241 H       1  UNL1        0.0230
     41 H          -2.0996   -7.2233    0.7611 H       1  UNL1        0.0230
     42 H          -2.8787   -5.8622    1.6387 H       1  UNL1        0.0230
     43 H          -1.3476   -4.9967   -0.7334 H       1  UNL1        0.0267
     44 H          -0.3357   -5.8161    0.4845 H       1  UNL1        0.0267
     45 H          -1.5559   -4.1200    2.1938 H       1  UNL1        0.0343
     46 H          -2.2565   -3.4504    0.6728 H       1  UNL1        0.0343
     47 H           3.8868   -3.0505   -2.6575 H       1  UNL1        0.0278
     48 H           2.4345   -4.0854   -2.2709 H       1  UNL1        0.0278
     49 H           3.9900   -4.1823   -1.2870 H       1  UNL1        0.0278
     50 H           4.5135   -1.2331   -1.3695 H       1  UNL1        0.0628
     51 H           5.4817    3.5626    2.9603 H       1  UNL1        0.0639
     52 H           6.8875    5.3909    1.9550 H       1  UNL1        0.0618
     53 H           7.2736    5.4573   -0.4536 H       1  UNL1        0.0618
     54 H           6.2530    3.6928   -1.8632 H       1  UNL1        0.0639
     55 H           4.7159    2.2102   -2.7841 H       1  UNL1        0.0456
     56 H           3.7028    0.7451   -2.4607 H       1  UNL1        0.0456
     57 H           5.5519    0.6712   -2.3970 H       1  UNL1        0.0456
     58 H           1.7763    0.3671    1.4454 H       1  UNL1        0.0646
     59 H          -1.1092   -1.8455    3.0377 H       1  UNL1        0.0542
     60 H           0.0350   -0.5187    2.8512 H       1  UNL1        0.0542
     61 H          -3.2752   -1.6922    1.8867 H       1  UNL1        0.0621
     62 H          -4.9999   -0.2894    0.9132 H       1  UNL1        0.0624
     63 H          -4.4656    3.6814    1.4412 H       1  UNL1        0.0624
     64 H          -6.2290    5.2307    0.5699 H       1  UNL1        0.0618
     65 H          -7.4473    4.6232   -1.4573 H       1  UNL1        0.0618
     66 H          -6.9209    2.5292   -2.5882 H       1  UNL1        0.0626
     67 H          -5.9587   -0.5226   -3.4102 H       1  UNL1        0.2954
     68 H          -2.1686    2.7743    0.2811 H       1  UNL1        0.0624
     69 H          -0.3926    1.3343    1.2871 H       1  UNL1        0.0621
@<TRIPOS>BOND
     1     1     2    1
     2     2     3    1
     3     3     4    1
     4     4     5   ar
     5     5     6   ar
     6     6     7   ar
     7     7     8    1
     8     7     9   ar
     9     9    10   ar
    10    10    11    1
    11    11    12   ar
    12    12    13   ar
    13    13    14   ar
    14    14    15   ar
    15    15    16   ar
    16    16    17   ar
    17    17    18   ar
    18    18    19   ar
    19    19    20    1
    20    10    21   ar
    21    21    22   ar
    22    22    23   ar
    23    23    24    1
    24    24    25    1
    25    25    26   ar
    26    26    27   ar
    27    27    28   ar
    28    28    29    1
    29    29    30   ar
    30    30    31   ar
    31    31    32   ar
    32    32    33   ar
    33    33    34   ar
    34    34    35    1
    35    35    36    2
    36    35    37    1
    37    28    38   ar
    38    38    39   ar
    39    23     4   ar
    40    39    25   ar
    41    22     6   ar
    42    34    29   ar
    43    19    11   ar
    44    18    13   ar
    45     1    40    1
    46     1    41    1
    47     1    42    1
    48     2    43    1
    49     2    44    1
    50     3    45    1
    51     3    46    1
    52     8    47    1
    53     8    48    1
    54     8    49    1
    55     9    50    1
    56    14    51    1
    57    15    52    1
    58    16    53    1
    59    17    54    1
    60    20    55    1
    61    20    56    1
    62    20    57    1
    63    21    58    1
    64    24    59    1
    65    24    60    1
    66    26    61    1
    67    27    62    1
    68    30    63    1
    69    31    64    1
    70    32    65    1
    71    33    66    1
    72    37    67    1
    73    38    68    1
    74    39    69    1
