
     RDKit          3D

 69 74  0  0  0  0  0  0  0  0999 V2000
   -2.4631   -6.1881    0.6537 C   0  0  0  0  0  0  0  0  0  0  0  0
   -1.2985   -5.2924    0.3520 C   0  0  0  0  0  0  0  0  0  0  0  0
   -1.3752   -3.9940    1.1293 C   0  0  0  0  0  0  0  0  0  0  0  0
   -0.2055   -3.1353    0.8035 C   0  0  0  0  0  0  0  0  0  0  0  0
    0.7467   -3.5077   -0.0698 N   0  0  0  0  0  0  0  0  0  0  0  0
    1.6751   -2.5319   -0.1536 C   0  0  0  0  0  0  0  0  0  0  0  0
    2.8311   -2.4537   -0.9077 C   0  0  0  0  0  0  0  0  0  0  0  0
    3.2817   -3.5210   -1.8322 C   0  0  0  0  0  0  0  0  0  0  0  0
    3.6032   -1.3253   -0.7932 C   0  0  0  0  0  0  0  0  0  0  0  0
    3.2106   -0.3160    0.0580 C   0  0  0  0  0  0  0  0  0  0  0  0
    4.0362    0.9051    0.1889 C   0  0  0  0  0  0  0  0  0  0  0  0
    4.3213    1.5515    1.3334 N   0  0  0  0  0  0  0  0  0  0  0  0
    5.1013    2.6280    1.0801 C   0  0  0  0  0  0  0  0  0  0  0  0
    5.6670    3.6102    1.8814 C   0  0  0  0  0  0  0  0  0  0  0  0
    6.4373    4.6114    1.3277 C   0  0  0  0  0  0  0  0  0  0  0  0
    6.6612    4.6562   -0.0381 C   0  0  0  0  0  0  0  0  0  0  0  0
    6.0869    3.6681   -0.8079 C   0  0  0  0  0  0  0  0  0  0  0  0
    5.3100    2.6522   -0.2794 C   0  0  0  0  0  0  0  0  0  0  0  0
    4.6512    1.5951   -0.7881 N   0  0  0  0  0  0  0  0  0  0  0  0
    4.6248    1.2691   -2.1969 C   0  0  0  0  0  0  0  0  0  0  0  0
    2.0513   -0.4252    0.7965 C   0  0  0  0  0  0  0  0  0  0  0  0
    1.2572   -1.5437    0.7025 C   0  0  0  0  0  0  0  0  0  0  0  0
    0.0967   -1.9231    1.2889 N   0  0  0  0  0  0  0  0  0  0  0  0
   -0.6718   -1.1722    2.2552 C   0  0  0  0  0  0  0  0  0  0  0  0
   -1.6910   -0.2903    1.6617 C   0  0  0  0  0  0  0  0  0  0  0  0
   -2.9901   -0.7232    1.5439 C   0  0  0  0  0  0  0  0  0  0  0  0
   -3.9805    0.0812    0.9832 C   0  0  0  0  0  0  0  0  0  0  0  0
   -3.6919    1.3442    0.5249 C   0  0  0  0  0  0  0  0  0  0  0  0
   -4.7049    2.2318   -0.0886 C   0  0  0  0  0  0  0  0  0  0  0  0
   -5.0100    3.4373    0.5578 C   0  0  0  0  0  0  0  0  0  0  0  0
   -5.9725    4.2964    0.0937 C   0  0  0  0  0  0  0  0  0  0  0  0
   -6.6821    3.9804   -1.0556 C   0  0  0  0  0  0  0  0  0  0  0  0
   -6.3862    2.8118   -1.6841 C   0  0  0  0  0  0  0  0  0  0  0  0
   -5.3984    1.9243   -1.2147 C   0  0  0  0  0  0  0  0  0  0  0  0
   -5.0976    0.7252   -1.9715 C   0  0  0  0  0  0  0  0  0  0  0  0
   -4.1890   -0.0435   -1.6517 O   0  0  0  0  0  0  0  0  0  0  0  0
   -5.8620    0.4335   -3.0975 O   0  0  0  0  0  0  0  0  0  0  0  0
   -2.3793    1.7781    0.6460 C   0  0  0  0  0  0  0  0  0  0  0  0
   -1.4124    0.9717    1.2023 C   0  0  0  0  0  0  0  0  0  0  0  0
   -3.2501   -6.1584   -0.1241 H   0  0  0  0  0  0  0  0  0  0  0  0
   -2.0996   -7.2233    0.7611 H   0  0  0  0  0  0  0  0  0  0  0  0
   -2.8787   -5.8622    1.6387 H   0  0  0  0  0  0  0  0  0  0  0  0
   -1.3476   -4.9967   -0.7334 H   0  0  0  0  0  0  0  0  0  0  0  0
   -0.3357   -5.8161    0.4845 H   0  0  0  0  0  0  0  0  0  0  0  0
   -1.5559   -4.1200    2.1938 H   0  0  0  0  0  0  0  0  0  0  0  0
   -2.2565   -3.4504    0.6728 H   0  0  0  0  0  0  0  0  0  0  0  0
    3.8868   -3.0505   -2.6575 H   0  0  0  0  0  0  0  0  0  0  0  0
    2.4345   -4.0854   -2.2709 H   0  0  0  0  0  0  0  0  0  0  0  0
    3.9900   -4.1823   -1.2870 H   0  0  0  0  0  0  0  0  0  0  0  0
    4.5135   -1.2331   -1.3695 H   0  0  0  0  0  0  0  0  0  0  0  0
    5.4817    3.5626    2.9603 H   0  0  0  0  0  0  0  0  0  0  0  0
    6.8875    5.3909    1.9550 H   0  0  0  0  0  0  0  0  0  0  0  0
    7.2736    5.4573   -0.4536 H   0  0  0  0  0  0  0  0  0  0  0  0
    6.2530    3.6928   -1.8632 H   0  0  0  0  0  0  0  0  0  0  0  0
    4.7159    2.2102   -2.7841 H   0  0  0  0  0  0  0  0  0  0  0  0
    3.7028    0.7451   -2.4607 H   0  0  0  0  0  0  0  0  0  0  0  0
    5.5519    0.6712   -2.3970 H   0  0  0  0  0  0  0  0  0  0  0  0
    1.7763    0.3671    1.4454 H   0  0  0  0  0  0  0  0  0  0  0  0
   -1.1092   -1.8455    3.0377 H   0  0  0  0  0  0  0  0  0  0  0  0
    0.0350   -0.5187    2.8512 H   0  0  0  0  0  0  0  0  0  0  0  0
   -3.2752   -1.6922    1.8867 H   0  0  0  0  0  0  0  0  0  0  0  0
   -4.9999   -0.2894    0.9132 H   0  0  0  0  0  0  0  0  0  0  0  0
   -4.4656    3.6814    1.4412 H   0  0  0  0  0  0  0  0  0  0  0  0
   -6.2290    5.2307    0.5699 H   0  0  0  0  0  0  0  0  0  0  0  0
   -7.4473    4.6232   -1.4573 H   0  0  0  0  0  0  0  0  0  0  0  0
   -6.9209    2.5292   -2.5882 H   0  0  0  0  0  0  0  0  0  0  0  0
   -5.9587   -0.5226   -3.4102 H   0  0  0  0  0  0  0  0  0  0  0  0
   -2.1686    2.7743    0.2811 H   0  0  0  0  0  0  0  0  0  0  0  0
   -0.3926    1.3343    1.2871 H   0  0  0  0  0  0  0  0  0  0  0  0
  1  2  1  0
  2  3  1  0
  3  4  1  0
  4  5  2  0
  5  6  1  0
  6  7  2  0
  7  8  1  0
  7  9  1  0
  9 10  2  0
 10 11  1  0
 11 12  2  0
 12 13  1  0
 13 14  2  0
 14 15  1  0
 15 16  2  0
 16 17  1  0
 17 18  2  0
 18 19  1  0
 19 20  1  0
 10 21  1  0
 21 22  2  0
 22 23  1  0
 23 24  1  0
 24 25  1  0
 25 26  2  0
 26 27  1  0
 27 28  2  0
 28 29  1  0
 29 30  2  0
 30 31  1  0
 31 32  2  0
 32 33  1  0
 33 34  2  0
 34 35  1  0
 35 36  2  0
 35 37  1  0
 28 38  1  0
 38 39  2  0
 23  4  1  0
 39 25  1  0
 22  6  1  0
 34 29  1  0
 19 11  1  0
 18 13  1  0
  1 40  1  0
  1 41  1  0
  1 42  1  0
  2 43  1  0
  2 44  1  0
  3 45  1  0
  3 46  1  0
  8 47  1  0
  8 48  1  0
  8 49  1  0
  9 50  1  0
 14 51  1  0
 15 52  1  0
 16 53  1  0
 17 54  1  0
 20 55  1  0
 20 56  1  0
 20 57  1  0
 21 58  1  0
 24 59  1  0
 24 60  1  0
 26 61  1  0
 27 62  1  0
 30 63  1  0
 31 64  1  0
 32 65  1  0
 33 66  1  0
 37 67  1  0
 38 68  1  0
 39 69  1  0
M  END
$$$$
