@<TRIPOS>MOLECULE
*****
 45 48 0 0 0
SMALL
GASTEIGER

@<TRIPOS>ATOM
      1 C           9.4365    0.2212    0.8547 C.3     1  UNL1       -0.0224
      2 C           7.9545    0.1293    0.7718 C.ar    1  UNL1        0.0382
      3 C           7.2906   -0.2080   -0.4109 C.ar    1  UNL1       -0.0401
      4 C           5.9112   -0.2961   -0.4092 C.ar    1  UNL1       -0.0504
      5 C           5.1726   -0.0584    0.7392 C.ar    1  UNL1        0.0084
      6 C           3.7547   -0.2233    0.7915 C.ar    1  UNL1        0.0420
      7 C           2.7900    0.0604    1.6935 C.ar    1  UNL1        0.0446
      8 N           1.5648   -0.2722    1.3517 N.ar    1  UNL1       -0.2324
      9 C           1.1797   -0.7738    0.3915 C.ar    1  UNL1        0.1639
     10 N          -0.0650   -1.2956   -0.1855 N.pl3   1  UNL1       -0.2786
     11 C          -1.0814   -0.4914   -0.7187 C.ar    1  UNL1        0.1260
     12 C          -2.4331   -0.8116   -0.4928 C.ar    1  UNL1       -0.0005
     13 C          -3.4597   -0.0689   -1.0099 C.ar    1  UNL1        0.0345
     14 N          -4.8069   -0.3461   -0.7742 N.pl3   1  UNL1       -0.3273
     15 C          -5.9020    0.1325   -1.6130 C.3     1  UNL1        0.0248
     16 C          -6.6782    1.1024   -0.7769 C.3     1  UNL1        0.0117
     17 N          -6.6503    0.9606    0.6018 N.3     1  UNL1       -0.3130
     18 C          -6.1380   -0.1777    1.2240 C.3     1  UNL1        0.0117
     19 C          -5.3153   -1.1133    0.3731 C.3     1  UNL1        0.0248
     20 C          -3.1154    1.0193   -1.7731 C.ar    1  UNL1       -0.0224
     21 C          -1.8039    1.3500   -2.0091 C.ar    1  UNL1        0.0314
     22 N          -0.8296    0.5849   -1.4736 N.ar    1  UNL1       -0.2400
     23 S           2.7856   -0.9944   -0.5823 S.2     1  UNL1       -0.0521
     24 C           5.8607    0.2698    1.8872 C.ar    1  UNL1        0.0361
     25 N           7.2208    0.3536    1.8744 N.ar    1  UNL1       -0.2595
     26 H           9.7342    0.9624    1.6312 H       1  UNL1        0.0292
     27 H           9.9156    0.4784   -0.0872 H       1  UNL1        0.0292
     28 H           9.8405   -0.7831    1.1594 H       1  UNL1        0.0292
     29 H           7.8723   -0.3897   -1.3005 H       1  UNL1        0.0636
     30 H           5.3806   -0.5609   -1.3207 H       1  UNL1        0.0625
     31 H           3.0156    0.5344    2.6462 H       1  UNL1        0.0842
     32 H          -0.1435   -2.3408   -0.1888 H       1  UNL1        0.1555
     33 H          -2.6161   -1.6708    0.1077 H       1  UNL1        0.0670
     34 H          -6.5113   -0.7934   -1.8427 H       1  UNL1        0.0476
     35 H          -5.5728    0.5741   -2.5576 H       1  UNL1        0.0476
     36 H          -7.7392    1.0911   -1.1634 H       1  UNL1        0.0439
     37 H          -6.2938    2.1189   -1.0721 H       1  UNL1        0.0439
     38 H          -6.5098    1.8531    1.0981 H       1  UNL1        0.1220
     39 H          -5.4730    0.1268    2.0633 H       1  UNL1        0.0439
     40 H          -6.9374   -0.7753    1.7000 H       1  UNL1        0.0439
     41 H          -6.0096   -1.8753   -0.0799 H       1  UNL1        0.0476
     42 H          -4.4729   -1.5910    0.8974 H       1  UNL1        0.0476
     43 H          -3.8977    1.6535   -2.2070 H       1  UNL1        0.0651
     44 H          -1.5739    2.2135   -2.6191 H       1  UNL1        0.0831
     45 H           5.3493    0.4653    2.8106 H       1  UNL1        0.0836
@<TRIPOS>BOND
     1     1     2    1
     2     2     3   ar
     3     3     4   ar
     4     4     5   ar
     5     5     6    1
     6     6     7   ar
     7     7     8   ar
     8     8     9   ar
     9     9    10    1
    10    10    11    1
    11    11    12   ar
    12    12    13   ar
    13    13    14    1
    14    14    15    1
    15    15    16    1
    16    16    17    1
    17    17    18    1
    18    18    19    1
    19    13    20   ar
    20    20    21   ar
    21    21    22   ar
    22     9    23   ar
    23     5    24   ar
    24    24    25   ar
    25    25     2   ar
    26    23     6   ar
    27    22    11   ar
    28    19    14    1
    29     1    26    1
    30     1    27    1
    31     1    28    1
    32     3    29    1
    33     4    30    1
    34     7    31    1
    35    10    32    1
    36    12    33    1
    37    15    34    1
    38    15    35    1
    39    16    36    1
    40    16    37    1
    41    17    38    1
    42    18    39    1
    43    18    40    1
    44    19    41    1
    45    19    42    1
    46    20    43    1
    47    21    44    1
    48    24    45    1
