@<TRIPOS>MOLECULE
*****
 57 61 0 0 0
SMALL
GASTEIGER

@<TRIPOS>ATOM
      1 C           8.0696    2.5032    3.1836 C.3     1  UNL1        0.0805
      2 O           6.6761    2.5612    3.0919 O.3     1  UNL1       -0.4786
      3 C           5.9565    1.7525    2.2163 C.ar    1  UNL1        0.2332
      4 C           4.5909    1.8220    2.1389 C.ar    1  UNL1        0.0899
      5 N           3.9475    1.0134    1.2716 N.ar    1  UNL1       -0.2435
      6 C           4.6147    0.1592    0.4992 C.ar    1  UNL1        0.1439
      7 C           3.9122   -0.7242   -0.4483 C.2     1  UNL1        0.2681
      8 O           4.5772   -1.5021   -1.1455 O.2     1  UNL1       -0.2681
      9 N           2.4984   -0.6703   -0.5461 N.am    1  UNL1       -0.2802
     10 C           1.6927   -1.4437   -1.3961 C.ar    1  UNL1        0.0342
     11 C           2.1545   -2.3755   -2.2674 C.ar    1  UNL1       -0.0377
     12 C           1.2866   -3.1142   -3.0897 C.ar    1  UNL1       -0.0243
     13 C          -0.0724   -2.9047   -3.0275 C.ar    1  UNL1        0.1290
     14 F          -0.9162   -3.6118   -3.8160 F       1  UNL1       -0.2051
     15 C          -0.5354   -1.9448   -2.1286 C.ar    1  UNL1        0.0171
     16 C          -2.0038   -1.7435   -2.0851 C.3     1  UNL1        0.0977
     17 C          -2.4026   -1.1978   -3.4396 C.3     1  UNL1       -0.0350
     18 N          -2.3539   -0.7238   -1.1166 N.2     1  UNL1       -0.2249
     19 C          -3.5904   -0.7034   -0.7280 C.2     1  UNL1        0.2855
     20 N          -3.9768    0.2790    0.2186 N.am    1  UNL1       -0.2361
     21 C          -3.0946    1.2384    0.7629 C.2     1  UNL1        0.2515
     22 O          -1.8948    1.2362    0.3981 O.2     1  UNL1       -0.2697
     23 C          -3.5023    2.2388    1.7322 C.ar    1  UNL1        0.0371
     24 C          -4.7831    2.3491    2.2129 C.ar    1  UNL1       -0.0496
     25 C          -5.2103    3.2820    3.1310 C.ar    1  UNL1       -0.0610
     26 C          -4.2836    4.1825    3.6122 C.ar    1  UNL1       -0.0617
     27 C          -2.9709    4.1108    3.1546 C.ar    1  UNL1       -0.0610
     28 C          -2.5817    3.1642    2.2364 C.ar    1  UNL1       -0.0496
     29 O          -4.4232   -1.6518   -1.2797 O.2     1  UNL1       -0.4618
     30 C          -4.0642   -3.0369   -1.4028 C.3     1  UNL1        0.1089
     31 C          -3.6852   -3.6343   -2.6792 C.3     1  UNL1       -0.0066
     32 C          -2.6231   -3.0838   -1.8073 C.3     1  UNL1        0.0288
     33 C           0.3279   -1.2375   -1.3378 C.ar    1  UNL1       -0.0323
     34 C           5.9786    0.1022    0.5888 C.ar    1  UNL1        0.0619
     35 N           6.6372    0.8972    1.4444 N.ar    1  UNL1       -0.2178
     36 H           8.5061    2.7461    2.1837 H       1  UNL1        0.0660
     37 H           8.4152    1.5257    3.5598 H       1  UNL1        0.0660
     38 H           8.3894    3.3164    3.8766 H       1  UNL1        0.0660
     39 H           4.0685    2.5239    2.7762 H       1  UNL1        0.0884
     40 H           2.0457    0.0490    0.1159 H       1  UNL1        0.1552
     41 H           3.1923   -2.6105   -2.3890 H       1  UNL1        0.0637
     42 H           1.7093   -3.8522   -3.7737 H       1  UNL1        0.0647
     43 H          -2.4682   -1.9553   -4.2201 H       1  UNL1        0.0256
     44 H          -3.3534   -0.6348   -3.3609 H       1  UNL1        0.0256
     45 H          -1.6256   -0.4216   -3.6948 H       1  UNL1        0.0256
     46 H          -4.9677    0.2853    0.5206 H       1  UNL1        0.1595
     47 H          -5.5325    1.6618    1.8584 H       1  UNL1        0.0625
     48 H          -6.2359    3.3342    3.4853 H       1  UNL1        0.0618
     49 H          -4.5861    4.9248    4.3315 H       1  UNL1        0.0618
     50 H          -2.2246    4.8036    3.5148 H       1  UNL1        0.0618
     51 H          -1.5500    3.1210    1.8877 H       1  UNL1        0.0625
     52 H          -4.3727   -3.6300   -0.5147 H       1  UNL1        0.0737
     53 H          -3.7784   -4.7359   -2.7500 H       1  UNL1        0.0306
     54 H          -4.0252   -3.1173   -3.5974 H       1  UNL1        0.0306
     55 H          -1.9938   -3.8205   -1.2616 H       1  UNL1        0.0364
     56 H          -0.0872   -0.5115   -0.6641 H       1  UNL1        0.0640
     57 H           6.5222   -0.5900   -0.0368 H       1  UNL1        0.0854
@<TRIPOS>BOND
     1     1     2    1
     2     2     3    1
     3     3     4   ar
     4     4     5   ar
     5     5     6   ar
     6     6     7    1
     7     7     8    2
     8     7     9   am
     9     9    10    1
    10    10    11   ar
    11    11    12   ar
    12    12    13   ar
    13    13    14    1
    14    13    15   ar
    15    15    16    1
    16    16    17    1
    17    16    18    1
    18    18    19    2
    19    19    20    1
    20    20    21   am
    21    21    22    2
    22    21    23    1
    23    23    24   ar
    24    24    25   ar
    25    25    26   ar
    26    26    27   ar
    27    27    28   ar
    28    19    29    1
    29    29    30    1
    30    30    31    1
    31    31    32    1
    32    15    33   ar
    33     6    34   ar
    34    34    35   ar
    35    35     3   ar
    36    33    10   ar
    37    32    16    1
    38    28    23   ar
    39    32    30    1
    40     1    36    1
    41     1    37    1
    42     1    38    1
    43     4    39    1
    44     9    40    1
    45    11    41    1
    46    12    42    1
    47    17    43    1
    48    17    44    1
    49    17    45    1
    50    20    46    1
    51    24    47    1
    52    25    48    1
    53    26    49    1
    54    27    50    1
    55    28    51    1
    56    30    52    1
    57    31    53    1
    58    31    54    1
    59    32    55    1
    60    33    56    1
    61    34    57    1
