
     RDKit          3D

 57 61  0  0  0  0  0  0  0  0999 V2000
    8.0696    2.5032    3.1836 C   0  0  0  0  0  0  0  0  0  0  0  0
    6.6761    2.5612    3.0919 O   0  0  0  0  0  0  0  0  0  0  0  0
    5.9565    1.7525    2.2163 C   0  0  0  0  0  0  0  0  0  0  0  0
    4.5909    1.8220    2.1389 C   0  0  0  0  0  0  0  0  0  0  0  0
    3.9475    1.0134    1.2716 N   0  0  0  0  0  0  0  0  0  0  0  0
    4.6147    0.1592    0.4992 C   0  0  0  0  0  0  0  0  0  0  0  0
    3.9122   -0.7242   -0.4483 C   0  0  0  0  0  0  0  0  0  0  0  0
    4.5772   -1.5021   -1.1455 O   0  0  0  0  0  0  0  0  0  0  0  0
    2.4984   -0.6703   -0.5461 N   0  0  0  0  0  0  0  0  0  0  0  0
    1.6927   -1.4437   -1.3961 C   0  0  0  0  0  0  0  0  0  0  0  0
    2.1545   -2.3755   -2.2674 C   0  0  0  0  0  0  0  0  0  0  0  0
    1.2866   -3.1142   -3.0897 C   0  0  0  0  0  0  0  0  0  0  0  0
   -0.0724   -2.9047   -3.0275 C   0  0  0  0  0  0  0  0  0  0  0  0
   -0.9162   -3.6118   -3.8160 F   0  0  0  0  0  0  0  0  0  0  0  0
   -0.5354   -1.9448   -2.1286 C   0  0  0  0  0  0  0  0  0  0  0  0
   -2.0038   -1.7435   -2.0851 C   0  0  2  0  0  0  0  0  0  0  0  0
   -2.4026   -1.1978   -3.4396 C   0  0  0  0  0  0  0  0  0  0  0  0
   -2.3539   -0.7238   -1.1166 N   0  0  0  0  0  0  0  0  0  0  0  0
   -3.5904   -0.7034   -0.7280 C   0  0  0  0  0  0  0  0  0  0  0  0
   -3.9768    0.2790    0.2186 N   0  0  0  0  0  0  0  0  0  0  0  0
   -3.0946    1.2384    0.7629 C   0  0  0  0  0  0  0  0  0  0  0  0
   -1.8948    1.2362    0.3981 O   0  0  0  0  0  0  0  0  0  0  0  0
   -3.5023    2.2388    1.7322 C   0  0  0  0  0  0  0  0  0  0  0  0
   -4.7831    2.3491    2.2129 C   0  0  0  0  0  0  0  0  0  0  0  0
   -5.2103    3.2820    3.1310 C   0  0  0  0  0  0  0  0  0  0  0  0
   -4.2836    4.1825    3.6122 C   0  0  0  0  0  0  0  0  0  0  0  0
   -2.9709    4.1108    3.1546 C   0  0  0  0  0  0  0  0  0  0  0  0
   -2.5817    3.1642    2.2364 C   0  0  0  0  0  0  0  0  0  0  0  0
   -4.4232   -1.6518   -1.2797 O   0  0  0  0  0  0  0  0  0  0  0  0
   -4.0642   -3.0369   -1.4028 C   0  0  1  0  0  0  0  0  0  0  0  0
   -3.6852   -3.6343   -2.6792 C   0  0  0  0  0  0  0  0  0  0  0  0
   -2.6231   -3.0838   -1.8073 C   0  0  1  0  0  0  0  0  0  0  0  0
    0.3279   -1.2375   -1.3378 C   0  0  0  0  0  0  0  0  0  0  0  0
    5.9786    0.1022    0.5888 C   0  0  0  0  0  0  0  0  0  0  0  0
    6.6372    0.8972    1.4444 N   0  0  0  0  0  0  0  0  0  0  0  0
    8.5061    2.7461    2.1837 H   0  0  0  0  0  0  0  0  0  0  0  0
    8.4152    1.5257    3.5598 H   0  0  0  0  0  0  0  0  0  0  0  0
    8.3894    3.3164    3.8766 H   0  0  0  0  0  0  0  0  0  0  0  0
    4.0685    2.5239    2.7762 H   0  0  0  0  0  0  0  0  0  0  0  0
    2.0457    0.0490    0.1159 H   0  0  0  0  0  0  0  0  0  0  0  0
    3.1923   -2.6105   -2.3890 H   0  0  0  0  0  0  0  0  0  0  0  0
    1.7093   -3.8522   -3.7737 H   0  0  0  0  0  0  0  0  0  0  0  0
   -2.4682   -1.9553   -4.2201 H   0  0  0  0  0  0  0  0  0  0  0  0
   -3.3534   -0.6348   -3.3609 H   0  0  0  0  0  0  0  0  0  0  0  0
   -1.6256   -0.4216   -3.6948 H   0  0  0  0  0  0  0  0  0  0  0  0
   -4.9677    0.2853    0.5206 H   0  0  0  0  0  0  0  0  0  0  0  0
   -5.5325    1.6618    1.8584 H   0  0  0  0  0  0  0  0  0  0  0  0
   -6.2359    3.3342    3.4853 H   0  0  0  0  0  0  0  0  0  0  0  0
   -4.5861    4.9248    4.3315 H   0  0  0  0  0  0  0  0  0  0  0  0
   -2.2246    4.8036    3.5148 H   0  0  0  0  0  0  0  0  0  0  0  0
   -1.5500    3.1210    1.8877 H   0  0  0  0  0  0  0  0  0  0  0  0
   -4.3727   -3.6300   -0.5147 H   0  0  0  0  0  0  0  0  0  0  0  0
   -3.7784   -4.7359   -2.7500 H   0  0  0  0  0  0  0  0  0  0  0  0
   -4.0252   -3.1173   -3.5974 H   0  0  0  0  0  0  0  0  0  0  0  0
   -1.9938   -3.8205   -1.2616 H   0  0  0  0  0  0  0  0  0  0  0  0
   -0.0872   -0.5115   -0.6641 H   0  0  0  0  0  0  0  0  0  0  0  0
    6.5222   -0.5900   -0.0368 H   0  0  0  0  0  0  0  0  0  0  0  0
  1  2  1  0
  2  3  1  0
  3  4  2  0
  4  5  1  0
  5  6  2  0
  6  7  1  0
  7  8  2  0
  7  9  1  0
  9 10  1  0
 10 11  2  0
 11 12  1  0
 12 13  2  0
 13 14  1  0
 13 15  1  0
 15 16  1  0
 16 17  1  6
 16 18  1  0
 18 19  2  0
 19 20  1  0
 20 21  1  0
 21 22  2  0
 21 23  1  0
 23 24  2  0
 24 25  1  0
 25 26  2  0
 26 27  1  0
 27 28  2  0
 19 29  1  0
 29 30  1  0
 30 31  1  0
 31 32  1  0
 15 33  2  0
  6 34  1  0
 34 35  2  0
 35  3  1  0
 33 10  1  0
 32 16  1  0
 28 23  1  0
 32 30  1  0
  1 36  1  0
  1 37  1  0
  1 38  1  0
  4 39  1  0
  9 40  1  0
 11 41  1  0
 12 42  1  0
 17 43  1  0
 17 44  1  0
 17 45  1  0
 20 46  1  0
 24 47  1  0
 25 48  1  0
 26 49  1  0
 27 50  1  0
 28 51  1  0
 30 52  1  1
 31 53  1  0
 31 54  1  0
 32 55  1  1
 33 56  1  0
 34 57  1  0
M  END
$$$$
