
     RDKit          3D

 40 42  0  0  0  0  0  0  0  0999 V2000
    7.5920   -1.4215    0.0171 O   0  0  0  0  0  0  0  0  0  0  0  0
    6.6839   -0.6003   -0.1834 C   0  0  0  0  0  0  0  0  0  0  0  0
    6.9638    0.6487   -0.7134 O   0  0  0  0  0  0  0  0  0  0  0  0
    5.3009   -0.9440    0.1396 C   0  0  0  0  0  0  0  0  0  0  0  0
    4.9530   -2.1559    0.6643 C   0  0  0  0  0  0  0  0  0  0  0  0
    3.6291   -2.3925    0.9370 C   0  0  0  0  0  0  0  0  0  0  0  0
    2.6802   -1.4711    0.7026 N   0  0  0  0  0  0  0  0  0  0  0  0
    2.9660   -0.2379    0.1779 C   0  0  0  0  0  0  0  0  0  0  0  0
    1.8840    0.7067   -0.0475 C   0  0  0  0  0  0  0  0  0  0  0  0
    0.5713    0.3210    0.2826 C   0  0  0  0  0  0  0  0  0  0  0  0
   -0.5155    1.1344    0.1095 C   0  0  0  0  0  0  0  0  0  0  0  0
   -1.8448    0.7551    0.4393 N   0  0  0  0  0  0  0  0  0  0  0  0
   -2.6497    0.1198   -0.5407 C   0  0  0  0  0  0  0  0  0  0  0  0
   -2.1436   -0.0894   -1.6947 O   0  0  0  0  0  0  0  0  0  0  0  0
   -4.0024   -0.2778   -0.2391 C   0  0  0  0  0  0  0  0  0  0  0  0
   -4.7576   -0.8941   -1.2174 C   0  0  0  0  0  0  0  0  0  0  0  0
   -6.0632   -1.2960   -0.9788 C   0  0  0  0  0  0  0  0  0  0  0  0
   -6.6313   -1.0804    0.2605 C   0  0  0  0  0  0  0  0  0  0  0  0
   -7.9358   -1.4688    0.5370 O   0  0  0  0  0  0  0  0  0  0  0  0
   -5.8922   -0.4664    1.2494 C   0  0  0  0  0  0  0  0  0  0  0  0
   -4.5664   -0.0666    0.9830 C   0  0  0  0  0  0  0  0  0  0  0  0
   -0.3165    2.3992   -0.4160 C   0  0  0  0  0  0  0  0  0  0  0  0
    0.9587    2.7949   -0.7449 C   0  0  0  0  0  0  0  0  0  0  0  0
    2.0611    1.9618   -0.5661 C   0  0  0  0  0  0  0  0  0  0  0  0
    3.2828    2.4669   -0.9309 O   0  0  0  0  0  0  0  0  0  0  0  0
    4.2734   -0.0041   -0.0914 C   0  0  0  0  0  0  0  0  0  0  0  0
    7.8685    1.0831   -0.5368 H   0  0  0  0  0  0  0  0  0  0  0  0
    5.6966   -2.8949    0.8546 H   0  0  0  0  0  0  0  0  0  0  0  0
    3.3505   -3.3608    1.3563 H   0  0  0  0  0  0  0  0  0  0  0  0
    0.4549   -0.6655    0.6872 H   0  0  0  0  0  0  0  0  0  0  0  0
   -2.1553    0.9757    1.4155 H   0  0  0  0  0  0  0  0  0  0  0  0
   -4.2911   -1.0589   -2.1992 H   0  0  0  0  0  0  0  0  0  0  0  0
   -6.6621   -1.7794   -1.7391 H   0  0  0  0  0  0  0  0  0  0  0  0
   -8.4090   -1.1251    1.3513 H   0  0  0  0  0  0  0  0  0  0  0  0
   -6.3254   -0.2905    2.2280 H   0  0  0  0  0  0  0  0  0  0  0  0
   -4.0174    0.4056    1.7644 H   0  0  0  0  0  0  0  0  0  0  0  0
   -1.1646    3.0577   -0.5604 H   0  0  0  0  0  0  0  0  0  0  0  0
    1.0872    3.7975   -1.1575 H   0  0  0  0  0  0  0  0  0  0  0  0
    3.4914    2.4935   -1.9373 H   0  0  0  0  0  0  0  0  0  0  0  0
    4.5946    0.9204   -0.4992 H   0  0  0  0  0  0  0  0  0  0  0  0
  1  2  2  0
  2  3  1  0
  2  4  1  0
  4  5  2  0
  5  6  1  0
  6  7  2  0
  7  8  1  0
  8  9  1  0
  9 10  2  0
 10 11  1  0
 11 12  1  0
 12 13  1  0
 13 14  2  0
 13 15  1  0
 15 16  2  0
 16 17  1  0
 17 18  2  0
 18 19  1  0
 18 20  1  0
 20 21  2  0
 11 22  2  0
 22 23  1  0
 23 24  2  0
 24 25  1  0
  8 26  2  0
 26  4  1  0
 24  9  1  0
 21 15  1  0
  3 27  1  0
  5 28  1  0
  6 29  1  0
 10 30  1  0
 12 31  1  0
 16 32  1  0
 17 33  1  0
 19 34  1  0
 20 35  1  0
 21 36  1  0
 22 37  1  0
 23 38  1  0
 25 39  1  0
 26 40  1  0
M  END
$$$$
