@<TRIPOS>MOLECULE
*****
 40 42 0 0 0
SMALL
GASTEIGER

@<TRIPOS>ATOM
      1 O           7.5920   -1.4215    0.0171 O.2     1  UNL1       -0.2451
      2 C           6.6839   -0.6003   -0.1834 C.2     1  UNL1        0.3369
      3 O           6.9638    0.6487   -0.7134 O.3     1  UNL1       -0.4771
      4 C           5.3009   -0.9440    0.1396 C.ar    1  UNL1        0.0623
      5 C           4.9530   -2.1559    0.6643 C.ar    1  UNL1       -0.0296
      6 C           3.6291   -2.3925    0.9370 C.ar    1  UNL1        0.0290
      7 N           2.6802   -1.4711    0.7026 N.ar    1  UNL1       -0.2548
      8 C           2.9660   -0.2379    0.1779 C.ar    1  UNL1        0.0753
      9 C           1.8840    0.7067   -0.0475 C.ar    1  UNL1        0.0435
     10 C           0.5713    0.3210    0.2826 C.ar    1  UNL1       -0.0278
     11 C          -0.5155    1.1344    0.1095 C.ar    1  UNL1        0.0345
     12 N          -1.8448    0.7551    0.4393 N.am    1  UNL1       -0.2815
     13 C          -2.6497    0.1198   -0.5407 C.2     1  UNL1        0.2483
     14 O          -2.1436   -0.0894   -1.6947 O.2     1  UNL1       -0.2699
     15 C          -4.0024   -0.2778   -0.2391 C.ar    1  UNL1        0.0372
     16 C          -4.7576   -0.8941   -1.2174 C.ar    1  UNL1       -0.0462
     17 C          -6.0632   -1.2960   -0.9788 C.ar    1  UNL1       -0.0195
     18 C          -6.6313   -1.0804    0.2605 C.ar    1  UNL1        0.1169
     19 O          -7.9358   -1.4688    0.5370 O.3     1  UNL1       -0.5068
     20 C          -5.8922   -0.4664    1.2494 C.ar    1  UNL1       -0.0195
     21 C          -4.5664   -0.0666    0.9830 C.ar    1  UNL1       -0.0462
     22 C          -0.3165    2.3992   -0.4160 C.ar    1  UNL1       -0.0370
     23 C           0.9587    2.7949   -0.7449 C.ar    1  UNL1       -0.0178
     24 C           2.0611    1.9618   -0.5661 C.ar    1  UNL1        0.1261
     25 O           3.2828    2.4669   -0.9309 O.3     1  UNL1       -0.5061
     26 C           4.2734   -0.0041   -0.0914 C.ar    1  UNL1       -0.0216
     27 H           7.8685    1.0831   -0.5368 H       1  UNL1        0.2954
     28 H           5.6966   -2.8949    0.8546 H       1  UNL1        0.0641
     29 H           3.3505   -3.3608    1.3563 H       1  UNL1        0.0830
     30 H           0.4549   -0.6655    0.6872 H       1  UNL1        0.0644
     31 H          -2.1553    0.9757    1.4155 H       1  UNL1        0.1551
     32 H          -4.2911   -1.0589   -2.1992 H       1  UNL1        0.0626
     33 H          -6.6621   -1.7794   -1.7391 H       1  UNL1        0.0654
     34 H          -8.4090   -1.1251    1.3513 H       1  UNL1        0.2921
     35 H          -6.3254   -0.2905    2.2280 H       1  UNL1        0.0654
     36 H          -4.0174    0.4056    1.7644 H       1  UNL1        0.0626
     37 H          -1.1646    3.0577   -0.5604 H       1  UNL1        0.0637
     38 H           1.0872    3.7975   -1.1575 H       1  UNL1        0.0655
     39 H           3.4914    2.4935   -1.9373 H       1  UNL1        0.2922
     40 H           4.5946    0.9204   -0.4992 H       1  UNL1        0.0647
@<TRIPOS>BOND
     1     1     2    2
     2     2     3    1
     3     2     4    1
     4     4     5   ar
     5     5     6   ar
     6     6     7   ar
     7     7     8   ar
     8     8     9    1
     9     9    10   ar
    10    10    11   ar
    11    11    12    1
    12    12    13   am
    13    13    14    2
    14    13    15    1
    15    15    16   ar
    16    16    17   ar
    17    17    18   ar
    18    18    19    1
    19    18    20   ar
    20    20    21   ar
    21    11    22   ar
    22    22    23   ar
    23    23    24   ar
    24    24    25    1
    25     8    26   ar
    26    26     4   ar
    27    24     9   ar
    28    21    15   ar
    29     3    27    1
    30     5    28    1
    31     6    29    1
    32    10    30    1
    33    12    31    1
    34    16    32    1
    35    17    33    1
    36    19    34    1
    37    20    35    1
    38    21    36    1
    39    22    37    1
    40    23    38    1
    41    25    39    1
    42    26    40    1
