@<TRIPOS>MOLECULE
*****
 36 35 0 0 0
SMALL
GASTEIGER

@<TRIPOS>ATOM
      1 O          -4.2193    2.5034   -0.4719 O.3     1  UNL1       -0.4797
      2 C          -3.2166    1.7144    0.1298 C.2     1  UNL1        0.3190
      3 O          -3.3288    1.6744    1.3790 O.2     1  UNL1       -0.2496
      4 C          -2.3149    1.1590   -0.9076 C.3     1  UNL1        0.0972
      5 N          -1.2432    0.3529   -0.4185 N.3     1  UNL1       -0.2812
      6 C          -0.3180    1.1771    0.3041 C.3     1  UNL1        0.0128
      7 C           0.8926    0.5011    0.8437 C.3     1  UNL1        0.0128
      8 N           1.7539   -0.1020   -0.0723 N.3     1  UNL1       -0.2812
      9 C           2.5191    0.6352   -0.9833 C.3     1  UNL1        0.0972
     10 C           3.5928    1.4496   -0.3897 C.2     1  UNL1        0.3190
     11 O           4.4119    2.2281   -1.1994 O.3     1  UNL1       -0.4797
     12 O           3.9027    1.5536    0.8335 O.2     1  UNL1       -0.2496
     13 C           1.6369   -1.4807   -0.3553 C.3     1  UNL1        0.0972
     14 C           2.0080   -2.3697    0.7866 C.2     1  UNL1        0.3190
     15 O           1.9142   -3.7514    0.5347 O.3     1  UNL1       -0.4797
     16 O           2.3961   -2.0689    1.9531 O.2     1  UNL1       -0.2496
     17 C          -1.7590   -0.7664    0.2915 C.3     1  UNL1        0.0972
     18 C          -2.4249   -1.6838   -0.6643 C.2     1  UNL1        0.3190
     19 O          -3.0516   -2.8706   -0.3942 O.3     1  UNL1       -0.4797
     20 O          -2.5974   -1.6402   -1.9321 O.2     1  UNL1       -0.2496
     21 H          -4.7844    3.1654    0.0612 H       1  UNL1        0.2951
     22 H          -2.9513    0.6159   -1.6291 H       1  UNL1        0.0542
     23 H          -1.8665    2.0092   -1.4604 H       1  UNL1        0.0542
     24 H           0.0144    1.9682   -0.4012 H       1  UNL1        0.0439
     25 H          -0.8625    1.7098    1.1098 H       1  UNL1        0.0439
     26 H           1.4530    1.2481    1.4452 H       1  UNL1        0.0439
     27 H           0.6387   -0.2972    1.6012 H       1  UNL1        0.0439
     28 H           1.9196    1.2085   -1.7443 H       1  UNL1        0.0542
     29 H           3.0437   -0.1336   -1.6291 H       1  UNL1        0.0542
     30 H           4.7182    3.1625   -0.9881 H       1  UNL1        0.2951
     31 H           2.4224   -1.7043   -1.1407 H       1  UNL1        0.0542
     32 H           0.6872   -1.8067   -0.8167 H       1  UNL1        0.0542
     33 H           2.5085   -4.3773    1.0850 H       1  UNL1        0.2951
     34 H          -2.4991   -0.4771    1.0449 H       1  UNL1        0.0542
     35 H          -1.0052   -1.3736    0.8229 H       1  UNL1        0.0542
     36 H          -3.9914   -3.1326   -0.5808 H       1  UNL1        0.2951
@<TRIPOS>BOND
     1     1     2    1
     2     2     3    2
     3     2     4    1
     4     4     5    1
     5     5     6    1
     6     6     7    1
     7     7     8    1
     8     8     9    1
     9     9    10    1
    10    10    11    1
    11    10    12    2
    12     8    13    1
    13    13    14    1
    14    14    15    1
    15    14    16    2
    16     5    17    1
    17    17    18    1
    18    18    19    1
    19    18    20    2
    20     1    21    1
    21     4    22    1
    22     4    23    1
    23     6    24    1
    24     6    25    1
    25     7    26    1
    26     7    27    1
    27     9    28    1
    28     9    29    1
    29    11    30    1
    30    13    31    1
    31    13    32    1
    32    15    33    1
    33    17    34    1
    34    17    35    1
    35    19    36    1
