@<TRIPOS>MOLECULE
*****
 58 61 0 0 0
SMALL
GASTEIGER

@<TRIPOS>ATOM
      1 C          -3.7934    2.9624   -0.8109 C.3     1  UNL1       -0.0220
      2 C          -2.4201    3.3809   -0.4591 C.ar    1  UNL1        0.0471
      3 C          -1.3528    2.5203   -0.2979 C.ar    1  UNL1        0.0643
      4 C          -1.2225    1.1287   -0.4001 C.ar    1  UNL1        0.1324
      5 O          -2.3682    0.4512   -0.7246 O.3     1  UNL1       -0.4880
      6 C          -2.4219   -0.9299   -0.8636 C.3     1  UNL1        0.1021
      7 C          -2.8327   -1.2322   -2.3173 C.3     1  UNL1       -0.0275
      8 C          -3.5192   -1.5562   -0.0164 C.3     1  UNL1        0.0195
      9 C          -3.4942   -3.0669   -0.2389 C.3     1  UNL1        0.0182
     10 N          -4.1639   -3.5617    0.9459 N.am    1  UNL1       -0.3149
     11 C          -3.7220   -2.7521    2.0259 C.2     1  UNL1        0.2135
     12 O          -3.7378   -3.0800    3.2289 O.2     1  UNL1       -0.2758
     13 C          -3.2446   -1.4599    1.4590 C.3     1  UNL1        0.0315
     14 C           0.0124    0.6185   -0.1679 C.ar    1  UNL1       -0.0113
     15 C           1.1416    1.3753    0.1603 C.ar    1  UNL1       -0.0094
     16 C           2.4349    0.7439    0.3919 C.ar    1  UNL1        0.0198
     17 C           3.4530    1.1404    1.2314 C.ar    1  UNL1        0.0571
     18 N           4.4731    0.2736    1.1403 N.ar    1  UNL1       -0.1786
     19 N           4.1586   -0.6772    0.2702 N.ar    1  UNL1       -0.2656
     20 C           5.0494   -1.7852   -0.0691 C.3     1  UNL1        0.0553
     21 C           5.3021   -2.6306    1.1376 C.3     1  UNL1       -0.0403
     22 C           6.3707   -1.1966   -0.5264 C.3     1  UNL1       -0.0403
     23 C           4.4980   -2.6015   -1.1940 C.3     1  UNL1       -0.0403
     24 C           2.9263   -0.4243   -0.2055 C.ar    1  UNL1        0.0338
     25 C           0.9442    2.7363    0.2445 C.ar    1  UNL1       -0.0259
     26 C          -0.2845    3.3201    0.0207 C.ar    1  UNL1        0.0971
     27 N          -0.7286    4.6085    0.0416 N.ar    1  UNL1       -0.1711
     28 N          -2.0156    4.6343   -0.2486 N.ar    1  UNL1       -0.2704
     29 C          -2.8666    5.8045   -0.3314 C.3     1  UNL1        0.0305
     30 H          -3.8287    2.7984   -1.9121 H       1  UNL1        0.0293
     31 H          -4.5198    3.7968   -0.5933 H       1  UNL1        0.0293
     32 H          -4.1088    2.0367   -0.3275 H       1  UNL1        0.0293
     33 H          -1.4705   -1.4102   -0.6672 H       1  UNL1        0.0733
     34 H          -2.5752   -2.2611   -2.5863 H       1  UNL1        0.0265
     35 H          -2.3205   -0.5555   -3.0128 H       1  UNL1        0.0265
     36 H          -3.9178   -1.0645   -2.3971 H       1  UNL1        0.0265
     37 H          -4.4854   -1.1149   -0.2864 H       1  UNL1        0.0356
     38 H          -3.9814   -3.3543   -1.1772 H       1  UNL1        0.0466
     39 H          -2.4364   -3.4006   -0.1737 H       1  UNL1        0.0466
     40 H          -4.8304   -4.3628    0.9367 H       1  UNL1        0.1487
     41 H          -2.1675   -1.3730    1.7012 H       1  UNL1        0.0363
     42 H          -3.8355   -0.6518    1.9306 H       1  UNL1        0.0363
     43 H           0.1667   -0.4469   -0.2340 H       1  UNL1        0.0660
     44 H           3.4173    2.0161    1.8579 H       1  UNL1        0.0854
     45 H           5.9284   -2.1060    1.8878 H       1  UNL1        0.0253
     46 H           5.7409   -3.6007    0.8271 H       1  UNL1        0.0253
     47 H           4.3044   -2.8330    1.6183 H       1  UNL1        0.0253
     48 H           6.9353   -0.7351    0.3078 H       1  UNL1        0.0253
     49 H           6.9936   -1.9173   -1.0755 H       1  UNL1        0.0253
     50 H           6.1603   -0.3588   -1.2514 H       1  UNL1        0.0253
     51 H           3.7159   -3.3076   -0.7993 H       1  UNL1        0.0253
     52 H           4.1651   -2.0206   -2.0530 H       1  UNL1        0.0253
     53 H           5.3272   -3.2881   -1.5329 H       1  UNL1        0.0253
     54 H           2.3826   -0.9977   -0.9207 H       1  UNL1        0.0833
     55 H           1.8074    3.3494    0.4986 H       1  UNL1        0.0646
     56 H          -2.2863    6.6946    0.0280 H       1  UNL1        0.0473
     57 H          -3.1125    6.0303   -1.4015 H       1  UNL1        0.0473
     58 H          -3.7443    5.6936    0.3026 H       1  UNL1        0.0473
@<TRIPOS>BOND
     1     1     2    1
     2     2     3   ar
     3     3     4   ar
     4     4     5    1
     5     5     6    1
     6     6     7    1
     7     6     8    1
     8     8     9    1
     9     9    10    1
    10    10    11   am
    11    11    12    2
    12    11    13    1
    13     4    14   ar
    14    14    15   ar
    15    15    16    1
    16    16    17   ar
    17    17    18   ar
    18    18    19   ar
    19    19    20    1
    20    20    21    1
    21    20    22    1
    22    20    23    1
    23    19    24   ar
    24    15    25   ar
    25    25    26   ar
    26    26    27   ar
    27    27    28   ar
    28    28    29    1
    29    28     2   ar
    30    26     3   ar
    31    13     8    1
    32    24    16   ar
    33     1    30    1
    34     1    31    1
    35     1    32    1
    36     6    33    1
    37     7    34    1
    38     7    35    1
    39     7    36    1
    40     8    37    1
    41     9    38    1
    42     9    39    1
    43    10    40    1
    44    13    41    1
    45    13    42    1
    46    14    43    1
    47    17    44    1
    48    21    45    1
    49    21    46    1
    50    21    47    1
    51    22    48    1
    52    22    49    1
    53    22    50    1
    54    23    51    1
    55    23    52    1
    56    23    53    1
    57    24    54    1
    58    25    55    1
    59    29    56    1
    60    29    57    1
    61    29    58    1
