
     RDKit          3D

 58 61  0  0  0  0  0  0  0  0999 V2000
   -3.7934    2.9624   -0.8109 C   0  0  0  0  0  0  0  0  0  0  0  0
   -2.4201    3.3809   -0.4591 C   0  0  0  0  0  0  0  0  0  0  0  0
   -1.3528    2.5203   -0.2979 C   0  0  0  0  0  0  0  0  0  0  0  0
   -1.2225    1.1287   -0.4001 C   0  0  0  0  0  0  0  0  0  0  0  0
   -2.3682    0.4512   -0.7246 O   0  0  0  0  0  0  0  0  0  0  0  0
   -2.4219   -0.9299   -0.8636 C   0  0  2  0  0  0  0  0  0  0  0  0
   -2.8327   -1.2322   -2.3173 C   0  0  0  0  0  0  0  0  0  0  0  0
   -3.5192   -1.5562   -0.0164 C   0  0  1  0  0  0  0  0  0  0  0  0
   -3.4942   -3.0669   -0.2389 C   0  0  0  0  0  0  0  0  0  0  0  0
   -4.1639   -3.5617    0.9459 N   0  0  0  0  0  0  0  0  0  0  0  0
   -3.7220   -2.7521    2.0259 C   0  0  0  0  0  0  0  0  0  0  0  0
   -3.7378   -3.0800    3.2289 O   0  0  0  0  0  0  0  0  0  0  0  0
   -3.2446   -1.4599    1.4590 C   0  0  0  0  0  0  0  0  0  0  0  0
    0.0124    0.6185   -0.1679 C   0  0  0  0  0  0  0  0  0  0  0  0
    1.1416    1.3753    0.1603 C   0  0  0  0  0  0  0  0  0  0  0  0
    2.4349    0.7439    0.3919 C   0  0  0  0  0  0  0  0  0  0  0  0
    3.4530    1.1404    1.2314 C   0  0  0  0  0  0  0  0  0  0  0  0
    4.4731    0.2736    1.1403 N   0  0  0  0  0  0  0  0  0  0  0  0
    4.1586   -0.6772    0.2702 N   0  0  0  0  0  0  0  0  0  0  0  0
    5.0494   -1.7852   -0.0691 C   0  0  0  0  0  0  0  0  0  0  0  0
    5.3021   -2.6306    1.1376 C   0  0  0  0  0  0  0  0  0  0  0  0
    6.3707   -1.1966   -0.5264 C   0  0  0  0  0  0  0  0  0  0  0  0
    4.4980   -2.6015   -1.1940 C   0  0  0  0  0  0  0  0  0  0  0  0
    2.9263   -0.4243   -0.2055 C   0  0  0  0  0  0  0  0  0  0  0  0
    0.9442    2.7363    0.2445 C   0  0  0  0  0  0  0  0  0  0  0  0
   -0.2845    3.3201    0.0207 C   0  0  0  0  0  0  0  0  0  0  0  0
   -0.7286    4.6085    0.0416 N   0  0  0  0  0  0  0  0  0  0  0  0
   -2.0156    4.6343   -0.2486 N   0  0  0  0  0  0  0  0  0  0  0  0
   -2.8666    5.8045   -0.3314 C   0  0  0  0  0  0  0  0  0  0  0  0
   -3.8287    2.7984   -1.9121 H   0  0  0  0  0  0  0  0  0  0  0  0
   -4.5198    3.7968   -0.5933 H   0  0  0  0  0  0  0  0  0  0  0  0
   -4.1088    2.0367   -0.3275 H   0  0  0  0  0  0  0  0  0  0  0  0
   -1.4705   -1.4102   -0.6672 H   0  0  0  0  0  0  0  0  0  0  0  0
   -2.5752   -2.2611   -2.5863 H   0  0  0  0  0  0  0  0  0  0  0  0
   -2.3205   -0.5555   -3.0128 H   0  0  0  0  0  0  0  0  0  0  0  0
   -3.9178   -1.0645   -2.3971 H   0  0  0  0  0  0  0  0  0  0  0  0
   -4.4854   -1.1149   -0.2864 H   0  0  0  0  0  0  0  0  0  0  0  0
   -3.9814   -3.3543   -1.1772 H   0  0  0  0  0  0  0  0  0  0  0  0
   -2.4364   -3.4006   -0.1737 H   0  0  0  0  0  0  0  0  0  0  0  0
   -4.8304   -4.3628    0.9367 H   0  0  0  0  0  0  0  0  0  0  0  0
   -2.1675   -1.3730    1.7012 H   0  0  0  0  0  0  0  0  0  0  0  0
   -3.8355   -0.6518    1.9306 H   0  0  0  0  0  0  0  0  0  0  0  0
    0.1667   -0.4469   -0.2340 H   0  0  0  0  0  0  0  0  0  0  0  0
    3.4173    2.0161    1.8579 H   0  0  0  0  0  0  0  0  0  0  0  0
    5.9284   -2.1060    1.8878 H   0  0  0  0  0  0  0  0  0  0  0  0
    5.7409   -3.6007    0.8271 H   0  0  0  0  0  0  0  0  0  0  0  0
    4.3044   -2.8330    1.6183 H   0  0  0  0  0  0  0  0  0  0  0  0
    6.9353   -0.7351    0.3078 H   0  0  0  0  0  0  0  0  0  0  0  0
    6.9936   -1.9173   -1.0755 H   0  0  0  0  0  0  0  0  0  0  0  0
    6.1603   -0.3588   -1.2514 H   0  0  0  0  0  0  0  0  0  0  0  0
    3.7159   -3.3076   -0.7993 H   0  0  0  0  0  0  0  0  0  0  0  0
    4.1651   -2.0206   -2.0530 H   0  0  0  0  0  0  0  0  0  0  0  0
    5.3272   -3.2881   -1.5329 H   0  0  0  0  0  0  0  0  0  0  0  0
    2.3826   -0.9977   -0.9207 H   0  0  0  0  0  0  0  0  0  0  0  0
    1.8074    3.3494    0.4986 H   0  0  0  0  0  0  0  0  0  0  0  0
   -2.2863    6.6946    0.0280 H   0  0  0  0  0  0  0  0  0  0  0  0
   -3.1125    6.0303   -1.4015 H   0  0  0  0  0  0  0  0  0  0  0  0
   -3.7443    5.6936    0.3026 H   0  0  0  0  0  0  0  0  0  0  0  0
  1  2  1  0
  2  3  2  0
  3  4  1  0
  4  5  1  0
  5  6  1  0
  6  7  1  0
  6  8  1  0
  8  9  1  0
  9 10  1  0
 10 11  1  0
 11 12  2  0
 11 13  1  0
  4 14  2  0
 14 15  1  0
 15 16  1  0
 16 17  1  0
 17 18  2  0
 18 19  1  0
 19 20  1  0
 20 21  1  0
 20 22  1  0
 20 23  1  0
 19 24  1  0
 15 25  2  0
 25 26  1  0
 26 27  2  0
 27 28  1  0
 28 29  1  0
 28  2  1  0
 26  3  1  0
 13  8  1  0
 24 16  2  0
  1 30  1  0
  1 31  1  0
  1 32  1  0
  6 33  1  1
  7 34  1  0
  7 35  1  0
  7 36  1  0
  8 37  1  1
  9 38  1  0
  9 39  1  0
 10 40  1  0
 13 41  1  0
 13 42  1  0
 14 43  1  0
 17 44  1  0
 21 45  1  0
 21 46  1  0
 21 47  1  0
 22 48  1  0
 22 49  1  0
 22 50  1  0
 23 51  1  0
 23 52  1  0
 23 53  1  0
 24 54  1  0
 25 55  1  0
 29 56  1  0
 29 57  1  0
 29 58  1  0
M  END
$$$$
