
     RDKit          3D

 54 56  0  0  0  0  0  0  0  0999 V2000
   -2.6836   -0.0427   -1.2188 C   0  0  1  0  0  0  0  0  0  0  0  0
   -2.7740    1.2904   -1.9843 C   0  0  0  0  0  0  0  0  0  0  0  0
   -2.4396    2.2437   -0.8908 C   0  0  0  0  0  0  0  0  0  0  0  0
   -2.5868    1.4567    0.4091 C   0  0  2  0  0  0  0  0  0  0  0  0
   -1.2029    1.1633    0.8862 C   0  0  0  0  0  0  0  0  0  0  0  0
   -0.5208    0.0754    0.1081 C   0  0  1  0  0  0  0  0  0  0  0  0
   -1.2553   -0.3995   -1.0902 C   0  0  0  0  0  0  0  0  0  0  0  0
    0.7920    0.3841   -0.2581 O   0  0  0  0  0  0  0  0  0  0  0  0
    1.9335   -0.2559    0.2051 C   0  0  0  0  0  0  0  0  0  0  0  0
    1.9100   -1.1904    1.0108 O   0  0  0  0  0  0  0  0  0  0  0  0
    3.1693    0.3161   -0.3816 C   0  0  0  0  0  0  0  0  0  0  0  0
    3.0076    0.2039   -1.8985 C   0  0  0  0  0  0  0  0  0  0  0  0
    4.1217    0.7165   -2.5594 O   0  0  0  0  0  0  0  0  0  0  0  0
    4.3916   -0.3418    0.0909 C   0  0  0  0  0  0  0  0  0  0  0  0
    4.6306   -1.6946   -0.0574 C   0  0  0  0  0  0  0  0  0  0  0  0
    5.8393   -2.1852    0.4413 C   0  0  0  0  0  0  0  0  0  0  0  0
    6.7796   -1.3828    1.0619 C   0  0  0  0  0  0  0  0  0  0  0  0
    6.5267   -0.0495    1.1995 C   0  0  0  0  0  0  0  0  0  0  0  0
    5.3456    0.4663    0.7194 C   0  0  0  0  0  0  0  0  0  0  0  0
   -3.3728    0.3359   -0.0141 N   0  0  0  0  0  4  0  0  0  0  0  0
   -4.6239    0.9176   -0.5332 C   0  0  0  0  0  0  0  0  0  0  0  0
   -3.7123   -0.6683    0.8909 C   0  0  0  0  0  0  0  0  0  0  0  0
   -3.2158   -0.5133    2.3179 C   0  0  0  0  0  0  0  0  0  0  0  0
   -3.2946   -2.0836    0.4733 C   0  0  0  0  0  0  0  0  0  0  0  0
   -3.2351   -0.7635   -1.8419 H   0  0  0  0  0  0  0  0  0  0  0  0
   -3.7295    1.4313   -2.4850 H   0  0  0  0  0  0  0  0  0  0  0  0
   -2.0045    1.2161   -2.7835 H   0  0  0  0  0  0  0  0  0  0  0  0
   -2.9719    3.2052   -0.8920 H   0  0  0  0  0  0  0  0  0  0  0  0
   -1.3668    2.5466   -1.0804 H   0  0  0  0  0  0  0  0  0  0  0  0
   -3.1483    2.0389    1.1516 H   0  0  0  0  0  0  0  0  0  0  0  0
   -1.0801    1.0867    1.9853 H   0  0  0  0  0  0  0  0  0  0  0  0
   -0.5879    2.0867    0.6541 H   0  0  0  0  0  0  0  0  0  0  0  0
   -0.4183   -0.7818    0.8375 H   0  0  0  0  0  0  0  0  0  0  0  0
   -1.1303   -1.5193   -1.1703 H   0  0  0  0  0  0  0  0  0  0  0  0
   -0.7434   -0.0249   -2.0138 H   0  0  0  0  0  0  0  0  0  0  0  0
    3.1373    1.4117   -0.1829 H   0  0  0  0  0  0  0  0  0  0  0  0
    2.9406   -0.8943   -2.0995 H   0  0  0  0  0  0  0  0  0  0  0  0
    2.0574    0.6588   -2.1835 H   0  0  0  0  0  0  0  0  0  0  0  0
    4.3120    1.6039   -2.1880 H   0  0  0  0  0  0  0  0  0  0  0  0
    3.9084   -2.3166   -0.5352 H   0  0  0  0  0  0  0  0  0  0  0  0
    6.0439   -3.2589    0.3310 H   0  0  0  0  0  0  0  0  0  0  0  0
    7.7003   -1.8581    1.4219 H   0  0  0  0  0  0  0  0  0  0  0  0
    7.2569    0.5964    1.6860 H   0  0  0  0  0  0  0  0  0  0  0  0
    5.2012    1.5421    0.8598 H   0  0  0  0  0  0  0  0  0  0  0  0
   -5.0074    0.2907   -1.3802 H   0  0  0  0  0  0  0  0  0  0  0  0
   -5.4190    0.7817    0.2588 H   0  0  0  0  0  0  0  0  0  0  0  0
   -4.5856    1.9792   -0.7173 H   0  0  0  0  0  0  0  0  0  0  0  0
   -4.8298   -0.7801    1.0197 H   0  0  0  0  0  0  0  0  0  0  0  0
   -3.8527   -1.1080    3.0167 H   0  0  0  0  0  0  0  0  0  0  0  0
   -3.3084    0.5164    2.6593 H   0  0  0  0  0  0  0  0  0  0  0  0
   -2.2189   -0.9780    2.4134 H   0  0  0  0  0  0  0  0  0  0  0  0
   -3.9003   -2.8256    1.0761 H   0  0  0  0  0  0  0  0  0  0  0  0
   -2.2530   -2.3238    0.7915 H   0  0  0  0  0  0  0  0  0  0  0  0
   -3.5319   -2.3220   -0.5613 H   0  0  0  0  0  0  0  0  0  0  0  0
  1  2  1  0
  2  3  1  0
  3  4  1  0
  4  5  1  0
  5  6  1  0
  6  7  1  0
  6  8  1  0
  8  9  1  0
  9 10  2  0
  9 11  1  0
 11 12  1  0
 12 13  1  0
 11 14  1  0
 14 15  2  0
 15 16  1  0
 16 17  2  0
 17 18  1  0
 18 19  2  0
  4 20  1  0
 20 21  1  0
 20 22  1  0
 22 23  1  0
 22 24  1  0
  7  1  1  0
 19 14  1  0
 20  1  1  0
  1 25  1  6
  2 26  1  0
  2 27  1  0
  3 28  1  0
  3 29  1  0
  4 30  1  1
  5 31  1  0
  5 32  1  0
  6 33  1  1
  7 34  1  0
  7 35  1  0
 11 36  1  0
 12 37  1  0
 12 38  1  0
 13 39  1  0
 15 40  1  0
 16 41  1  0
 17 42  1  0
 18 43  1  0
 19 44  1  0
 21 45  1  0
 21 46  1  0
 21 47  1  0
 22 48  1  0
 23 49  1  0
 23 50  1  0
 23 51  1  0
 24 52  1  0
 24 53  1  0
 24 54  1  0
M  CHG  1  20   1
M  END
$$$$
