@<TRIPOS>MOLECULE
*****
 54 56 0 0 0
SMALL
GASTEIGER

@<TRIPOS>ATOM
      1 C          -2.6836   -0.0427   -1.2188 C.3     1  UNL1       -0.0152
      2 C          -2.7740    1.2904   -1.9843 C.3     1  UNL1       -0.0044
      3 C          -2.4396    2.2437   -0.8908 C.3     1  UNL1       -0.0044
      4 C          -2.5868    1.4567    0.4091 C.3     1  UNL1       -0.0152
      5 C          -1.2029    1.1633    0.8862 C.3     1  UNL1        0.0278
      6 C          -0.5208    0.0754    0.1081 C.3     1  UNL1        0.1133
      7 C          -1.2553   -0.3995   -1.0902 C.3     1  UNL1        0.0278
      8 O           0.7920    0.3841   -0.2581 O.3     1  UNL1       -0.4605
      9 C           1.9335   -0.2559    0.2051 C.2     1  UNL1        0.3171
     10 O           1.9100   -1.1904    1.0108 O.2     1  UNL1       -0.2501
     11 C           3.1693    0.3161   -0.3816 C.3     1  UNL1        0.1044
     12 C           3.0076    0.2039   -1.8985 C.3     1  UNL1        0.0612
     13 O           4.1217    0.7165   -2.5594 O.3     1  UNL1       -0.3939
     14 C           4.3916   -0.3418    0.0909 C.ar    1  UNL1       -0.0315
     15 C           4.6306   -1.6946   -0.0574 C.ar    1  UNL1       -0.0577
     16 C           5.8393   -2.1852    0.4413 C.ar    1  UNL1       -0.0615
     17 C           6.7796   -1.3828    1.0619 C.ar    1  UNL1       -0.0617
     18 C           6.5267   -0.0495    1.1995 C.ar    1  UNL1       -0.0615
     19 C           5.3456    0.4663    0.7194 C.ar    1  UNL1       -0.0577
     20 N          -3.3728    0.3359   -0.0141 N.4     1  UNL1        0.2473
     21 C          -4.6239    0.9176   -0.5332 C.3     1  UNL1       -0.0405
     22 C          -3.7123   -0.6683    0.8909 C.3     1  UNL1       -0.0246
     23 C          -3.2158   -0.5133    2.3179 C.3     1  UNL1       -0.0218
     24 C          -3.2946   -2.0836    0.4733 C.3     1  UNL1       -0.0218
     25 H          -3.2351   -0.7635   -1.8419 H       1  UNL1        0.0853
     26 H          -3.7295    1.4313   -2.4850 H       1  UNL1        0.0322
     27 H          -2.0045    1.2161   -2.7835 H       1  UNL1        0.0322
     28 H          -2.9719    3.2052   -0.8920 H       1  UNL1        0.0322
     29 H          -1.3668    2.5466   -1.0804 H       1  UNL1        0.0322
     30 H          -3.1483    2.0389    1.1516 H       1  UNL1        0.0853
     31 H          -1.0801    1.0867    1.9853 H       1  UNL1        0.0356
     32 H          -0.5879    2.0867    0.6541 H       1  UNL1        0.0356
     33 H          -0.4183   -0.7818    0.8375 H       1  UNL1        0.0738
     34 H          -1.1303   -1.5193   -1.1703 H       1  UNL1        0.0356
     35 H          -0.7434   -0.0249   -2.0138 H       1  UNL1        0.0356
     36 H           3.1373    1.4117   -0.1829 H       1  UNL1        0.0485
     37 H           2.9406   -0.8943   -2.0995 H       1  UNL1        0.0568
     38 H           2.0574    0.6588   -2.1835 H       1  UNL1        0.0568
     39 H           4.3120    1.6039   -2.1880 H       1  UNL1        0.2094
     40 H           3.9084   -2.3166   -0.5352 H       1  UNL1        0.0621
     41 H           6.0439   -3.2589    0.3310 H       1  UNL1        0.0618
     42 H           7.7003   -1.8581    1.4219 H       1  UNL1        0.0618
     43 H           7.2569    0.5964    1.6860 H       1  UNL1        0.0618
     44 H           5.2012    1.5421    0.8598 H       1  UNL1        0.0621
     45 H          -5.0074    0.2907   -1.3802 H       1  UNL1        0.0778
     46 H          -5.4190    0.7817    0.2588 H       1  UNL1        0.0778
     47 H          -4.5856    1.9792   -0.7173 H       1  UNL1        0.0778
     48 H          -4.8298   -0.7801    1.0197 H       1  UNL1        0.0846
     49 H          -3.8527   -1.1080    3.0167 H       1  UNL1        0.0284
     50 H          -3.3084    0.5164    2.6593 H       1  UNL1        0.0284
     51 H          -2.2189   -0.9780    2.4134 H       1  UNL1        0.0284
     52 H          -3.9003   -2.8256    1.0761 H       1  UNL1        0.0284
     53 H          -2.2530   -2.3238    0.7915 H       1  UNL1        0.0284
     54 H          -3.5319   -2.3220   -0.5613 H       1  UNL1        0.0284
@<TRIPOS>UNITY_ATOM_ATTR
20 1
charge 1
@<TRIPOS>BOND
     1     1     2    1
     2     2     3    1
     3     3     4    1
     4     4     5    1
     5     5     6    1
     6     6     7    1
     7     6     8    1
     8     8     9    1
     9     9    10    2
    10     9    11    1
    11    11    12    1
    12    12    13    1
    13    11    14    1
    14    14    15   ar
    15    15    16   ar
    16    16    17   ar
    17    17    18   ar
    18    18    19   ar
    19     4    20    1
    20    20    21    1
    21    20    22    1
    22    22    23    1
    23    22    24    1
    24     7     1    1
    25    19    14   ar
    26    20     1    1
    27     1    25    1
    28     2    26    1
    29     2    27    1
    30     3    28    1
    31     3    29    1
    32     4    30    1
    33     5    31    1
    34     5    32    1
    35     6    33    1
    36     7    34    1
    37     7    35    1
    38    11    36    1
    39    12    37    1
    40    12    38    1
    41    13    39    1
    42    15    40    1
    43    16    41    1
    44    17    42    1
    45    18    43    1
    46    19    44    1
    47    21    45    1
    48    21    46    1
    49    21    47    1
    50    22    48    1
    51    23    49    1
    52    23    50    1
    53    23    51    1
    54    24    52    1
    55    24    53    1
    56    24    54    1
