@<TRIPOS>MOLECULE
*****
 53 56 0 0 0
SMALL
GASTEIGER

@<TRIPOS>ATOM
      1 O          -4.3996    1.2762    0.4220 O.2     1  UNL1       -0.2754
      2 C          -4.9069    0.1706    0.1480 C.2     1  UNL1        0.2186
      3 N          -4.1258   -0.8792   -0.3745 N.am    1  UNL1       -0.3122
      4 C          -2.7428   -0.8634   -0.6808 C.3     1  UNL1        0.0420
      5 C          -2.2164   -0.0293   -1.7758 C.3     1  UNL1        0.0985
      6 O          -2.8019   -0.3739   -2.9965 O.3     1  UNL1       -0.3854
      7 C          -2.1560    1.4484   -1.6254 C.3     1  UNL1       -0.0052
      8 C          -1.1755    1.5588   -0.4610 C.3     1  UNL1        0.0177
      9 N          -0.1464    0.6104   -0.8776 N.pl3   1  UNL1       -0.2967
     10 C           1.1742    0.5818   -0.3522 C.ar    1  UNL1        0.2215
     11 N           2.0676   -0.3204   -0.7847 N.ar    1  UNL1       -0.1789
     12 C           3.3277   -0.3993   -0.3295 C.ar    1  UNL1        0.2254
     13 O           4.2296   -1.3568   -0.8079 O.3     1  UNL1       -0.4378
     14 C           5.5184   -1.3873   -0.2977 C.ar    1  UNL1        0.1331
     15 C           6.5251   -0.6492   -0.8829 C.ar    1  UNL1       -0.0191
     16 C           7.8224   -0.6684   -0.3841 C.ar    1  UNL1       -0.0556
     17 C           8.1392   -1.4248    0.7083 C.ar    1  UNL1       -0.0262
     18 C           7.1488   -2.1694    1.3080 C.ar    1  UNL1        0.1269
     19 F           7.4857   -2.9127    2.3909 F       1  UNL1       -0.2054
     20 C           5.8490   -2.1473    0.8045 C.ar    1  UNL1        0.0160
     21 C           3.6912    0.5170    0.6399 C.ar    1  UNL1        0.0305
     22 C           2.7998    1.4659    1.1150 C.ar    1  UNL1        0.1522
     23 C           3.1729    2.4595    2.1574 C.3     1  UNL1        0.4345
     24 F           2.0277    2.8472    2.8020 F       1  UNL1       -0.1644
     25 F           3.8481    3.5334    1.6358 F       1  UNL1       -0.1644
     26 F           3.9586    1.7821    3.0897 F       1  UNL1       -0.1644
     27 N           1.5658    1.4527    0.5884 N.ar    1  UNL1       -0.2101
     28 C          -0.6713   -0.2834   -1.8935 C.3     1  UNL1        0.0452
     29 C          -6.3830   -0.0020    0.3955 C.3     1  UNL1        0.0604
     30 C          -6.6752   -1.0997    1.3699 C.3     1  UNL1        0.0082
     31 N          -7.3192   -0.1757    2.2573 N.3     1  UNL1       -0.3144
     32 C          -6.8742    0.9419    1.4473 C.3     1  UNL1        0.0082
     33 H          -4.6779   -1.7994   -0.5546 H       1  UNL1        0.1488
     34 H          -2.4059   -1.9338   -0.9216 H       1  UNL1        0.0491
     35 H          -2.1393   -0.6576    0.2828 H       1  UNL1        0.0491
     36 H          -3.3928   -1.1553   -2.8936 H       1  UNL1        0.2103
     37 H          -3.0616    2.0101   -1.5416 H       1  UNL1        0.0309
     38 H          -1.5627    1.8171   -2.5465 H       1  UNL1        0.0309
     39 H          -1.6643    1.2959    0.4830 H       1  UNL1        0.0465
     40 H          -0.7673    2.5857   -0.3778 H       1  UNL1        0.0465
     41 H           6.2808   -0.0438   -1.7539 H       1  UNL1        0.0654
     42 H           8.6158   -0.0877   -0.8440 H       1  UNL1        0.0620
     43 H           9.1707   -1.4274    1.0886 H       1  UNL1        0.0646
     44 H           5.1015   -2.7338    1.2887 H       1  UNL1        0.0683
     45 H           4.6763    0.5215    1.0548 H       1  UNL1        0.0692
     46 H          -0.3999   -0.0092   -2.9190 H       1  UNL1        0.0493
     47 H          -0.5302   -1.3459   -1.6816 H       1  UNL1        0.0493
     48 H          -7.0004    0.0056   -0.5065 H       1  UNL1        0.0419
     49 H          -5.8025   -1.6487    1.7628 H       1  UNL1        0.0432
     50 H          -7.4115   -1.8421    0.9765 H       1  UNL1        0.0432
     51 H          -6.9541   -0.1653    3.2362 H       1  UNL1        0.1220
     52 H          -7.7667    1.5481    1.1604 H       1  UNL1        0.0432
     53 H          -6.0658    1.5624    1.9086 H       1  UNL1        0.0432
@<TRIPOS>BOND
     1     1     2    2
     2     2     3   am
     3     3     4    1
     4     4     5    1
     5     5     6    1
     6     5     7    1
     7     7     8    1
     8     8     9    1
     9     9    10    1
    10    10    11   ar
    11    11    12   ar
    12    12    13    1
    13    13    14    1
    14    14    15   ar
    15    15    16   ar
    16    16    17   ar
    17    17    18   ar
    18    18    19    1
    19    18    20   ar
    20    12    21   ar
    21    21    22   ar
    22    22    23    1
    23    23    24    1
    24    23    25    1
    25    23    26    1
    26    22    27   ar
    27     9    28    1
    28     2    29    1
    29    29    30    1
    30    30    31    1
    31    31    32    1
    32    28     5    1
    33    32    29    1
    34    27    10   ar
    35    20    14   ar
    36     3    33    1
    37     4    34    1
    38     4    35    1
    39     6    36    1
    40     7    37    1
    41     7    38    1
    42     8    39    1
    43     8    40    1
    44    15    41    1
    45    16    42    1
    46    17    43    1
    47    20    44    1
    48    21    45    1
    49    28    46    1
    50    28    47    1
    51    29    48    1
    52    30    49    1
    53    30    50    1
    54    31    51    1
    55    32    52    1
    56    32    53    1
