
     RDKit          3D

 65 67  0  0  0  0  0  0  0  0999 V2000
   -0.1754   -1.0121   -0.6347 C   0  0  1  0  0  0  0  0  0  0  0  0
   -1.5885   -1.5578   -0.5852 C   0  0  2  0  0  0  0  0  0  0  0  0
   -1.8642   -1.8987   -2.0727 C   0  0  0  0  0  0  0  0  0  0  0  0
   -1.3082   -0.8321   -2.9890 C   0  0  1  0  0  0  0  0  0  0  0  0
   -2.2648   -0.5032   -4.1088 C   0  0  0  0  0  0  0  0  0  0  0  0
   -0.9455    0.4245   -2.2818 C   0  0  0  0  0  0  0  0  0  0  0  0
   -0.3687    0.4152   -1.0862 C   0  0  0  0  0  0  0  0  0  0  0  0
    0.0249    1.5798   -0.3073 C   0  0  0  0  0  0  0  0  0  0  0  0
    0.2279    1.3259    0.9697 C   0  0  0  0  0  0  0  0  0  0  0  0
    0.0886    0.0037    1.6266 C   0  0  2  0  0  0  0  0  0  0  0  0
    1.0285   -0.0754    2.8474 C   0  0  0  0  0  0  0  0  0  0  0  0
    0.5846   -1.0370    0.6215 C   0  0  2  0  0  0  0  0  0  0  0  0
    2.0305   -0.6856    0.3727 C   0  0  0  0  0  0  0  0  0  0  0  0
    2.7739   -1.5974   -0.5489 C   0  0  0  0  0  0  0  0  0  0  0  0
    4.2167   -1.0793   -0.6493 C   0  0  2  0  0  0  0  0  0  0  0  0
    4.9401   -1.0524    0.6393 C   0  0  0  0  0  0  0  0  0  0  0  0
    5.2541    0.3115    1.1713 C   0  0  1  0  0  0  0  0  0  0  0  0
    6.3107    0.1666    2.0994 O   0  0  0  0  0  0  0  0  0  0  0  0
    5.7901    1.2179    0.0679 C   0  0  0  0  0  0  0  0  0  0  0  0
    4.6335    1.3549   -0.8867 C   0  0  0  0  0  0  0  0  0  0  0  0
    4.0325    2.4044   -1.2902 O   0  0  0  0  0  0  0  0  0  0  0  0
    4.2091    0.1244   -1.3579 O   0  0  0  0  0  0  0  0  0  0  0  0
   -2.4509   -0.5415   -0.1999 O   0  0  0  0  0  0  0  0  0  0  0  0
   -3.4163   -0.5413    0.7602 C   0  0  0  0  0  0  0  0  0  0  0  0
   -3.5321   -1.6089    1.3715 O   0  0  0  0  0  0  0  0  0  0  0  0
   -4.1262    0.7616    0.8606 C   0  0  1  0  0  0  0  0  0  0  0  0
   -4.7559    1.0071   -0.4852 C   0  0  0  0  0  0  0  0  0  0  0  0
   -5.1327    0.7765    1.9782 C   0  0  0  0  0  0  0  0  0  0  0  0
   -5.7957    2.1372    1.9959 C   0  0  0  0  0  0  0  0  0  0  0  0
    0.3946   -1.5344   -1.4415 H   0  0  0  0  0  0  0  0  0  0  0  0
   -1.6772   -2.5006   -0.0205 H   0  0  0  0  0  0  0  0  0  0  0  0
   -1.2841   -2.8288   -2.2517 H   0  0  0  0  0  0  0  0  0  0  0  0
   -2.9448   -2.0667   -2.2172 H   0  0  0  0  0  0  0  0  0  0  0  0
   -0.3425   -1.1734   -3.4649 H   0  0  0  0  0  0  0  0  0  0  0  0
   -2.7534   -1.4549   -4.4150 H   0  0  0  0  0  0  0  0  0  0  0  0
   -1.6698   -0.1531   -4.9761 H   0  0  0  0  0  0  0  0  0  0  0  0
   -2.9826    0.2534   -3.7498 H   0  0  0  0  0  0  0  0  0  0  0  0
   -1.1370    1.4221   -2.7144 H   0  0  0  0  0  0  0  0  0  0  0  0
    0.1068    2.5090   -0.8469 H   0  0  0  0  0  0  0  0  0  0  0  0
    0.5267    2.2022    1.5693 H   0  0  0  0  0  0  0  0  0  0  0  0
   -0.8934   -0.2126    2.0382 H   0  0  0  0  0  0  0  0  0  0  0  0
    1.3488   -1.1287    2.9102 H   0  0  0  0  0  0  0  0  0  0  0  0
    0.4798    0.1486    3.7773 H   0  0  0  0  0  0  0  0  0  0  0  0
    1.8519    0.6521    2.6997 H   0  0  0  0  0  0  0  0  0  0  0  0
    0.5958   -2.0369    1.1199 H   0  0  0  0  0  0  0  0  0  0  0  0
    2.1384    0.3422   -0.0528 H   0  0  0  0  0  0  0  0  0  0  0  0
    2.6096   -0.6431    1.3231 H   0  0  0  0  0  0  0  0  0  0  0  0
    2.3096   -1.6027   -1.5382 H   0  0  0  0  0  0  0  0  0  0  0  0
    2.7659   -2.6056   -0.0661 H   0  0  0  0  0  0  0  0  0  0  0  0
    4.7394   -1.8235   -1.3159 H   0  0  0  0  0  0  0  0  0  0  0  0
    5.9194   -1.6073    0.5940 H   0  0  0  0  0  0  0  0  0  0  0  0
    4.3608   -1.6017    1.4082 H   0  0  0  0  0  0  0  0  0  0  0  0
    4.4406    0.8362    1.6700 H   0  0  0  0  0  0  0  0  0  0  0  0
    6.3577    0.9524    2.7114 H   0  0  0  0  0  0  0  0  0  0  0  0
    6.6496    0.7735   -0.4390 H   0  0  0  0  0  0  0  0  0  0  0  0
    6.0848    2.1731    0.5023 H   0  0  0  0  0  0  0  0  0  0  0  0
   -3.3552    1.5409    1.0261 H   0  0  0  0  0  0  0  0  0  0  0  0
   -5.1228    0.0313   -0.8638 H   0  0  0  0  0  0  0  0  0  0  0  0
   -3.9155    1.3236   -1.1576 H   0  0  0  0  0  0  0  0  0  0  0  0
   -5.5508    1.7781   -0.4497 H   0  0  0  0  0  0  0  0  0  0  0  0
   -4.6794    0.4882    2.9374 H   0  0  0  0  0  0  0  0  0  0  0  0
   -5.9412    0.0591    1.6706 H   0  0  0  0  0  0  0  0  0  0  0  0
   -5.0973    2.9511    1.7151 H   0  0  0  0  0  0  0  0  0  0  0  0
   -6.0802    2.3500    3.0585 H   0  0  0  0  0  0  0  0  0  0  0  0
   -6.6738    2.1984    1.3514 H   0  0  0  0  0  0  0  0  0  0  0  0
  1  2  1  0
  2  3  1  0
  3  4  1  0
  4  5  1  0
  4  6  1  0
  6  7  2  0
  7  8  1  0
  8  9  2  0
  9 10  1  0
 10 11  1  0
 10 12  1  0
 12 13  1  0
 13 14  1  0
 14 15  1  0
 15 16  1  0
 16 17  1  0
 17 18  1  0
 17 19  1  0
 19 20  1  0
 20 21  2  0
 20 22  1  0
  2 23  1  0
 23 24  1  0
 24 25  2  0
 24 26  1  0
 26 27  1  0
 26 28  1  0
 28 29  1  0
  7  1  1  0
 22 15  1  0
 12  1  1  0
  1 30  1  6
  2 31  1  1
  3 32  1  0
  3 33  1  0
  4 34  1  6
  5 35  1  0
  5 36  1  0
  5 37  1  0
  6 38  1  0
  8 39  1  0
  9 40  1  0
 10 41  1  1
 11 42  1  0
 11 43  1  0
 11 44  1  0
 12 45  1  1
 13 46  1  0
 13 47  1  0
 14 48  1  0
 14 49  1  0
 15 50  1  6
 16 51  1  0
 16 52  1  0
 17 53  1  1
 18 54  1  0
 19 55  1  0
 19 56  1  0
 26 57  1  1
 27 58  1  0
 27 59  1  0
 27 60  1  0
 28 61  1  0
 28 62  1  0
 29 63  1  0
 29 64  1  0
 29 65  1  0
M  END
$$$$
