@<TRIPOS>MOLECULE
*****
 45 48 0 0 0
SMALL
GASTEIGER

@<TRIPOS>ATOM
      1 N           7.6881    0.8262    2.1586 N.pl3   1  UNL1       -0.2497
      2 C           6.4601    0.1146    2.0827 C.2     1  UNL1        0.2662
      3 N           6.2414   -0.7841    2.9819 N.2     1  UNL1       -0.2884
      4 C           5.4166    0.2951    1.0898 C.ar    1  UNL1        0.0629
      5 C           5.8603    0.7126   -0.1628 C.ar    1  UNL1       -0.0450
      6 C           4.8803    0.8963   -1.1425 C.ar    1  UNL1       -0.0354
      7 C           3.5304    0.6657   -0.8539 C.ar    1  UNL1        0.0665
      8 N           2.4139    0.7658   -1.6003 N.ar    1  UNL1       -0.3379
      9 C           1.3630    0.4343   -0.8606 C.ar    1  UNL1        0.1388
     10 N           1.8000    0.1128    0.3879 N.ar    1  UNL1       -0.2277
     11 C           3.1431    0.2496    0.4144 C.ar    1  UNL1        0.0903
     12 C           4.0948    0.0594    1.4060 C.ar    1  UNL1       -0.0195
     13 C          -0.0277    0.4146   -1.3014 C.ar    1  UNL1        0.0130
     14 C          -0.2527    0.7777   -2.6137 C.ar    1  UNL1       -0.0515
     15 C          -1.5642    0.7627   -3.0413 C.ar    1  UNL1       -0.0577
     16 C          -2.6166    0.4087   -2.2260 C.ar    1  UNL1       -0.0205
     17 C          -2.4024    0.0449   -0.9150 C.ar    1  UNL1        0.1139
     18 O          -3.2440   -0.3472    0.1066 O.3     1  UNL1       -0.4894
     19 C          -4.6169   -0.4399   -0.0802 C.3     1  UNL1        0.1002
     20 C          -5.1656   -1.8182    0.2169 C.3     1  UNL1       -0.0158
     21 C          -6.6640   -1.5307    0.1998 C.3     1  UNL1       -0.0496
     22 C          -6.8150   -0.1009    0.6800 C.3     1  UNL1       -0.0496
     23 C          -5.4049    0.4299    0.8781 C.3     1  UNL1       -0.0158
     24 C          -1.0777    0.0524   -0.4572 C.ar    1  UNL1       -0.0545
     25 O          -0.6534   -0.2820    0.8306 O.co2   1  UNL1       -0.8709
     26 H           8.1186    1.6719    2.6254 H       1  UNL1        0.2883
     27 H           8.5390    0.5096    1.6134 H       1  UNL1        0.2883
     28 H           6.3497   -1.4120    3.8051 H       1  UNL1        0.3009
     29 H           5.3828   -1.3743    3.0383 H       1  UNL1        0.3009
     30 H           6.9107    0.8859   -0.3667 H       1  UNL1        0.0627
     31 H           5.1988    1.2227   -2.1321 H       1  UNL1        0.0639
     32 H           2.4495    1.0675   -2.6095 H       1  UNL1        0.1674
     33 H           3.7862   -0.2632    2.3866 H       1  UNL1        0.0648
     34 H           0.5240    1.0640   -3.3003 H       1  UNL1        0.0624
     35 H          -1.8622    1.0310   -4.0592 H       1  UNL1        0.0619
     36 H          -3.6563    0.3742   -2.4883 H       1  UNL1        0.0654
     37 H          -4.9839   -0.1814   -1.0907 H       1  UNL1        0.0733
     38 H          -4.9406   -2.4697   -0.6431 H       1  UNL1        0.0301
     39 H          -4.8113   -2.2483    1.1585 H       1  UNL1        0.0301
     40 H          -7.0611   -1.6309   -0.8436 H       1  UNL1        0.0266
     41 H          -7.1406   -2.2526    0.8767 H       1  UNL1        0.0266
     42 H          -7.3569    0.4820   -0.1132 H       1  UNL1        0.0266
     43 H          -7.3997   -0.0748    1.6096 H       1  UNL1        0.0266
     44 H          -5.3897    1.4606    0.4488 H       1  UNL1        0.0301
     45 H          -5.0442    0.3580    1.9060 H       1  UNL1        0.0301
@<TRIPOS>UNITY_ATOM_ATTR
3 1
charge 1
25 1
charge -1
@<TRIPOS>BOND
     1     1     2    1
     2     2     3    2
     3     2     4    1
     4     4     5   ar
     5     5     6   ar
     6     6     7   ar
     7     7     8   ar
     8     8     9   ar
     9     9    10   ar
    10    10    11   ar
    11    11    12   ar
    12     9    13    1
    13    13    14   ar
    14    14    15   ar
    15    15    16   ar
    16    16    17   ar
    17    17    18    1
    18    18    19    1
    19    19    20    1
    20    20    21    1
    21    21    22    1
    22    22    23    1
    23    17    24   ar
    24    24    25    1
    25    12     4   ar
    26    24    13   ar
    27    11     7   ar
    28    23    19    1
    29     1    26    1
    30     1    27    1
    31     3    28    1
    32     3    29    1
    33     5    30    1
    34     6    31    1
    35     8    32    1
    36    12    33    1
    37    14    34    1
    38    15    35    1
    39    16    36    1
    40    19    37    1
    41    20    38    1
    42    20    39    1
    43    21    40    1
    44    21    41    1
    45    22    42    1
    46    22    43    1
    47    23    44    1
    48    23    45    1
