@<TRIPOS>MOLECULE
*****
 94 101 0 0 0
SMALL
GASTEIGER

@<TRIPOS>ATOM
      1 C          -4.0268    4.5906    0.9740 C.3     1  UNL1       -0.0572
      2 C          -3.5706    3.5990    1.9888 C.3     1  UNL1       -0.0025
      3 C          -4.5444    3.4464    3.1526 C.3     1  UNL1       -0.0572
      4 C          -3.3390    2.2247    1.4169 C.ar    1  UNL1        0.0679
      5 C          -2.3339    1.3475    1.7570 C.ar    1  UNL1        0.0018
      6 C          -2.4587    0.1750    0.9887 C.ar    1  UNL1        0.1299
      7 N          -1.6066   -0.9445    1.1053 N.am    1  UNL1       -0.2538
      8 C          -0.2884   -0.9348    0.5113 C.2     1  UNL1        0.3092
      9 O           0.0793    0.0783   -0.0910 O.2     1  UNL1       -0.2521
     10 N           0.5707   -2.0558    0.6178 N.am    1  UNL1       -0.2686
     11 C           1.8999   -2.1002    0.0949 C.ar    1  UNL1        0.0427
     12 C           2.1816   -2.4343   -1.2011 C.ar    1  UNL1       -0.0363
     13 C           3.5000   -2.4830   -1.6332 C.ar    1  UNL1       -0.0169
     14 C           4.5377   -2.1989   -0.7812 C.ar    1  UNL1        0.1381
     15 O           5.8796   -2.2300   -1.1593 O.3     1  UNL1       -0.4373
     16 C           6.6061   -1.0311   -1.1785 C.ar    1  UNL1        0.2249
     17 C           6.0494    0.2023   -0.9324 C.ar    1  UNL1        0.0186
     18 C           6.8803    1.2953   -0.9886 C.ar    1  UNL1        0.0362
     19 N           8.1906    1.2080   -1.2688 N.ar    1  UNL1       -0.2225
     20 C           8.7290   -0.0275   -1.5117 C.ar    1  UNL1        0.2226
     21 N          10.1131   -0.1455   -1.8068 N.pl3   1  UNL1       -0.2835
     22 C          11.0400    0.1206   -0.7510 C.ar    1  UNL1        0.0343
     23 C          10.6303    0.6154    0.4451 C.ar    1  UNL1       -0.0384
     24 C          11.5440    0.8663    1.4371 C.ar    1  UNL1       -0.0345
     25 C          12.8873    0.6273    1.2532 C.ar    1  UNL1        0.0658
     26 N          13.9732    0.7736    2.0197 N.ar    1  UNL1       -0.2770
     27 N          15.0608    0.3887    1.3551 N.ar    1  UNL1       -0.1812
     28 C          14.6657   -0.0192    0.1183 C.ar    1  UNL1        0.0569
     29 C          13.2999    0.1276    0.0448 C.ar    1  UNL1        0.0212
     30 C          12.3690   -0.1243   -0.9557 C.ar    1  UNL1       -0.0298
     31 N           7.9148   -1.0705   -1.4542 N.ar    1  UNL1       -0.1789
     32 C           4.2865   -1.8536    0.5572 C.ar    1  UNL1        0.0262
     33 C           5.3182   -1.5860    1.4443 C.ar    1  UNL1       -0.0505
     34 C           4.9727   -1.2685    2.7605 C.ar    1  UNL1       -0.0611
     35 C           3.6778   -1.2177    3.1862 C.ar    1  UNL1       -0.0611
     36 C           2.6818   -1.4918    2.2769 C.ar    1  UNL1       -0.0521
     37 C           2.9650   -1.8164    0.9462 C.ar    1  UNL1        0.0069
     38 N          -3.5241    0.3737    0.2144 N.ar    1  UNL1       -0.2180
     39 C          -4.0854   -0.5328   -0.7252 C.ar    1  UNL1        0.0709
     40 C          -3.5470   -1.7384   -1.0501 C.ar    1  UNL1       -0.0360
     41 C          -4.2161   -2.5474   -1.9749 C.ar    1  UNL1       -0.0563
     42 C          -5.3908   -2.1534   -2.5544 C.ar    1  UNL1       -0.0198
     43 C          -5.9709   -0.9167   -2.2410 C.ar    1  UNL1        0.1226
     44 O          -7.1306   -0.6220   -2.8698 O.3     1  UNL1       -0.4906
     45 C          -7.9821    0.4437   -2.8406 C.3     1  UNL1        0.1022
     46 C          -8.6695    0.8098   -1.5825 C.3     1  UNL1        0.0333
     47 N          -9.5369   -0.2418   -1.0284 N.3     1  UNL1       -0.2948
     48 C         -10.6445   -0.3974   -1.9437 C.3     1  UNL1        0.0225
     49 C         -11.9242    0.1883   -1.3841 C.3     1  UNL1        0.0604
     50 O         -12.2185   -0.5149   -0.2359 O.3     1  UNL1       -0.3772
     51 C         -11.2917   -0.2167    0.7272 C.3     1  UNL1        0.0604
     52 C          -9.9767    0.2856    0.2534 C.3     1  UNL1        0.0225
     53 C          -5.2885   -0.1505   -1.3317 C.ar    1  UNL1        0.0056
     54 N          -4.0367    1.5912    0.4770 N.ar    1  UNL1       -0.1694
     55 H          -3.6903    4.2293   -0.0287 H       1  UNL1        0.0236
     56 H          -3.5169    5.5642    1.1582 H       1  UNL1        0.0236
     57 H          -5.1300    4.6951    1.0432 H       1  UNL1        0.0236
     58 H          -2.6032    3.8982    2.4830 H       1  UNL1        0.0359
     59 H          -4.0301    3.3960    4.1321 H       1  UNL1        0.0236
     60 H          -5.1194    2.4865    3.0245 H       1  UNL1        0.0236
     61 H          -5.2743    4.2672    3.1623 H       1  UNL1        0.0236
     62 H          -1.5841    1.5496    2.4975 H       1  UNL1        0.0671
     63 H          -1.8547   -1.8263    1.6010 H       1  UNL1        0.1578
     64 H           0.2073   -2.9168    1.1151 H       1  UNL1        0.1564
     65 H           1.3577   -2.6520   -1.8584 H       1  UNL1        0.0637
     66 H           3.7426   -2.7506   -2.6712 H       1  UNL1        0.0655
     67 H           4.9875    0.2788   -0.7093 H       1  UNL1        0.0686
     68 H           6.4635    2.2966   -0.7953 H       1  UNL1        0.0832
     69 H          10.4275   -0.4096   -2.7452 H       1  UNL1        0.1550
     70 H           9.5804    0.8211    0.6367 H       1  UNL1        0.0637
     71 H          11.2698    1.2698    2.4224 H       1  UNL1        0.0639
     72 H          14.0238    1.1354    3.0111 H       1  UNL1        0.1889
     73 H          15.2798   -0.3875   -0.6648 H       1  UNL1        0.0854
     74 H          12.6995   -0.5229   -1.9154 H       1  UNL1        0.0643
     75 H           6.3493   -1.6384    1.1464 H       1  UNL1        0.0625
     76 H           5.7807   -1.0587    3.4560 H       1  UNL1        0.0618
     77 H           3.4409   -0.9699    4.2083 H       1  UNL1        0.0618
     78 H           1.6325   -1.4686    2.5469 H       1  UNL1        0.0624
     79 H          -2.6367   -2.0685   -0.6190 H       1  UNL1        0.0639
     80 H          -3.7781   -3.4983   -2.2241 H       1  UNL1        0.0619
     81 H          -5.8938   -2.7837   -3.2639 H       1  UNL1        0.0654
     82 H          -8.6790    0.3921   -3.7216 H       1  UNL1        0.0709
     83 H          -7.3463    1.3623   -3.1090 H       1  UNL1        0.0709
     84 H          -9.3428    1.6920   -1.8313 H       1  UNL1        0.0460
     85 H          -7.9858    1.1172   -0.7984 H       1  UNL1        0.0460
     86 H         -10.4878    0.0540   -2.9163 H       1  UNL1        0.0449
     87 H         -10.8192   -1.4927   -2.0559 H       1  UNL1        0.0449
     88 H         -12.7355   -0.0269   -2.1309 H       1  UNL1        0.0572
     89 H         -11.8530    1.2551   -1.1794 H       1  UNL1        0.0572
     90 H         -11.2198   -1.0901    1.4393 H       1  UNL1        0.0572
     91 H         -11.7234    0.6013    1.3821 H       1  UNL1        0.0572
     92 H          -9.9313    1.4073    0.2140 H       1  UNL1        0.0449
     93 H          -9.1954    0.0020    0.9946 H       1  UNL1        0.0449
     94 H          -5.7137    0.8114   -1.0844 H       1  UNL1        0.0675
@<TRIPOS>BOND
     1     1     2    1
     2     2     3    1
     3     2     4    1
     4     4     5   ar
     5     5     6   ar
     6     6     7    1
     7     7     8   am
     8     8     9    2
     9     8    10   am
    10    10    11    1
    11    11    12   ar
    12    12    13   ar
    13    13    14   ar
    14    14    15    1
    15    15    16    1
    16    16    17   ar
    17    17    18   ar
    18    18    19   ar
    19    19    20   ar
    20    20    21    1
    21    21    22    1
    22    22    23   ar
    23    23    24   ar
    24    24    25   ar
    25    25    26   ar
    26    26    27   ar
    27    27    28   ar
    28    28    29   ar
    29    29    30   ar
    30    20    31   ar
    31    14    32   ar
    32    32    33   ar
    33    33    34   ar
    34    34    35   ar
    35    35    36   ar
    36    36    37   ar
    37     6    38   ar
    38    38    39    1
    39    39    40   ar
    40    40    41   ar
    41    41    42   ar
    42    42    43   ar
    43    43    44    1
    44    44    45    1
    45    45    46    1
    46    46    47    1
    47    47    48    1
    48    48    49    1
    49    49    50    1
    50    50    51    1
    51    51    52    1
    52    43    53   ar
    53    38    54   ar
    54    54     4   ar
    55    37    11   ar
    56    53    39   ar
    57    31    16   ar
    58    37    32   ar
    59    52    47    1
    60    30    22   ar
    61    29    25   ar
    62     1    55    1
    63     1    56    1
    64     1    57    1
    65     2    58    1
    66     3    59    1
    67     3    60    1
    68     3    61    1
    69     5    62    1
    70     7    63    1
    71    10    64    1
    72    12    65    1
    73    13    66    1
    74    17    67    1
    75    18    68    1
    76    21    69    1
    77    23    70    1
    78    24    71    1
    79    26    72    1
    80    28    73    1
    81    30    74    1
    82    33    75    1
    83    34    76    1
    84    35    77    1
    85    36    78    1
    86    40    79    1
    87    41    80    1
    88    42    81    1
    89    45    82    1
    90    45    83    1
    91    46    84    1
    92    46    85    1
    93    48    86    1
    94    48    87    1
    95    49    88    1
    96    49    89    1
    97    51    90    1
    98    51    91    1
    99    52    92    1
   100    52    93    1
   101    53    94    1
