
     RDKit          3D

 94101  0  0  0  0  0  0  0  0999 V2000
   -4.0268    4.5906    0.9740 C   0  0  0  0  0  0  0  0  0  0  0  0
   -3.5706    3.5990    1.9888 C   0  0  0  0  0  0  0  0  0  0  0  0
   -4.5444    3.4464    3.1526 C   0  0  0  0  0  0  0  0  0  0  0  0
   -3.3390    2.2247    1.4169 C   0  0  0  0  0  0  0  0  0  0  0  0
   -2.3339    1.3475    1.7570 C   0  0  0  0  0  0  0  0  0  0  0  0
   -2.4587    0.1750    0.9887 C   0  0  0  0  0  0  0  0  0  0  0  0
   -1.6066   -0.9445    1.1053 N   0  0  0  0  0  0  0  0  0  0  0  0
   -0.2884   -0.9348    0.5113 C   0  0  0  0  0  0  0  0  0  0  0  0
    0.0793    0.0783   -0.0910 O   0  0  0  0  0  0  0  0  0  0  0  0
    0.5707   -2.0558    0.6178 N   0  0  0  0  0  0  0  0  0  0  0  0
    1.8999   -2.1002    0.0949 C   0  0  0  0  0  0  0  0  0  0  0  0
    2.1816   -2.4343   -1.2011 C   0  0  0  0  0  0  0  0  0  0  0  0
    3.5000   -2.4830   -1.6332 C   0  0  0  0  0  0  0  0  0  0  0  0
    4.5377   -2.1989   -0.7812 C   0  0  0  0  0  0  0  0  0  0  0  0
    5.8796   -2.2300   -1.1593 O   0  0  0  0  0  0  0  0  0  0  0  0
    6.6061   -1.0311   -1.1785 C   0  0  0  0  0  0  0  0  0  0  0  0
    6.0494    0.2023   -0.9324 C   0  0  0  0  0  0  0  0  0  0  0  0
    6.8803    1.2953   -0.9886 C   0  0  0  0  0  0  0  0  0  0  0  0
    8.1906    1.2080   -1.2688 N   0  0  0  0  0  0  0  0  0  0  0  0
    8.7290   -0.0275   -1.5117 C   0  0  0  0  0  0  0  0  0  0  0  0
   10.1131   -0.1455   -1.8068 N   0  0  0  0  0  0  0  0  0  0  0  0
   11.0400    0.1206   -0.7510 C   0  0  0  0  0  0  0  0  0  0  0  0
   10.6303    0.6154    0.4451 C   0  0  0  0  0  0  0  0  0  0  0  0
   11.5440    0.8663    1.4371 C   0  0  0  0  0  0  0  0  0  0  0  0
   12.8873    0.6273    1.2532 C   0  0  0  0  0  0  0  0  0  0  0  0
   13.9732    0.7736    2.0197 N   0  0  0  0  0  0  0  0  0  0  0  0
   15.0608    0.3887    1.3551 N   0  0  0  0  0  0  0  0  0  0  0  0
   14.6657   -0.0192    0.1183 C   0  0  0  0  0  0  0  0  0  0  0  0
   13.2999    0.1276    0.0448 C   0  0  0  0  0  0  0  0  0  0  0  0
   12.3690   -0.1243   -0.9557 C   0  0  0  0  0  0  0  0  0  0  0  0
    7.9148   -1.0705   -1.4542 N   0  0  0  0  0  0  0  0  0  0  0  0
    4.2865   -1.8536    0.5572 C   0  0  0  0  0  0  0  0  0  0  0  0
    5.3182   -1.5860    1.4443 C   0  0  0  0  0  0  0  0  0  0  0  0
    4.9727   -1.2685    2.7605 C   0  0  0  0  0  0  0  0  0  0  0  0
    3.6778   -1.2177    3.1862 C   0  0  0  0  0  0  0  0  0  0  0  0
    2.6818   -1.4918    2.2769 C   0  0  0  0  0  0  0  0  0  0  0  0
    2.9650   -1.8164    0.9462 C   0  0  0  0  0  0  0  0  0  0  0  0
   -3.5241    0.3737    0.2144 N   0  0  0  0  0  0  0  0  0  0  0  0
   -4.0854   -0.5328   -0.7252 C   0  0  0  0  0  0  0  0  0  0  0  0
   -3.5470   -1.7384   -1.0501 C   0  0  0  0  0  0  0  0  0  0  0  0
   -4.2161   -2.5474   -1.9749 C   0  0  0  0  0  0  0  0  0  0  0  0
   -5.3908   -2.1534   -2.5544 C   0  0  0  0  0  0  0  0  0  0  0  0
   -5.9709   -0.9167   -2.2410 C   0  0  0  0  0  0  0  0  0  0  0  0
   -7.1306   -0.6220   -2.8698 O   0  0  0  0  0  0  0  0  0  0  0  0
   -7.9821    0.4437   -2.8406 C   0  0  0  0  0  0  0  0  0  0  0  0
   -8.6695    0.8098   -1.5825 C   0  0  0  0  0  0  0  0  0  0  0  0
   -9.5369   -0.2418   -1.0284 N   0  0  0  0  0  0  0  0  0  0  0  0
  -10.6445   -0.3974   -1.9437 C   0  0  0  0  0  0  0  0  0  0  0  0
  -11.9242    0.1883   -1.3841 C   0  0  0  0  0  0  0  0  0  0  0  0
  -12.2185   -0.5149   -0.2359 O   0  0  0  0  0  0  0  0  0  0  0  0
  -11.2917   -0.2167    0.7272 C   0  0  0  0  0  0  0  0  0  0  0  0
   -9.9767    0.2856    0.2534 C   0  0  0  0  0  0  0  0  0  0  0  0
   -5.2885   -0.1505   -1.3317 C   0  0  0  0  0  0  0  0  0  0  0  0
   -4.0367    1.5912    0.4770 N   0  0  0  0  0  0  0  0  0  0  0  0
   -3.6903    4.2293   -0.0287 H   0  0  0  0  0  0  0  0  0  0  0  0
   -3.5169    5.5642    1.1582 H   0  0  0  0  0  0  0  0  0  0  0  0
   -5.1300    4.6951    1.0432 H   0  0  0  0  0  0  0  0  0  0  0  0
   -2.6032    3.8982    2.4830 H   0  0  0  0  0  0  0  0  0  0  0  0
   -4.0301    3.3960    4.1321 H   0  0  0  0  0  0  0  0  0  0  0  0
   -5.1194    2.4865    3.0245 H   0  0  0  0  0  0  0  0  0  0  0  0
   -5.2743    4.2672    3.1623 H   0  0  0  0  0  0  0  0  0  0  0  0
   -1.5841    1.5496    2.4975 H   0  0  0  0  0  0  0  0  0  0  0  0
   -1.8547   -1.8263    1.6010 H   0  0  0  0  0  0  0  0  0  0  0  0
    0.2073   -2.9168    1.1151 H   0  0  0  0  0  0  0  0  0  0  0  0
    1.3577   -2.6520   -1.8584 H   0  0  0  0  0  0  0  0  0  0  0  0
    3.7426   -2.7506   -2.6712 H   0  0  0  0  0  0  0  0  0  0  0  0
    4.9875    0.2788   -0.7093 H   0  0  0  0  0  0  0  0  0  0  0  0
    6.4635    2.2966   -0.7953 H   0  0  0  0  0  0  0  0  0  0  0  0
   10.4275   -0.4096   -2.7452 H   0  0  0  0  0  0  0  0  0  0  0  0
    9.5804    0.8211    0.6367 H   0  0  0  0  0  0  0  0  0  0  0  0
   11.2698    1.2698    2.4224 H   0  0  0  0  0  0  0  0  0  0  0  0
   14.0238    1.1354    3.0111 H   0  0  0  0  0  0  0  0  0  0  0  0
   15.2798   -0.3875   -0.6648 H   0  0  0  0  0  0  0  0  0  0  0  0
   12.6995   -0.5229   -1.9154 H   0  0  0  0  0  0  0  0  0  0  0  0
    6.3493   -1.6384    1.1464 H   0  0  0  0  0  0  0  0  0  0  0  0
    5.7807   -1.0587    3.4560 H   0  0  0  0  0  0  0  0  0  0  0  0
    3.4409   -0.9699    4.2083 H   0  0  0  0  0  0  0  0  0  0  0  0
    1.6325   -1.4686    2.5469 H   0  0  0  0  0  0  0  0  0  0  0  0
   -2.6367   -2.0685   -0.6190 H   0  0  0  0  0  0  0  0  0  0  0  0
   -3.7781   -3.4983   -2.2241 H   0  0  0  0  0  0  0  0  0  0  0  0
   -5.8938   -2.7837   -3.2639 H   0  0  0  0  0  0  0  0  0  0  0  0
   -8.6790    0.3921   -3.7216 H   0  0  0  0  0  0  0  0  0  0  0  0
   -7.3463    1.3623   -3.1090 H   0  0  0  0  0  0  0  0  0  0  0  0
   -9.3428    1.6920   -1.8313 H   0  0  0  0  0  0  0  0  0  0  0  0
   -7.9858    1.1172   -0.7984 H   0  0  0  0  0  0  0  0  0  0  0  0
  -10.4878    0.0540   -2.9163 H   0  0  0  0  0  0  0  0  0  0  0  0
  -10.8192   -1.4927   -2.0559 H   0  0  0  0  0  0  0  0  0  0  0  0
  -12.7355   -0.0269   -2.1309 H   0  0  0  0  0  0  0  0  0  0  0  0
  -11.8530    1.2551   -1.1794 H   0  0  0  0  0  0  0  0  0  0  0  0
  -11.2198   -1.0901    1.4393 H   0  0  0  0  0  0  0  0  0  0  0  0
  -11.7234    0.6013    1.3821 H   0  0  0  0  0  0  0  0  0  0  0  0
   -9.9313    1.4073    0.2140 H   0  0  0  0  0  0  0  0  0  0  0  0
   -9.1954    0.0020    0.9946 H   0  0  0  0  0  0  0  0  0  0  0  0
   -5.7137    0.8114   -1.0844 H   0  0  0  0  0  0  0  0  0  0  0  0
  1  2  1  0
  2  3  1  0
  2  4  1  0
  4  5  1  0
  5  6  2  0
  6  7  1  0
  7  8  1  0
  8  9  2  0
  8 10  1  0
 10 11  1  0
 11 12  2  0
 12 13  1  0
 13 14  2  0
 14 15  1  0
 15 16  1  0
 16 17  2  0
 17 18  1  0
 18 19  2  0
 19 20  1  0
 20 21  1  0
 21 22  1  0
 22 23  2  0
 23 24  1  0
 24 25  2  0
 25 26  1  0
 26 27  1  0
 27 28  2  0
 28 29  1  0
 29 30  2  0
 20 31  2  0
 14 32  1  0
 32 33  2  0
 33 34  1  0
 34 35  2  0
 35 36  1  0
 36 37  2  0
  6 38  1  0
 38 39  1  0
 39 40  2  0
 40 41  1  0
 41 42  2  0
 42 43  1  0
 43 44  1  0
 44 45  1  0
 45 46  1  0
 46 47  1  0
 47 48  1  0
 48 49  1  0
 49 50  1  0
 50 51  1  0
 51 52  1  0
 43 53  2  0
 38 54  1  0
 54  4  2  0
 37 11  1  0
 53 39  1  0
 31 16  1  0
 37 32  1  0
 52 47  1  0
 30 22  1  0
 29 25  1  0
  1 55  1  0
  1 56  1  0
  1 57  1  0
  2 58  1  0
  3 59  1  0
  3 60  1  0
  3 61  1  0
  5 62  1  0
  7 63  1  0
 10 64  1  0
 12 65  1  0
 13 66  1  0
 17 67  1  0
 18 68  1  0
 21 69  1  0
 23 70  1  0
 24 71  1  0
 26 72  1  0
 28 73  1  0
 30 74  1  0
 33 75  1  0
 34 76  1  0
 35 77  1  0
 36 78  1  0
 40 79  1  0
 41 80  1  0
 42 81  1  0
 45 82  1  0
 45 83  1  0
 46 84  1  0
 46 85  1  0
 48 86  1  0
 48 87  1  0
 49 88  1  0
 49 89  1  0
 51 90  1  0
 51 91  1  0
 52 92  1  0
 52 93  1  0
 53 94  1  0
M  END
$$$$
