
     RDKit          3D

 45 48  0  0  0  0  0  0  0  0999 V2000
    6.2530    0.3431    0.4385 C   0  0  0  0  0  0  0  0  0  0  0  0
    4.7757    0.3919    0.5298 C   0  0  0  0  0  0  0  0  0  0  0  0
    3.9035    0.4182   -0.5392 C   0  0  0  0  0  0  0  0  0  0  0  0
    2.6536    0.4604   -0.0231 C   0  0  0  0  0  0  0  0  0  0  0  0
    1.3244    0.5031   -0.7374 C   0  0  1  0  0  0  0  0  0  0  0  0
    0.7370   -0.8365   -0.9266 C   0  0  0  0  0  0  0  0  0  0  0  0
   -0.6020   -1.0830   -0.3408 C   0  0  1  0  0  0  0  0  0  0  0  0
   -0.4970   -2.3314    0.4986 C   0  0  1  0  0  0  0  0  0  0  0  0
    0.3270   -2.2150    1.7300 C   0  0  0  0  0  0  0  0  0  0  0  0
   -2.1625   -2.8530    1.0807 S   0  0  0  0  0  0  0  0  0  0  0  0
   -2.7450   -1.2828    1.7877 C   0  0  0  0  0  0  0  0  0  0  0  0
   -3.7026   -1.3487    2.8305 N   0  0  0  0  0  0  0  0  0  0  0  0
   -2.2564   -0.2491    1.3008 N   0  0  0  0  0  0  0  0  0  0  0  0
   -1.3138    0.0736    0.2850 C   0  0  2  0  0  0  0  0  0  0  0  0
   -2.1049    0.8612   -0.7254 C   0  0  0  0  0  0  0  0  0  0  0  0
   -1.8203    2.1657   -1.0032 C   0  0  0  0  0  0  0  0  0  0  0  0
   -2.5884    2.9037   -1.9267 C   0  0  0  0  0  0  0  0  0  0  0  0
   -3.6386    2.3364   -2.5692 C   0  0  0  0  0  0  0  0  0  0  0  0
   -4.3774    3.0730   -3.4680 F   0  0  0  0  0  0  0  0  0  0  0  0
   -3.9378    1.0251   -2.2997 C   0  0  0  0  0  0  0  0  0  0  0  0
   -3.1772    0.3020   -1.3887 C   0  0  0  0  0  0  0  0  0  0  0  0
   -3.5488   -0.9643   -1.1978 F   0  0  0  0  0  0  0  0  0  0  0  0
   -0.2494    0.9621    0.8810 C   0  0  0  0  0  0  0  0  0  0  0  0
    0.5649    1.4205   -0.0988 O   0  0  0  0  0  0  0  0  0  0  0  0
    2.7238    0.4610    1.2783 O   0  0  0  0  0  0  0  0  0  0  0  0
    3.9733    0.4207    1.6081 N   0  0  0  0  0  0  0  0  0  0  0  0
    6.5942    1.2452   -0.1096 H   0  0  0  0  0  0  0  0  0  0  0  0
    6.6554    0.3832    1.4751 H   0  0  0  0  0  0  0  0  0  0  0  0
    6.5720   -0.6004   -0.0428 H   0  0  0  0  0  0  0  0  0  0  0  0
    4.1354    0.4081   -1.5962 H   0  0  0  0  0  0  0  0  0  0  0  0
    1.6014    0.9735   -1.7366 H   0  0  0  0  0  0  0  0  0  0  0  0
    1.5101   -1.5771   -0.5493 H   0  0  0  0  0  0  0  0  0  0  0  0
    0.7652   -1.0678   -2.0384 H   0  0  0  0  0  0  0  0  0  0  0  0
   -1.2734   -1.4067   -1.2007 H   0  0  0  0  0  0  0  0  0  0  0  0
   -0.0592   -3.1283   -0.1361 H   0  0  0  0  0  0  0  0  0  0  0  0
    1.3476   -1.8783    1.5913 H   0  0  0  0  0  0  0  0  0  0  0  0
   -0.2182   -1.7015    2.5756 H   0  0  0  0  0  0  0  0  0  0  0  0
    0.4248   -3.2743    2.1221 H   0  0  0  0  0  0  0  0  0  0  0  0
   -3.4050   -1.4112    3.8132 H   0  0  0  0  0  0  0  0  0  0  0  0
   -4.7036   -1.3330    2.5909 H   0  0  0  0  0  0  0  0  0  0  0  0
   -1.0482    2.7585   -0.5758 H   0  0  0  0  0  0  0  0  0  0  0  0
   -2.3673    3.9427   -2.1534 H   0  0  0  0  0  0  0  0  0  0  0  0
   -4.7778    0.5805   -2.8168 H   0  0  0  0  0  0  0  0  0  0  0  0
    0.4118    0.3793    1.5829 H   0  0  0  0  0  0  0  0  0  0  0  0
   -0.6796    1.7497    1.5359 H   0  0  0  0  0  0  0  0  0  0  0  0
  1  2  1  0
  2  3  1  0
  3  4  2  0
  4  5  1  0
  5  6  1  0
  6  7  1  0
  7  8  1  0
  8  9  1  0
  8 10  1  0
 10 11  1  0
 11 12  1  0
 11 13  2  0
 13 14  1  0
 14 15  1  6
 15 16  2  0
 16 17  1  0
 17 18  2  0
 18 19  1  0
 18 20  1  0
 20 21  2  0
 21 22  1  0
 14 23  1  0
 23 24  1  0
  4 25  1  0
 25 26  1  0
 26  2  2  0
 24  5  1  0
 14  7  1  0
 21 15  1  0
  1 27  1  0
  1 28  1  0
  1 29  1  0
  3 30  1  0
  5 31  1  6
  6 32  1  0
  6 33  1  0
  7 34  1  6
  8 35  1  6
  9 36  1  0
  9 37  1  0
  9 38  1  0
 12 39  1  0
 12 40  1  0
 16 41  1  0
 17 42  1  0
 20 43  1  0
 23 44  1  0
 23 45  1  0
M  END
$$$$
