@<TRIPOS>MOLECULE
*****
 45 48 0 0 0
SMALL
GASTEIGER

@<TRIPOS>ATOM
      1 C           6.2530    0.3431    0.4385 C.3     1  UNL1       -0.0191
      2 C           4.7757    0.3919    0.5298 C.ar    1  UNL1        0.0809
      3 C           3.9035    0.4182   -0.5392 C.ar    1  UNL1        0.0058
      4 C           2.6536    0.4604   -0.0231 C.ar    1  UNL1        0.1660
      5 C           1.3244    0.5031   -0.7374 C.3     1  UNL1        0.1192
      6 C           0.7370   -0.8365   -0.9266 C.3     1  UNL1       -0.0130
      7 C          -0.6020   -1.0830   -0.3408 C.3     1  UNL1        0.0054
      8 C          -0.4970   -2.3314    0.4986 C.3     1  UNL1        0.0151
      9 C           0.3270   -2.2150    1.7300 C.3     1  UNL1       -0.0526
     10 S          -2.1625   -2.8530    1.0807 S.3     1  UNL1       -0.0876
     11 C          -2.7450   -1.2828    1.7877 C.2     1  UNL1        0.1478
     12 N          -3.7026   -1.3487    2.8305 N.pl3   1  UNL1       -0.3380
     13 N          -2.2564   -0.2491    1.3008 N.2     1  UNL1       -0.2495
     14 C          -1.3138    0.0736    0.2850 C.3     1  UNL1        0.1188
     15 C          -2.1049    0.8612   -0.7254 C.ar    1  UNL1        0.0178
     16 C          -1.8203    2.1657   -1.0032 C.ar    1  UNL1       -0.0507
     17 C          -2.5884    2.9037   -1.9267 C.ar    1  UNL1       -0.0259
     18 C          -3.6386    2.3364   -2.5692 C.ar    1  UNL1        0.1261
     19 F          -4.3774    3.0730   -3.4680 F       1  UNL1       -0.2054
     20 C          -3.9378    1.0251   -2.2997 C.ar    1  UNL1        0.0091
     21 C          -3.1772    0.3020   -1.3887 C.ar    1  UNL1        0.1317
     22 F          -3.5488   -0.9643   -1.1978 F       1  UNL1       -0.2050
     23 C          -0.2494    0.9621    0.8810 C.3     1  UNL1        0.0783
     24 O           0.5649    1.4205   -0.0988 O.3     1  UNL1       -0.3661
     25 O           2.7238    0.4610    1.2783 O.2     1  UNL1       -0.3567
     26 N           3.9733    0.4207    1.6081 N.ar    1  UNL1       -0.0832
     27 H           6.5942    1.2452   -0.1096 H       1  UNL1        0.0294
     28 H           6.6554    0.3832    1.4751 H       1  UNL1        0.0294
     29 H           6.5720   -0.6004   -0.0428 H       1  UNL1        0.0294
     30 H           4.1354    0.4081   -1.5962 H       1  UNL1        0.0672
     31 H           1.6014    0.9735   -1.7366 H       1  UNL1        0.0678
     32 H           1.5101   -1.5771   -0.5493 H       1  UNL1        0.0298
     33 H           0.7652   -1.0678   -2.0384 H       1  UNL1        0.0298
     34 H          -1.2734   -1.4067   -1.2007 H       1  UNL1        0.0340
     35 H          -0.0592   -3.1283   -0.1361 H       1  UNL1        0.0417
     36 H           1.3476   -1.8783    1.5913 H       1  UNL1        0.0240
     37 H          -0.2182   -1.7015    2.5756 H       1  UNL1        0.0240
     38 H           0.4248   -3.2743    2.1221 H       1  UNL1        0.0240
     39 H          -3.4050   -1.4112    3.8132 H       1  UNL1        0.1442
     40 H          -4.7036   -1.3330    2.5909 H       1  UNL1        0.1442
     41 H          -1.0482    2.7585   -0.5758 H       1  UNL1        0.0623
     42 H          -2.3673    3.9427   -2.1534 H       1  UNL1        0.0646
     43 H          -4.7778    0.5805   -2.8168 H       1  UNL1        0.0675
     44 H           0.4118    0.3793    1.5829 H       1  UNL1        0.0588
     45 H          -0.6796    1.7497    1.5359 H       1  UNL1        0.0588
@<TRIPOS>BOND
     1     1     2    1
     2     2     3   ar
     3     3     4   ar
     4     4     5    1
     5     5     6    1
     6     6     7    1
     7     7     8    1
     8     8     9    1
     9     8    10    1
    10    10    11    1
    11    11    12    1
    12    11    13    2
    13    13    14    1
    14    14    15    1
    15    15    16   ar
    16    16    17   ar
    17    17    18   ar
    18    18    19    1
    19    18    20   ar
    20    20    21   ar
    21    21    22    1
    22    14    23    1
    23    23    24    1
    24     4    25   ar
    25    25    26   ar
    26    26     2   ar
    27    24     5    1
    28    14     7    1
    29    21    15   ar
    30     1    27    1
    31     1    28    1
    32     1    29    1
    33     3    30    1
    34     5    31    1
    35     6    32    1
    36     6    33    1
    37     7    34    1
    38     8    35    1
    39     9    36    1
    40     9    37    1
    41     9    38    1
    42    12    39    1
    43    12    40    1
    44    16    41    1
    45    17    42    1
    46    20    43    1
    47    23    44    1
    48    23    45    1
