
     RDKit          3D

 66 70  0  0  0  0  0  0  0  0999 V2000
   -8.5963    2.7973    1.2687 C   0  0  0  0  0  0  0  0  0  0  0  0
   -7.8460    2.2297    0.1645 N   0  0  0  0  0  0  0  0  0  0  0  0
   -6.4432    2.3894    0.4458 C   0  0  0  0  0  0  0  0  0  0  0  0
   -5.5477    1.5731   -0.4609 C   0  0  0  0  0  0  0  0  0  0  0  0
   -6.0127    0.2457   -0.7047 N   0  0  0  0  0  0  0  0  0  0  0  0
   -5.4687   -0.7624    0.1494 C   0  0  0  0  0  0  0  0  0  0  0  0
   -3.9954   -0.8034   -0.0194 C   0  0  0  0  0  0  0  0  0  0  0  0
   -3.1407   -0.2684    0.9375 C   0  0  0  0  0  0  0  0  0  0  0  0
   -1.7621   -0.2530    0.8862 C   0  0  0  0  0  0  0  0  0  0  0  0
   -1.1703   -0.8125   -0.2013 C   0  0  0  0  0  0  0  0  0  0  0  0
    0.2510   -0.7908   -0.2430 N   0  0  0  0  0  0  0  0  0  0  0  0
    0.8605   -1.9225    0.3449 C   0  0  0  0  0  0  0  0  0  0  0  0
   -0.0049   -2.7449    0.7997 O   0  0  0  0  0  0  0  0  0  0  0  0
    2.2975   -2.1508    0.4355 C   0  0  0  0  0  0  0  0  0  0  0  0
    3.2668   -1.2914   -0.0393 C   0  0  0  0  0  0  0  0  0  0  0  0
    4.5881   -1.6538    0.1245 C   0  0  0  0  0  0  0  0  0  0  0  0
    5.5934   -0.7560   -0.3706 C   0  0  0  0  0  0  0  0  0  0  0  0
    6.4573    0.0005   -0.7747 C   0  0  0  0  0  0  0  0  0  0  0  0
    7.4919    0.8873   -1.2336 C   0  0  0  0  0  0  0  0  0  0  0  0
    8.0261    0.9903   -2.5217 C   0  0  0  0  0  0  0  0  0  0  0  0
    8.9656    1.9560   -2.4635 N   0  0  0  0  0  0  0  0  0  0  0  0
    9.0098    2.4195   -1.2221 C   0  0  0  0  0  0  0  0  0  0  0  0
    9.8228    3.4189   -0.6867 C   0  0  0  0  0  0  0  0  0  0  0  0
    9.6949    3.7469    0.6665 C   0  0  0  0  0  0  0  0  0  0  0  0
    8.7435    3.0376    1.4031 C   0  0  0  0  0  0  0  0  0  0  0  0
    7.9763    2.0797    0.8542 N   0  0  0  0  0  0  0  0  0  0  0  0
    8.1143    1.7863   -0.4268 N   0  0  0  0  0  0  0  0  0  0  0  0
    5.0046   -2.8217    0.7333 C   0  0  0  0  0  0  0  0  0  0  0  0
    6.4302   -3.1699    0.8873 C   0  0  0  0  0  0  0  0  0  0  0  0
    4.0170   -3.6769    1.2063 C   0  0  0  0  0  0  0  0  0  0  0  0
    2.6981   -3.3252    1.0480 C   0  0  0  0  0  0  0  0  0  0  0  0
   -1.9635   -1.3616   -1.1883 C   0  0  0  0  0  0  0  0  0  0  0  0
   -3.3503   -1.3701   -1.1232 C   0  0  0  0  0  0  0  0  0  0  0  0
   -4.1853   -1.9667   -2.1959 C   0  0  0  0  0  0  0  0  0  0  0  0
   -3.3083   -2.4540   -3.1741 F   0  0  0  0  0  0  0  0  0  0  0  0
   -5.0202   -1.0842   -2.8135 F   0  0  0  0  0  0  0  0  0  0  0  0
   -4.8693   -3.0762   -1.7340 F   0  0  0  0  0  0  0  0  0  0  0  0
   -7.4069    0.1205   -0.9991 C   0  0  0  0  0  0  0  0  0  0  0  0
   -8.1816    0.8140    0.0997 C   0  0  0  0  0  0  0  0  0  0  0  0
   -9.4631    2.1416    1.5183 H   0  0  0  0  0  0  0  0  0  0  0  0
   -7.9468    2.7549    2.1838 H   0  0  0  0  0  0  0  0  0  0  0  0
   -8.9251    3.8402    1.0498 H   0  0  0  0  0  0  0  0  0  0  0  0
   -6.2663    2.0285    1.4864 H   0  0  0  0  0  0  0  0  0  0  0  0
   -6.1498    3.4507    0.3097 H   0  0  0  0  0  0  0  0  0  0  0  0
   -5.3727    2.1481   -1.3946 H   0  0  0  0  0  0  0  0  0  0  0  0
   -4.5663    1.5245    0.0485 H   0  0  0  0  0  0  0  0  0  0  0  0
   -5.6577   -0.5562    1.2263 H   0  0  0  0  0  0  0  0  0  0  0  0
   -5.8684   -1.7429   -0.1672 H   0  0  0  0  0  0  0  0  0  0  0  0
   -3.6113    0.1845    1.8166 H   0  0  0  0  0  0  0  0  0  0  0  0
   -1.1921    0.1885    1.6842 H   0  0  0  0  0  0  0  0  0  0  0  0
    0.8891   -0.0451   -0.6522 H   0  0  0  0  0  0  0  0  0  0  0  0
    2.9402   -0.3833   -0.5129 H   0  0  0  0  0  0  0  0  0  0  0  0
    7.7174    0.3862   -3.3897 H   0  0  0  0  0  0  0  0  0  0  0  0
   10.5709    3.9741   -1.2719 H   0  0  0  0  0  0  0  0  0  0  0  0
   10.3324    4.5205    1.0569 H   0  0  0  0  0  0  0  0  0  0  0  0
    8.7332    3.3759    2.4371 H   0  0  0  0  0  0  0  0  0  0  0  0
    6.5519   -4.2411    0.5597 H   0  0  0  0  0  0  0  0  0  0  0  0
    6.8207   -3.1136    1.9046 H   0  0  0  0  0  0  0  0  0  0  0  0
    7.0235   -2.5832    0.1510 H   0  0  0  0  0  0  0  0  0  0  0  0
    4.3349   -4.6022    1.6890 H   0  0  0  0  0  0  0  0  0  0  0  0
    1.9734   -4.0428    1.4425 H   0  0  0  0  0  0  0  0  0  0  0  0
   -1.4653   -1.8098   -2.0610 H   0  0  0  0  0  0  0  0  0  0  0  0
   -7.6650   -0.9597   -0.9112 H   0  0  0  0  0  0  0  0  0  0  0  0
   -7.6596    0.4895   -1.9985 H   0  0  0  0  0  0  0  0  0  0  0  0
   -7.8542    0.3696    1.0688 H   0  0  0  0  0  0  0  0  0  0  0  0
   -9.2603    0.7259   -0.0737 H   0  0  0  0  0  0  0  0  0  0  0  0
  1  2  1  0
  2  3  1  0
  3  4  1  0
  4  5  1  0
  5  6  1  0
  6  7  1  0
  7  8  2  0
  8  9  1  0
  9 10  2  0
 10 11  1  0
 11 12  1  0
 12 13  2  0
 12 14  1  0
 14 15  2  0
 15 16  1  0
 16 17  1  0
 17 18  3  0
 18 19  1  0
 19 20  2  0
 20 21  1  0
 21 22  2  0
 22 23  1  0
 23 24  2  0
 24 25  1  0
 25 26  2  0
 26 27  1  0
 16 28  2  0
 28 29  1  0
 28 30  1  0
 30 31  2  0
 10 32  1  0
 32 33  2  0
 33 34  1  0
 34 35  1  0
 34 36  1  0
 34 37  1  0
  5 38  1  0
 38 39  1  0
 39  2  1  0
 33  7  1  0
 31 14  1  0
 27 19  1  0
 27 22  1  0
  1 40  1  0
  1 41  1  0
  1 42  1  0
  3 43  1  0
  3 44  1  0
  4 45  1  0
  4 46  1  0
  6 47  1  0
  6 48  1  0
  8 49  1  0
  9 50  1  0
 11 51  1  0
 15 52  1  0
 20 53  1  0
 23 54  1  0
 24 55  1  0
 25 56  1  0
 29 57  1  0
 29 58  1  0
 29 59  1  0
 30 60  1  0
 31 61  1  0
 32 62  1  0
 38 63  1  0
 38 64  1  0
 39 65  1  0
 39 66  1  0
M  END
$$$$
