
     RDKit          3D

 45 48  0  0  0  0  0  0  0  0999 V2000
    6.3673    0.1342    0.0907 C   0  0  0  0  0  0  0  0  0  0  0  0
    4.9840    0.4428    0.5071 C   0  0  0  0  0  0  0  0  0  0  0  0
    3.8116    0.3924   -0.1932 C   0  0  0  0  0  0  0  0  0  0  0  0
    2.7957    0.7795    0.6542 C   0  0  0  0  0  0  0  0  0  0  0  0
    1.3522    0.9056    0.4280 C   0  0  1  0  0  0  0  0  0  0  0  0
    0.8208    0.3785   -0.8388 C   0  0  0  0  0  0  0  0  0  0  0  0
   -0.4219   -0.4942   -0.7435 C   0  0  1  0  0  0  0  0  0  0  0  0
    0.0050   -1.9112   -0.7470 C   0  0  1  0  0  0  0  0  0  0  0  0
    1.1287   -2.2999    0.1833 C   0  0  0  0  0  0  0  0  0  0  0  0
    1.2787   -3.6875   -0.0640 F   0  0  0  0  0  0  0  0  0  0  0  0
   -1.3021   -3.0953   -0.2949 S   0  0  0  0  0  0  0  0  0  0  0  0
   -2.1511   -2.2392    1.0166 C   0  0  0  0  0  0  0  0  0  0  0  0
   -2.8667   -2.9547    1.9959 N   0  0  0  0  0  0  0  0  0  0  0  0
   -2.0895   -0.9905    1.0367 N   0  0  0  0  0  0  0  0  0  0  0  0
   -1.4585   -0.0222    0.2018 C   0  0  2  0  0  0  0  0  0  0  0  0
   -2.5322    0.8127   -0.4149 C   0  0  0  0  0  0  0  0  0  0  0  0
   -2.6742    2.1621   -0.2074 C   0  0  0  0  0  0  0  0  0  0  0  0
   -3.7197    2.8932   -0.7942 C   0  0  0  0  0  0  0  0  0  0  0  0
   -4.6287    2.2793   -1.5907 C   0  0  0  0  0  0  0  0  0  0  0  0
   -5.6522    2.9782   -2.1690 F   0  0  0  0  0  0  0  0  0  0  0  0
   -4.5181    0.9468   -1.8163 C   0  0  0  0  0  0  0  0  0  0  0  0
   -3.4698    0.2289   -1.2249 C   0  0  0  0  0  0  0  0  0  0  0  0
   -3.4377   -1.0632   -1.4993 F   0  0  0  0  0  0  0  0  0  0  0  0
   -0.7188    0.9097    1.1827 C   0  0  0  0  0  0  0  0  0  0  0  0
    0.5576    0.4067    1.4806 O   0  0  0  0  0  0  0  0  0  0  0  0
    3.3749    1.0416    1.8010 O   0  0  0  0  0  0  0  0  0  0  0  0
    4.6385    0.8545    1.7409 N   0  0  0  0  0  0  0  0  0  0  0  0
    6.6637   -0.8630    0.5082 H   0  0  0  0  0  0  0  0  0  0  0  0
    7.0873    0.8632    0.5104 H   0  0  0  0  0  0  0  0  0  0  0  0
    6.4482    0.1621   -1.0148 H   0  0  0  0  0  0  0  0  0  0  0  0
    3.6971    0.1060   -1.2121 H   0  0  0  0  0  0  0  0  0  0  0  0
    1.1560    2.0256    0.5021 H   0  0  0  0  0  0  0  0  0  0  0  0
    0.6346    1.2525   -1.5315 H   0  0  0  0  0  0  0  0  0  0  0  0
    1.5913   -0.2187   -1.3689 H   0  0  0  0  0  0  0  0  0  0  0  0
   -0.8853   -0.3460   -1.7817 H   0  0  0  0  0  0  0  0  0  0  0  0
    0.3937   -2.1499   -1.7740 H   0  0  0  0  0  0  0  0  0  0  0  0
    0.8437   -2.2848    1.2535 H   0  0  0  0  0  0  0  0  0  0  0  0
    2.1035   -1.9059   -0.0693 H   0  0  0  0  0  0  0  0  0  0  0  0
   -3.6711   -2.5282    2.5375 H   0  0  0  0  0  0  0  0  0  0  0  0
   -2.6578   -3.9526    2.2583 H   0  0  0  0  0  0  0  0  0  0  0  0
   -2.0411    2.7811    0.4091 H   0  0  0  0  0  0  0  0  0  0  0  0
   -3.8286    3.9559   -0.6293 H   0  0  0  0  0  0  0  0  0  0  0  0
   -5.2401    0.4527   -2.4502 H   0  0  0  0  0  0  0  0  0  0  0  0
   -1.2613    1.0044    2.1202 H   0  0  0  0  0  0  0  0  0  0  0  0
   -0.5075    1.8566    0.6455 H   0  0  0  0  0  0  0  0  0  0  0  0
  1  2  1  0
  2  3  1  0
  3  4  2  0
  4  5  1  0
  5  6  1  0
  6  7  1  0
  7  8  1  0
  8  9  1  0
  9 10  1  0
  8 11  1  0
 11 12  1  0
 12 13  1  0
 12 14  2  0
 14 15  1  0
 15 16  1  6
 16 17  2  0
 17 18  1  0
 18 19  2  0
 19 20  1  0
 19 21  1  0
 21 22  2  0
 22 23  1  0
 15 24  1  0
 24 25  1  0
  4 26  1  0
 26 27  1  0
 27  2  2  0
 25  5  1  0
 15  7  1  0
 22 16  1  0
  1 28  1  0
  1 29  1  0
  1 30  1  0
  3 31  1  0
  5 32  1  6
  6 33  1  0
  6 34  1  0
  7 35  1  6
  8 36  1  6
  9 37  1  0
  9 38  1  0
 13 39  1  0
 13 40  1  0
 17 41  1  0
 18 42  1  0
 21 43  1  0
 24 44  1  0
 24 45  1  0
M  END
$$$$
