@<TRIPOS>MOLECULE
*****
 45 48 0 0 0
SMALL
GASTEIGER

@<TRIPOS>ATOM
      1 C           6.3673    0.1342    0.0907 C.3     1  UNL1       -0.0191
      2 C           4.9840    0.4428    0.5071 C.ar    1  UNL1        0.0809
      3 C           3.8116    0.3924   -0.1932 C.ar    1  UNL1        0.0058
      4 C           2.7957    0.7795    0.6542 C.ar    1  UNL1        0.1660
      5 C           1.3522    0.9056    0.4280 C.3     1  UNL1        0.1192
      6 C           0.8208    0.3785   -0.8388 C.3     1  UNL1       -0.0129
      7 C          -0.4219   -0.4942   -0.7435 C.3     1  UNL1        0.0081
      8 C           0.0050   -1.9112   -0.7470 C.3     1  UNL1        0.0461
      9 C           1.1287   -2.2999    0.1833 C.3     1  UNL1        0.1027
     10 F           1.2787   -3.6875   -0.0640 F       1  UNL1       -0.2479
     11 S          -1.3021   -3.0953   -0.2949 S.3     1  UNL1       -0.0848
     12 C          -2.1511   -2.2392    1.0166 C.2     1  UNL1        0.1479
     13 N          -2.8667   -2.9547    1.9959 N.pl3   1  UNL1       -0.3380
     14 N          -2.0895   -0.9905    1.0367 N.2     1  UNL1       -0.2495
     15 C          -1.4585   -0.0222    0.2018 C.3     1  UNL1        0.1188
     16 C          -2.5322    0.8127   -0.4149 C.ar    1  UNL1        0.0178
     17 C          -2.6742    2.1621   -0.2074 C.ar    1  UNL1       -0.0507
     18 C          -3.7197    2.8932   -0.7942 C.ar    1  UNL1       -0.0259
     19 C          -4.6287    2.2793   -1.5907 C.ar    1  UNL1        0.1261
     20 F          -5.6522    2.9782   -2.1690 F       1  UNL1       -0.2054
     21 C          -4.5181    0.9468   -1.8163 C.ar    1  UNL1        0.0091
     22 C          -3.4698    0.2289   -1.2249 C.ar    1  UNL1        0.1317
     23 F          -3.4377   -1.0632   -1.4993 F       1  UNL1       -0.2050
     24 C          -0.7188    0.9097    1.1827 C.3     1  UNL1        0.0783
     25 O           0.5576    0.4067    1.4806 O.3     1  UNL1       -0.3661
     26 O           3.3749    1.0416    1.8010 O.2     1  UNL1       -0.3567
     27 N           4.6385    0.8545    1.7409 N.ar    1  UNL1       -0.0832
     28 H           6.6637   -0.8630    0.5082 H       1  UNL1        0.0294
     29 H           7.0873    0.8632    0.5104 H       1  UNL1        0.0294
     30 H           6.4482    0.1621   -1.0148 H       1  UNL1        0.0294
     31 H           3.6971    0.1060   -1.2121 H       1  UNL1        0.0672
     32 H           1.1560    2.0256    0.5021 H       1  UNL1        0.0678
     33 H           0.6346    1.2525   -1.5315 H       1  UNL1        0.0298
     34 H           1.5913   -0.2187   -1.3689 H       1  UNL1        0.0298
     35 H          -0.8853   -0.3460   -1.7817 H       1  UNL1        0.0341
     36 H           0.3937   -2.1499   -1.7740 H       1  UNL1        0.0445
     37 H           0.8437   -2.2848    1.2535 H       1  UNL1        0.0626
     38 H           2.1035   -1.9059   -0.0693 H       1  UNL1        0.0626
     39 H          -3.6711   -2.5282    2.5375 H       1  UNL1        0.1442
     40 H          -2.6578   -3.9526    2.2583 H       1  UNL1        0.1442
     41 H          -2.0411    2.7811    0.4091 H       1  UNL1        0.0623
     42 H          -3.8286    3.9559   -0.6293 H       1  UNL1        0.0646
     43 H          -5.2401    0.4527   -2.4502 H       1  UNL1        0.0675
     44 H          -1.2613    1.0044    2.1202 H       1  UNL1        0.0588
     45 H          -0.5075    1.8566    0.6455 H       1  UNL1        0.0588
@<TRIPOS>BOND
     1     1     2    1
     2     2     3   ar
     3     3     4   ar
     4     4     5    1
     5     5     6    1
     6     6     7    1
     7     7     8    1
     8     8     9    1
     9     9    10    1
    10     8    11    1
    11    11    12    1
    12    12    13    1
    13    12    14    2
    14    14    15    1
    15    15    16    1
    16    16    17   ar
    17    17    18   ar
    18    18    19   ar
    19    19    20    1
    20    19    21   ar
    21    21    22   ar
    22    22    23    1
    23    15    24    1
    24    24    25    1
    25     4    26   ar
    26    26    27   ar
    27    27     2   ar
    28    25     5    1
    29    15     7    1
    30    22    16   ar
    31     1    28    1
    32     1    29    1
    33     1    30    1
    34     3    31    1
    35     5    32    1
    36     6    33    1
    37     6    34    1
    38     7    35    1
    39     8    36    1
    40     9    37    1
    41     9    38    1
    42    13    39    1
    43    13    40    1
    44    17    41    1
    45    18    42    1
    46    21    43    1
    47    24    44    1
    48    24    45    1
