
     RDKit          3D

 51 54  0  0  0  0  0  0  0  0999 V2000
    7.9066   -1.2771    0.1663 C   0  0  0  0  0  0  0  0  0  0  0  0
    7.5886    0.1337    0.2483 N   0  0  0  0  0  0  0  0  0  0  0  0
    6.5076    0.4291    1.5738 S   0  0  0  0  0  6  0  0  0  0  0  0
    7.1397   -0.0067    2.8512 O   0  0  0  0  0  0  0  0  0  0  0  0
    6.2575    1.9138    1.5977 O   0  0  0  0  0  0  0  0  0  0  0  0
    5.0562   -0.4504    1.2681 N   0  0  0  0  0  0  0  0  0  0  0  0
    4.2888   -0.1308    0.0926 C   0  0  0  0  0  0  0  0  0  0  0  0
    4.7151    0.8357   -0.7338 N   0  0  0  0  0  0  0  0  0  0  0  0
    4.0830    1.2114   -1.8495 C   0  0  0  0  0  0  0  0  0  0  0  0
    2.9123    0.5338   -2.1376 C   0  0  0  0  0  0  0  0  0  0  0  0
    2.4125   -0.4784   -1.3241 C   0  0  0  0  0  0  0  0  0  0  0  0
    1.1781   -1.1518   -1.7227 C   0  0  0  0  0  0  0  0  0  0  0  0
   -0.0291   -0.8767   -0.9483 C   0  0  0  0  0  0  0  0  0  0  0  0
   -0.7798    0.2749   -0.9997 C   0  0  0  0  0  0  0  0  0  0  0  0
   -0.3555    1.3134   -1.9604 C   0  0  0  0  0  0  0  0  0  0  0  0
   -1.9144    0.4787   -0.2271 C   0  0  0  0  0  0  0  0  0  0  0  0
   -2.6712    1.6281   -0.2665 C   0  0  0  0  0  0  0  0  0  0  0  0
   -3.7920    1.7829    0.5236 C   0  0  0  0  0  0  0  0  0  0  0  0
   -4.1880    0.7791    1.3834 C   0  0  0  0  0  0  0  0  0  0  0  0
   -5.3230    0.9151    2.1940 O   0  0  0  0  0  0  0  0  0  0  0  0
   -6.5728    0.5060    1.7031 C   0  0  0  0  0  0  0  0  0  0  0  0
   -6.7008   -0.0155    0.4603 N   0  0  0  0  0  0  0  0  0  0  0  0
   -7.8784   -0.4182   -0.0455 C   0  0  0  0  0  0  0  0  0  0  0  0
   -9.0168   -0.2990    0.7296 C   0  0  0  0  0  0  0  0  0  0  0  0
   -8.8914    0.2275    1.9851 C   0  0  0  0  0  0  0  0  0  0  0  0
   -7.6818    0.6163    2.4434 N   0  0  0  0  0  0  0  0  0  0  0  0
   -3.4193   -0.3627    1.4103 C   0  0  0  0  0  0  0  0  0  0  0  0
   -2.2831   -0.5464    0.6244 C   0  0  0  0  0  0  0  0  0  0  0  0
   -1.5807   -1.6508    0.6842 O   0  0  0  0  0  0  0  0  0  0  0  0
   -0.5090   -1.8394   -0.0466 C   0  0  0  0  0  0  0  0  0  0  0  0
    0.0927   -2.9503    0.0905 O   0  0  0  0  0  0  0  0  0  0  0  0
    3.1279   -0.7900   -0.2094 C   0  0  0  0  0  0  0  0  0  0  0  0
    2.7334   -1.7544    0.6404 F   0  0  0  0  0  0  0  0  0  0  0  0
    7.9272   -1.5660   -0.8907 H   0  0  0  0  0  0  0  0  0  0  0  0
    8.8497   -1.5196    0.7113 H   0  0  0  0  0  0  0  0  0  0  0  0
    7.1024   -1.8265    0.7154 H   0  0  0  0  0  0  0  0  0  0  0  0
    8.4524    0.7264    0.3838 H   0  0  0  0  0  0  0  0  0  0  0  0
    4.7762   -1.1802    1.9329 H   0  0  0  0  0  0  0  0  0  0  0  0
    4.4965    1.9979   -2.4552 H   0  0  0  0  0  0  0  0  0  0  0  0
    2.3812    0.8198   -3.0606 H   0  0  0  0  0  0  0  0  0  0  0  0
    1.3953   -2.2545   -1.6572 H   0  0  0  0  0  0  0  0  0  0  0  0
    1.0169   -1.0016   -2.8316 H   0  0  0  0  0  0  0  0  0  0  0  0
    0.4632    1.8926   -1.4967 H   0  0  0  0  0  0  0  0  0  0  0  0
   -1.1270    2.0324   -2.2578 H   0  0  0  0  0  0  0  0  0  0  0  0
    0.0932    0.8115   -2.8593 H   0  0  0  0  0  0  0  0  0  0  0  0
   -2.4070    2.4430   -0.9114 H   0  0  0  0  0  0  0  0  0  0  0  0
   -4.4000    2.6801    0.5059 H   0  0  0  0  0  0  0  0  0  0  0  0
   -7.9395   -0.8313   -1.0459 H   0  0  0  0  0  0  0  0  0  0  0  0
   -9.9960   -0.6177    0.3485 H   0  0  0  0  0  0  0  0  0  0  0  0
   -9.7848    0.3205    2.5926 H   0  0  0  0  0  0  0  0  0  0  0  0
   -3.7130   -1.1586    2.0768 H   0  0  0  0  0  0  0  0  0  0  0  0
  1  2  1  0
  2  3  1  0
  3  4  2  0
  3  5  2  0
  3  6  1  0
  6  7  1  0
  7  8  2  0
  8  9  1  0
  9 10  2  0
 10 11  1  0
 11 12  1  0
 12 13  1  0
 13 14  2  0
 14 15  1  0
 14 16  1  0
 16 17  2  0
 17 18  1  0
 18 19  2  0
 19 20  1  0
 20 21  1  0
 21 22  2  0
 22 23  1  0
 23 24  2  0
 24 25  1  0
 25 26  2  0
 19 27  1  0
 27 28  2  0
 28 29  1  0
 29 30  1  0
 30 31  2  0
 11 32  2  0
 32 33  1  0
 32  7  1  0
 30 13  1  0
 28 16  1  0
 26 21  1  0
  1 34  1  0
  1 35  1  0
  1 36  1  0
  2 37  1  0
  6 38  1  0
  9 39  1  0
 10 40  1  0
 12 41  1  0
 12 42  1  0
 15 43  1  0
 15 44  1  0
 15 45  1  0
 17 46  1  0
 18 47  1  0
 23 48  1  0
 24 49  1  0
 25 50  1  0
 27 51  1  0
M  END
$$$$
