@<TRIPOS>MOLECULE
*****
 51 54 0 0 0
SMALL
GASTEIGER

@<TRIPOS>ATOM
      1 C           7.9066   -1.2771    0.1663 C.3     1  UNL1        0.0071
      2 N           7.5886    0.1337    0.2483 N.3     1  UNL1       -0.1802
      3 S           6.5076    0.4291    1.5738 S.O2    1  UNL1        0.1102
      4 O           7.1397   -0.0067    2.8512 O.2     1  UNL1       -0.1381
      5 O           6.2575    1.9138    1.5977 O.2     1  UNL1       -0.1381
      6 N           5.0562   -0.4504    1.2681 N.pl3   1  UNL1       -0.1873
      7 C           4.2888   -0.1308    0.0926 C.ar    1  UNL1        0.1746
      8 N           4.7151    0.8357   -0.7338 N.ar    1  UNL1       -0.2363
      9 C           4.0830    1.2114   -1.8495 C.ar    1  UNL1        0.0302
     10 C           2.9123    0.5338   -2.1376 C.ar    1  UNL1       -0.0372
     11 C           2.4125   -0.4784   -1.3241 C.ar    1  UNL1       -0.0028
     12 C           1.1781   -1.1518   -1.7227 C.3     1  UNL1        0.0075
     13 C          -0.0291   -0.8767   -0.9483 C.ar    1  UNL1        0.0449
     14 C          -0.7798    0.2749   -0.9997 C.ar    1  UNL1       -0.0295
     15 C          -0.3555    1.3134   -1.9604 C.3     1  UNL1       -0.0385
     16 C          -1.9144    0.4787   -0.2271 C.ar    1  UNL1        0.0210
     17 C          -2.6712    1.6281   -0.2665 C.ar    1  UNL1       -0.0473
     18 C          -3.7920    1.7829    0.5236 C.ar    1  UNL1       -0.0184
     19 C          -4.1880    0.7791    1.3834 C.ar    1  UNL1        0.1354
     20 O          -5.3230    0.9151    2.1940 O.3     1  UNL1       -0.4235
     21 C          -6.5728    0.5060    1.7031 C.ar    1  UNL1        0.3233
     22 N          -6.7008   -0.0155    0.4603 N.ar    1  UNL1       -0.2030
     23 C          -7.8784   -0.4182   -0.0455 C.ar    1  UNL1        0.0344
     24 C          -9.0168   -0.2990    0.7296 C.ar    1  UNL1       -0.0252
     25 C          -8.8914    0.2275    1.9851 C.ar    1  UNL1        0.0344
     26 N          -7.6818    0.6163    2.4434 N.ar    1  UNL1       -0.2030
     27 C          -3.4193   -0.3627    1.4103 C.ar    1  UNL1        0.0238
     28 C          -2.2831   -0.5464    0.6244 C.ar    1  UNL1        0.1428
     29 O          -1.5807   -1.6508    0.6842 O.2     1  UNL1       -0.4218
     30 C          -0.5090   -1.8394   -0.0466 C.ar    1  UNL1        0.3410
     31 O           0.0927   -2.9503    0.0905 O.2     1  UNL1       -0.2449
     32 C           3.1279   -0.7900   -0.2094 C.ar    1  UNL1        0.1678
     33 F           2.7334   -1.7544    0.6404 F       1  UNL1       -0.2015
     34 H           7.9272   -1.5660   -0.8907 H       1  UNL1        0.0406
     35 H           8.8497   -1.5196    0.7113 H       1  UNL1        0.0406
     36 H           7.1024   -1.8265    0.7154 H       1  UNL1        0.0406
     37 H           8.4524    0.7264    0.3838 H       1  UNL1        0.1490
     38 H           4.7762   -1.1802    1.9329 H       1  UNL1        0.1764
     39 H           4.4965    1.9979   -2.4552 H       1  UNL1        0.0830
     40 H           2.3812    0.8198   -3.0606 H       1  UNL1        0.0636
     41 H           1.3953   -2.2545   -1.6572 H       1  UNL1        0.0365
     42 H           1.0169   -1.0016   -2.8316 H       1  UNL1        0.0365
     43 H           0.4632    1.8926   -1.4967 H       1  UNL1        0.0278
     44 H          -1.1270    2.0324   -2.2578 H       1  UNL1        0.0278
     45 H           0.0932    0.8115   -2.8593 H       1  UNL1        0.0278
     46 H          -2.4070    2.4430   -0.9114 H       1  UNL1        0.0626
     47 H          -4.4000    2.6801    0.5059 H       1  UNL1        0.0654
     48 H          -7.9395   -0.8313   -1.0459 H       1  UNL1        0.0832
     49 H          -9.9960   -0.6177    0.3485 H       1  UNL1        0.0648
     50 H          -9.7848    0.3205    2.5926 H       1  UNL1        0.0832
     51 H          -3.7130   -1.1586    2.0768 H       1  UNL1        0.0691
@<TRIPOS>BOND
     1     1     2    1
     2     2     3    1
     3     3     4    2
     4     3     5    2
     5     3     6    1
     6     6     7    1
     7     7     8   ar
     8     8     9   ar
     9     9    10   ar
    10    10    11   ar
    11    11    12    1
    12    12    13    1
    13    13    14   ar
    14    14    15    1
    15    14    16   ar
    16    16    17   ar
    17    17    18   ar
    18    18    19   ar
    19    19    20    1
    20    20    21    1
    21    21    22   ar
    22    22    23   ar
    23    23    24   ar
    24    24    25   ar
    25    25    26   ar
    26    19    27   ar
    27    27    28   ar
    28    28    29   ar
    29    29    30   ar
    30    30    31    2
    31    11    32   ar
    32    32    33    1
    33    32     7   ar
    34    30    13   ar
    35    28    16   ar
    36    26    21   ar
    37     1    34    1
    38     1    35    1
    39     1    36    1
    40     2    37    1
    41     6    38    1
    42     9    39    1
    43    10    40    1
    44    12    41    1
    45    12    42    1
    46    15    43    1
    47    15    44    1
    48    15    45    1
    49    17    46    1
    50    18    47    1
    51    23    48    1
    52    24    49    1
    53    25    50    1
    54    27    51    1
