
     RDKit          3D

 58 62  0  0  0  0  0  0  0  0999 V2000
   -4.9843    1.0881   -2.9815 C   0  0  0  0  0  0  0  0  0  0  0  0
   -4.1074    0.4552   -2.0062 C   0  0  0  0  0  0  0  0  0  0  0  0
   -4.1986   -0.9036   -1.7971 C   0  0  0  0  0  0  0  0  0  0  0  0
   -3.4023   -1.5367   -0.8990 C   0  0  0  0  0  0  0  0  0  0  0  0
   -2.4631   -0.7960   -0.1644 C   0  0  0  0  0  0  0  0  0  0  0  0
   -1.5897   -1.4921    0.7969 C   0  0  0  0  0  0  0  0  0  0  0  0
   -2.0075   -1.5288    1.9807 O   0  0  0  0  0  0  0  0  0  0  0  0
   -0.3671   -2.0760    0.3839 N   0  0  0  0  0  0  0  0  0  0  0  0
    0.0969   -2.0111   -0.9807 C   0  0  0  0  0  0  0  0  0  0  0  0
    0.7800   -3.2783   -1.4222 C   0  0  0  0  0  0  0  0  0  0  0  0
    1.3083   -4.0504   -0.4283 O   0  0  0  0  0  0  0  0  0  0  0  0
    0.4709   -4.2239    0.6884 C   0  0  0  0  0  0  0  0  0  0  0  0
    0.4493   -2.8009    1.3173 C   0  0  1  0  0  0  0  0  0  0  0  0
    1.8724   -2.4248    1.4123 C   0  0  0  0  0  0  0  0  0  0  0  0
    2.2244   -1.0736    1.8035 C   0  0  0  0  0  0  0  0  0  0  0  0
    2.7261   -0.1779    0.8908 C   0  0  0  0  0  0  0  0  0  0  0  0
    3.1043    1.1109    1.2015 C   0  0  0  0  0  0  0  0  0  0  0  0
    3.6211    2.0154    0.2310 N   0  0  0  0  0  0  0  0  0  0  0  0
    3.5102    1.8556   -1.0745 N   0  0  0  0  0  0  0  0  0  0  0  0
    4.1008    2.8782   -1.7239 C   0  0  0  0  0  0  0  0  0  0  0  0
    4.6049    3.7162   -0.7408 C   0  0  0  0  0  0  0  0  0  0  0  0
    4.2771    3.1306    0.4269 N   0  0  0  0  0  0  0  0  0  0  0  0
    2.9754    1.5369    2.5035 C   0  0  0  0  0  0  0  0  0  0  0  0
    2.4704    0.6616    3.4642 C   0  0  0  0  0  0  0  0  0  0  0  0
    2.1010   -0.6209    3.1222 C   0  0  0  0  0  0  0  0  0  0  0  0
    1.6176   -1.4300    4.0908 F   0  0  0  0  0  0  0  0  0  0  0  0
   -2.3385    0.5495   -0.3382 C   0  0  0  0  0  0  0  0  0  0  0  0
   -1.4110    1.3515    0.3938 N   0  0  0  0  0  0  0  0  0  0  0  0
   -0.5224    2.1784   -0.1357 N   0  0  0  0  0  0  0  0  0  0  0  0
    0.1890    2.7904    0.7995 C   0  0  0  0  0  0  0  0  0  0  0  0
   -0.2756    2.3231    2.0104 C   0  0  0  0  0  0  0  0  0  0  0  0
   -1.2494    1.4495    1.7027 N   0  0  0  0  0  0  0  0  0  0  0  0
   -3.1902    1.1457   -1.2813 C   0  0  0  0  0  0  0  0  0  0  0  0
   -3.0312    2.6297   -1.4520 C   0  0  0  0  0  0  0  0  0  0  0  0
   -4.4916    1.8189   -3.6452 H   0  0  0  0  0  0  0  0  0  0  0  0
   -5.4965    0.3202   -3.6232 H   0  0  0  0  0  0  0  0  0  0  0  0
   -5.7831    1.6396   -2.4403 H   0  0  0  0  0  0  0  0  0  0  0  0
   -4.9212   -1.5175   -2.3530 H   0  0  0  0  0  0  0  0  0  0  0  0
   -3.4621   -2.6197   -0.7201 H   0  0  0  0  0  0  0  0  0  0  0  0
    0.7987   -1.1634   -1.0649 H   0  0  0  0  0  0  0  0  0  0  0  0
   -0.7306   -1.7952   -1.6914 H   0  0  0  0  0  0  0  0  0  0  0  0
    0.1166   -3.9267   -2.0335 H   0  0  0  0  0  0  0  0  0  0  0  0
    1.6113   -2.9853   -2.0979 H   0  0  0  0  0  0  0  0  0  0  0  0
   -0.5442   -4.5224    0.3992 H   0  0  0  0  0  0  0  0  0  0  0  0
    0.9771   -4.8937    1.3877 H   0  0  0  0  0  0  0  0  0  0  0  0
   -0.0523   -2.9561    2.2963 H   0  0  0  0  0  0  0  0  0  0  0  0
    2.3539   -2.6328    0.4242 H   0  0  0  0  0  0  0  0  0  0  0  0
    2.3609   -3.1524    2.1042 H   0  0  0  0  0  0  0  0  0  0  0  0
    2.8628   -0.4455   -0.1617 H   0  0  0  0  0  0  0  0  0  0  0  0
    4.1877    3.0503   -2.7913 H   0  0  0  0  0  0  0  0  0  0  0  0
    5.1464    4.6441   -0.9149 H   0  0  0  0  0  0  0  0  0  0  0  0
    3.2687    2.5439    2.7572 H   0  0  0  0  0  0  0  0  0  0  0  0
    2.3946    1.0554    4.4621 H   0  0  0  0  0  0  0  0  0  0  0  0
    0.9843    3.5170    0.6977 H   0  0  0  0  0  0  0  0  0  0  0  0
    0.0962    2.6246    2.9880 H   0  0  0  0  0  0  0  0  0  0  0  0
   -2.2503    2.8574   -2.2142 H   0  0  0  0  0  0  0  0  0  0  0  0
   -2.8041    3.0986   -0.4699 H   0  0  0  0  0  0  0  0  0  0  0  0
   -3.9850    2.9992   -1.8841 H   0  0  0  0  0  0  0  0  0  0  0  0
  1  2  1  0
  2  3  2  0
  3  4  1  0
  4  5  2  0
  5  6  1  0
  6  7  2  0
  6  8  1  0
  8  9  1  0
  9 10  1  0
 10 11  1  0
 11 12  1  0
 12 13  1  0
 13 14  1  0
 14 15  1  0
 15 16  2  0
 16 17  1  0
 17 18  1  0
 18 19  1  0
 19 20  2  0
 20 21  1  0
 21 22  2  0
 17 23  2  0
 23 24  1  0
 24 25  2  0
 25 26  1  0
  5 27  1  0
 27 28  1  0
 28 29  1  0
 29 30  2  0
 30 31  1  0
 31 32  2  0
 27 33  2  0
 33 34  1  0
 33  2  1  0
 13  8  1  0
 25 15  1  0
 32 28  1  0
 22 18  1  0
  1 35  1  0
  1 36  1  0
  1 37  1  0
  3 38  1  0
  4 39  1  0
  9 40  1  0
  9 41  1  0
 10 42  1  0
 10 43  1  0
 12 44  1  0
 12 45  1  0
 13 46  1  1
 14 47  1  0
 14 48  1  0
 16 49  1  0
 20 50  1  0
 21 51  1  0
 23 52  1  0
 24 53  1  0
 30 54  1  0
 31 55  1  0
 34 56  1  0
 34 57  1  0
 34 58  1  0
M  END
$$$$
