@<TRIPOS>MOLECULE
*****
 58 62 0 0 0
SMALL
GASTEIGER

@<TRIPOS>ATOM
      1 C          -4.9843    1.0881   -2.9815 C.3     1  UNL1       -0.0394
      2 C          -4.1074    0.4552   -2.0062 C.ar    1  UNL1       -0.0454
      3 C          -4.1986   -0.9036   -1.7971 C.ar    1  UNL1       -0.0577
      4 C          -3.4023   -1.5367   -0.8990 C.ar    1  UNL1       -0.0472
      5 C          -2.4631   -0.7960   -0.1644 C.ar    1  UNL1        0.0642
      6 C          -1.5897   -1.4921    0.7969 C.2     1  UNL1        0.2491
      7 O          -2.0075   -1.5288    1.9807 O.2     1  UNL1       -0.2699
      8 N          -0.3671   -2.0760    0.3839 N.am    1  UNL1       -0.2897
      9 C           0.0969   -2.0111   -0.9807 C.3     1  UNL1        0.0388
     10 C           0.7800   -3.2783   -1.4222 C.3     1  UNL1        0.0635
     11 O           1.3083   -4.0504   -0.4283 O.3     1  UNL1       -0.3764
     12 C           0.4709   -4.2239    0.6884 C.3     1  UNL1        0.0666
     13 C           0.4493   -2.8009    1.3173 C.3     1  UNL1        0.0537
     14 C           1.8724   -2.4248    1.4123 C.3     1  UNL1       -0.0040
     15 C           2.2244   -1.0736    1.8035 C.ar    1  UNL1       -0.0083
     16 C           2.7261   -0.1779    0.8908 C.ar    1  UNL1       -0.0286
     17 C           3.1043    1.1109    1.2015 C.ar    1  UNL1        0.0866
     18 N           3.6211    2.0154    0.2310 N.ar    1  UNL1       -0.1503
     19 N           3.5102    1.8556   -1.0745 N.ar    1  UNL1       -0.1556
     20 C           4.1008    2.8782   -1.7239 C.ar    1  UNL1        0.0697
     21 C           4.6049    3.7162   -0.7408 C.ar    1  UNL1        0.0697
     22 N           4.2771    3.1306    0.4269 N.ar    1  UNL1       -0.1556
     23 C           2.9754    1.5369    2.5035 C.ar    1  UNL1       -0.0318
     24 C           2.4704    0.6616    3.4642 C.ar    1  UNL1       -0.0241
     25 C           2.1010   -0.6209    3.1222 C.ar    1  UNL1        0.1267
     26 F           1.6176   -1.4300    4.0908 F       1  UNL1       -0.2052
     27 C          -2.3385    0.5495   -0.3382 C.ar    1  UNL1        0.1013
     28 N          -1.4110    1.3515    0.3938 N.ar    1  UNL1       -0.1493
     29 N          -0.5224    2.1784   -0.1357 N.ar    1  UNL1       -0.1556
     30 C           0.1890    2.7904    0.7995 C.ar    1  UNL1        0.0697
     31 C          -0.2756    2.3231    2.0104 C.ar    1  UNL1        0.0697
     32 N          -1.2494    1.4495    1.7027 N.ar    1  UNL1       -0.1556
     33 C          -3.1902    1.1457   -1.2813 C.ar    1  UNL1       -0.0197
     34 C          -3.0312    2.6297   -1.4520 C.3     1  UNL1       -0.0374
     35 H          -4.4916    1.8189   -3.6452 H       1  UNL1        0.0278
     36 H          -5.4965    0.3202   -3.6232 H       1  UNL1        0.0278
     37 H          -5.7831    1.6396   -2.4403 H       1  UNL1        0.0278
     38 H          -4.9212   -1.5175   -2.3530 H       1  UNL1        0.0620
     39 H          -3.4621   -2.6197   -0.7201 H       1  UNL1        0.0626
     40 H           0.7987   -1.1634   -1.0649 H       1  UNL1        0.0487
     41 H          -0.7306   -1.7952   -1.6914 H       1  UNL1        0.0487
     42 H           0.1166   -3.9267   -2.0335 H       1  UNL1        0.0575
     43 H           1.6113   -2.9853   -2.0979 H       1  UNL1        0.0575
     44 H          -0.5442   -4.5224    0.3992 H       1  UNL1        0.0578
     45 H           0.9771   -4.8937    1.3877 H       1  UNL1        0.0578
     46 H          -0.0523   -2.9561    2.2963 H       1  UNL1        0.0526
     47 H           2.3539   -2.6328    0.4242 H       1  UNL1        0.0333
     48 H           2.3609   -3.1524    2.1042 H       1  UNL1        0.0333
     49 H           2.8628   -0.4455   -0.1617 H       1  UNL1        0.0643
     50 H           4.1877    3.0503   -2.7913 H       1  UNL1        0.0864
     51 H           5.1464    4.6441   -0.9149 H       1  UNL1        0.0864
     52 H           3.2687    2.5439    2.7572 H       1  UNL1        0.0640
     53 H           2.3946    1.0554    4.4621 H       1  UNL1        0.0647
     54 H           0.9843    3.5170    0.6977 H       1  UNL1        0.0864
     55 H           0.0962    2.6246    2.9880 H       1  UNL1        0.0864
     56 H          -2.2503    2.8574   -2.2142 H       1  UNL1        0.0278
     57 H          -2.8041    3.0986   -0.4699 H       1  UNL1        0.0278
     58 H          -3.9850    2.9992   -1.8841 H       1  UNL1        0.0278
@<TRIPOS>BOND
     1     1     2    1
     2     2     3   ar
     3     3     4   ar
     4     4     5   ar
     5     5     6    1
     6     6     7    2
     7     6     8   am
     8     8     9    1
     9     9    10    1
    10    10    11    1
    11    11    12    1
    12    12    13    1
    13    13    14    1
    14    14    15    1
    15    15    16   ar
    16    16    17   ar
    17    17    18    1
    18    18    19   ar
    19    19    20   ar
    20    20    21   ar
    21    21    22   ar
    22    17    23   ar
    23    23    24   ar
    24    24    25   ar
    25    25    26    1
    26     5    27   ar
    27    27    28    1
    28    28    29   ar
    29    29    30   ar
    30    30    31   ar
    31    31    32   ar
    32    27    33   ar
    33    33    34    1
    34    33     2   ar
    35    13     8    1
    36    25    15   ar
    37    32    28   ar
    38    22    18   ar
    39     1    35    1
    40     1    36    1
    41     1    37    1
    42     3    38    1
    43     4    39    1
    44     9    40    1
    45     9    41    1
    46    10    42    1
    47    10    43    1
    48    12    44    1
    49    12    45    1
    50    13    46    1
    51    14    47    1
    52    14    48    1
    53    16    49    1
    54    20    50    1
    55    21    51    1
    56    23    52    1
    57    24    53    1
    58    30    54    1
    59    31    55    1
    60    34    56    1
    61    34    57    1
    62    34    58    1
