@<TRIPOS>MOLECULE
*****
 41 43 0 0 0
SMALL
GASTEIGER

@<TRIPOS>ATOM
      1 O          -0.2241    1.7991    1.3399 O.2     1  UNL1       -0.2700
      2 C          -0.4028    1.1635    0.2343 C.2     1  UNL1        0.2510
      3 N           0.6723    1.2005   -0.6577 N.am    1  UNL1       -0.3111
      4 C           1.8957    1.9188   -0.3254 C.3     1  UNL1        0.0122
      5 C           2.9169    1.8322   -1.4153 C.3     1  UNL1       -0.0334
      6 C           3.3205    0.4248   -1.7089 C.3     1  UNL1       -0.0263
      7 C           3.9007   -0.2073   -0.5153 C.ar    1  UNL1       -0.0471
      8 C           5.2769   -0.0970   -0.3187 C.ar    1  UNL1       -0.0559
      9 C           5.8707   -0.6721    0.7846 C.ar    1  UNL1       -0.0262
     10 C           5.1406   -1.3686    1.7239 C.ar    1  UNL1        0.1234
     11 F           5.7243   -1.9333    2.8075 F       1  UNL1       -0.2055
     12 C           3.7787   -1.4788    1.5310 C.ar    1  UNL1       -0.0262
     13 C           3.1751   -0.9039    0.4253 C.ar    1  UNL1       -0.0559
     14 C          -1.6664    0.4856    0.0188 C.ar    1  UNL1        0.1215
     15 C          -2.6393    0.5515    1.0239 C.ar    1  UNL1       -0.0320
     16 C          -3.8667   -0.0640    0.9003 C.ar    1  UNL1        0.0186
     17 C          -4.8309   -0.0101    1.8736 C.ar    1  UNL1       -0.0476
     18 C          -6.0652   -0.6145    1.7782 C.ar    1  UNL1       -0.0194
     19 C          -6.3222   -1.3158    0.6119 C.ar    1  UNL1        0.1204
     20 O          -7.5436   -1.9381    0.4693 O.3     1  UNL1       -0.5066
     21 C          -5.3779   -1.3937   -0.3913 C.ar    1  UNL1        0.0229
     22 C          -4.1364   -0.7645   -0.2531 C.ar    1  UNL1        0.1426
     23 O          -3.2279   -0.8207   -1.1811 O.2     1  UNL1       -0.4215
     24 C          -2.0311   -0.2338   -1.0868 C.ar    1  UNL1        0.3495
     25 O          -1.2193   -0.3438   -2.0352 O.2     1  UNL1       -0.2443
     26 H           0.6363    0.7255   -1.5715 H       1  UNL1        0.1490
     27 H           1.6724    2.9924   -0.1501 H       1  UNL1        0.0462
     28 H           2.3375    1.5394    0.6354 H       1  UNL1        0.0462
     29 H           3.7997    2.4219   -1.0876 H       1  UNL1        0.0283
     30 H           2.5266    2.3495   -2.3170 H       1  UNL1        0.0283
     31 H           4.0078    0.4378   -2.5759 H       1  UNL1        0.0314
     32 H           2.4332   -0.1595   -2.0248 H       1  UNL1        0.0314
     33 H           5.8555    0.4354   -1.0311 H       1  UNL1        0.0621
     34 H           6.9336   -0.5738    0.9150 H       1  UNL1        0.0646
     35 H           3.1576   -2.0144    2.2370 H       1  UNL1        0.0646
     36 H           2.1087   -1.0036    0.2959 H       1  UNL1        0.0621
     37 H          -2.4148    1.1065    1.9278 H       1  UNL1        0.0634
     38 H          -4.5698    0.5610    2.7768 H       1  UNL1        0.0626
     39 H          -6.8072   -0.5474    2.5784 H       1  UNL1        0.0654
     40 H          -8.2275   -1.5415   -0.1766 H       1  UNL1        0.2921
     41 H          -5.5681   -1.9450   -1.3187 H       1  UNL1        0.0691
@<TRIPOS>BOND
     1     1     2    2
     2     2     3   am
     3     3     4    1
     4     4     5    1
     5     5     6    1
     6     6     7    1
     7     7     8   ar
     8     8     9   ar
     9     9    10   ar
    10    10    11    1
    11    10    12   ar
    12    12    13   ar
    13     2    14    1
    14    14    15   ar
    15    15    16   ar
    16    16    17   ar
    17    17    18   ar
    18    18    19   ar
    19    19    20    1
    20    19    21   ar
    21    21    22   ar
    22    22    23   ar
    23    23    24   ar
    24    24    25    2
    25    13     7   ar
    26    24    14   ar
    27    22    16   ar
    28     3    26    1
    29     4    27    1
    30     4    28    1
    31     5    29    1
    32     5    30    1
    33     6    31    1
    34     6    32    1
    35     8    33    1
    36     9    34    1
    37    12    35    1
    38    13    36    1
    39    15    37    1
    40    17    38    1
    41    18    39    1
    42    20    40    1
    43    21    41    1
