
     RDKit          3D

 41 43  0  0  0  0  0  0  0  0999 V2000
   -0.2241    1.7991    1.3399 O   0  0  0  0  0  0  0  0  0  0  0  0
   -0.4028    1.1635    0.2343 C   0  0  0  0  0  0  0  0  0  0  0  0
    0.6723    1.2005   -0.6577 N   0  0  0  0  0  0  0  0  0  0  0  0
    1.8957    1.9188   -0.3254 C   0  0  0  0  0  0  0  0  0  0  0  0
    2.9169    1.8322   -1.4153 C   0  0  0  0  0  0  0  0  0  0  0  0
    3.3205    0.4248   -1.7089 C   0  0  0  0  0  0  0  0  0  0  0  0
    3.9007   -0.2073   -0.5153 C   0  0  0  0  0  0  0  0  0  0  0  0
    5.2769   -0.0970   -0.3187 C   0  0  0  0  0  0  0  0  0  0  0  0
    5.8707   -0.6721    0.7846 C   0  0  0  0  0  0  0  0  0  0  0  0
    5.1406   -1.3686    1.7239 C   0  0  0  0  0  0  0  0  0  0  0  0
    5.7243   -1.9333    2.8075 F   0  0  0  0  0  0  0  0  0  0  0  0
    3.7787   -1.4788    1.5310 C   0  0  0  0  0  0  0  0  0  0  0  0
    3.1751   -0.9039    0.4253 C   0  0  0  0  0  0  0  0  0  0  0  0
   -1.6664    0.4856    0.0188 C   0  0  0  0  0  0  0  0  0  0  0  0
   -2.6393    0.5515    1.0239 C   0  0  0  0  0  0  0  0  0  0  0  0
   -3.8667   -0.0640    0.9003 C   0  0  0  0  0  0  0  0  0  0  0  0
   -4.8309   -0.0101    1.8736 C   0  0  0  0  0  0  0  0  0  0  0  0
   -6.0652   -0.6145    1.7782 C   0  0  0  0  0  0  0  0  0  0  0  0
   -6.3222   -1.3158    0.6119 C   0  0  0  0  0  0  0  0  0  0  0  0
   -7.5436   -1.9381    0.4693 O   0  0  0  0  0  0  0  0  0  0  0  0
   -5.3779   -1.3937   -0.3913 C   0  0  0  0  0  0  0  0  0  0  0  0
   -4.1364   -0.7645   -0.2531 C   0  0  0  0  0  0  0  0  0  0  0  0
   -3.2279   -0.8207   -1.1811 O   0  0  0  0  0  0  0  0  0  0  0  0
   -2.0311   -0.2338   -1.0868 C   0  0  0  0  0  0  0  0  0  0  0  0
   -1.2193   -0.3438   -2.0352 O   0  0  0  0  0  0  0  0  0  0  0  0
    0.6363    0.7255   -1.5715 H   0  0  0  0  0  0  0  0  0  0  0  0
    1.6724    2.9924   -0.1501 H   0  0  0  0  0  0  0  0  0  0  0  0
    2.3375    1.5394    0.6354 H   0  0  0  0  0  0  0  0  0  0  0  0
    3.7997    2.4219   -1.0876 H   0  0  0  0  0  0  0  0  0  0  0  0
    2.5266    2.3495   -2.3170 H   0  0  0  0  0  0  0  0  0  0  0  0
    4.0078    0.4378   -2.5759 H   0  0  0  0  0  0  0  0  0  0  0  0
    2.4332   -0.1595   -2.0248 H   0  0  0  0  0  0  0  0  0  0  0  0
    5.8555    0.4354   -1.0311 H   0  0  0  0  0  0  0  0  0  0  0  0
    6.9336   -0.5738    0.9150 H   0  0  0  0  0  0  0  0  0  0  0  0
    3.1576   -2.0144    2.2370 H   0  0  0  0  0  0  0  0  0  0  0  0
    2.1087   -1.0036    0.2959 H   0  0  0  0  0  0  0  0  0  0  0  0
   -2.4148    1.1065    1.9278 H   0  0  0  0  0  0  0  0  0  0  0  0
   -4.5698    0.5610    2.7768 H   0  0  0  0  0  0  0  0  0  0  0  0
   -6.8072   -0.5474    2.5784 H   0  0  0  0  0  0  0  0  0  0  0  0
   -8.2275   -1.5415   -0.1766 H   0  0  0  0  0  0  0  0  0  0  0  0
   -5.5681   -1.9450   -1.3187 H   0  0  0  0  0  0  0  0  0  0  0  0
  1  2  2  0
  2  3  1  0
  3  4  1  0
  4  5  1  0
  5  6  1  0
  6  7  1  0
  7  8  2  0
  8  9  1  0
  9 10  2  0
 10 11  1  0
 10 12  1  0
 12 13  2  0
  2 14  1  0
 14 15  2  0
 15 16  1  0
 16 17  2  0
 17 18  1  0
 18 19  2  0
 19 20  1  0
 19 21  1  0
 21 22  2  0
 22 23  1  0
 23 24  1  0
 24 25  2  0
 13  7  1  0
 24 14  1  0
 22 16  1  0
  3 26  1  0
  4 27  1  0
  4 28  1  0
  5 29  1  0
  5 30  1  0
  6 31  1  0
  6 32  1  0
  8 33  1  0
  9 34  1  0
 12 35  1  0
 13 36  1  0
 15 37  1  0
 17 38  1  0
 18 39  1  0
 20 40  1  0
 21 41  1  0
M  END
$$$$
