
     RDKit          3D

 63 67  0  0  0  0  0  0  0  0999 V2000
   10.0168    1.2329   -2.0874 C   0  0  0  0  0  0  0  0  0  0  0  0
    9.9137    0.3317   -1.1404 C   0  0  0  0  0  0  0  0  0  0  0  0
    8.6332   -0.0420   -0.6071 C   0  0  0  0  0  0  0  0  0  0  0  0
    8.6201   -0.9335    0.3197 O   0  0  0  0  0  0  0  0  0  0  0  0
    7.4035    0.5057   -1.0360 N   0  0  0  0  0  0  0  0  0  0  0  0
    6.1831    0.0727   -0.4482 C   0  0  0  0  0  0  0  0  0  0  0  0
    5.6435    0.6860    0.6632 C   0  0  0  0  0  0  0  0  0  0  0  0
    4.4561    0.2482    1.2175 C   0  0  0  0  0  0  0  0  0  0  0  0
    3.7598   -0.8211    0.6830 C   0  0  0  0  0  0  0  0  0  0  0  0
    2.2765   -1.3499    1.3945 S   0  0  0  0  0  6  0  0  0  0  0  0
    2.1247   -2.8519    1.2007 O   0  0  0  0  0  0  0  0  0  0  0  0
    2.2396   -1.1240    2.8828 O   0  0  0  0  0  0  0  0  0  0  0  0
    0.8948   -0.5403    0.7094 N   0  0  0  0  0  0  0  0  0  0  0  0
    1.0339    0.8507    0.9747 C   0  0  0  0  0  0  0  0  0  0  0  0
   -0.2018    1.6719    0.7508 C   0  0  0  0  0  0  0  0  0  0  0  0
   -1.4124    0.8204    0.8287 N   0  0  0  0  0  0  0  0  0  0  0  0
   -2.4747    1.1137   -0.0008 C   0  0  0  0  0  0  0  0  0  0  0  0
   -2.2884    2.1421   -0.7785 O   0  0  0  0  0  0  0  0  0  0  0  0
   -3.7879    0.4715   -0.1681 C   0  0  0  0  0  0  0  0  0  0  0  0
   -3.6879   -0.9576   -0.5625 C   0  0  0  0  0  0  0  0  0  0  0  0
   -5.0784   -1.5702   -0.6944 C   0  0  0  0  0  0  0  0  0  0  0  0
   -5.8256   -0.9041   -1.8327 C   0  0  0  0  0  0  0  0  0  0  0  0
   -5.8521    0.5720   -1.5402 C   0  0  0  0  0  0  0  0  0  0  0  0
   -6.6540    0.8425   -0.2823 C   0  0  0  0  0  0  0  0  0  0  0  0
   -6.0346    0.0658    0.8393 C   0  0  0  0  0  0  0  0  0  0  0  0
   -5.8713   -1.3923    0.5594 C   0  0  0  0  0  0  0  0  0  0  0  0
   -4.6293    0.6523    1.0423 C   0  0  0  0  0  0  0  0  0  0  0  0
   -4.4882    1.1625   -1.3712 C   0  0  0  0  0  0  0  0  0  0  0  0
   -1.2950   -0.2154    1.7817 C   0  0  0  0  0  0  0  0  0  0  0  0
   -0.2679   -1.1885    1.2228 C   0  0  0  0  0  0  0  0  0  0  0  0
    4.3020   -1.4319   -0.4280 C   0  0  0  0  0  0  0  0  0  0  0  0
    5.4890   -0.9947   -0.9826 C   0  0  0  0  0  0  0  0  0  0  0  0
    9.1553    1.7136   -2.4886 H   0  0  0  0  0  0  0  0  0  0  0  0
   10.9920    1.4939   -2.4691 H   0  0  0  0  0  0  0  0  0  0  0  0
   10.8131   -0.1583   -0.7340 H   0  0  0  0  0  0  0  0  0  0  0  0
    7.3885    1.2204   -1.7762 H   0  0  0  0  0  0  0  0  0  0  0  0
    6.1956    1.5250    1.0779 H   0  0  0  0  0  0  0  0  0  0  0  0
    4.0318    0.7302    2.0911 H   0  0  0  0  0  0  0  0  0  0  0  0
    1.4188    0.9961    2.0073 H   0  0  0  0  0  0  0  0  0  0  0  0
    1.8209    1.2507    0.3007 H   0  0  0  0  0  0  0  0  0  0  0  0
   -0.3183    2.4079    1.5729 H   0  0  0  0  0  0  0  0  0  0  0  0
   -0.1905    2.2464   -0.1975 H   0  0  0  0  0  0  0  0  0  0  0  0
   -3.1444   -1.5920    0.1464 H   0  0  0  0  0  0  0  0  0  0  0  0
   -3.2173   -1.1008   -1.5664 H   0  0  0  0  0  0  0  0  0  0  0  0
   -4.9835   -2.6385   -0.9148 H   0  0  0  0  0  0  0  0  0  0  0  0
   -6.8750   -1.2718   -1.7718 H   0  0  0  0  0  0  0  0  0  0  0  0
   -5.3358   -1.0976   -2.7862 H   0  0  0  0  0  0  0  0  0  0  0  0
   -6.3955    1.0815   -2.3673 H   0  0  0  0  0  0  0  0  0  0  0  0
   -6.5448    1.9188   -0.0576 H   0  0  0  0  0  0  0  0  0  0  0  0
   -7.7252    0.6424   -0.4201 H   0  0  0  0  0  0  0  0  0  0  0  0
   -6.5585    0.2202    1.7978 H   0  0  0  0  0  0  0  0  0  0  0  0
   -6.8111   -1.9422    0.4636 H   0  0  0  0  0  0  0  0  0  0  0  0
   -5.3028   -1.8388    1.3951 H   0  0  0  0  0  0  0  0  0  0  0  0
   -4.1757    0.2181    1.9212 H   0  0  0  0  0  0  0  0  0  0  0  0
   -4.7435    1.7748    1.1858 H   0  0  0  0  0  0  0  0  0  0  0  0
   -3.8748    0.9041   -2.2486 H   0  0  0  0  0  0  0  0  0  0  0  0
   -4.5696    2.2383   -1.2110 H   0  0  0  0  0  0  0  0  0  0  0  0
   -2.1732   -0.8151    2.0281 H   0  0  0  0  0  0  0  0  0  0  0  0
   -0.8149    0.1744    2.7412 H   0  0  0  0  0  0  0  0  0  0  0  0
   -0.0668   -1.9322    2.0212 H   0  0  0  0  0  0  0  0  0  0  0  0
   -0.7658   -1.7358    0.3970 H   0  0  0  0  0  0  0  0  0  0  0  0
    3.7415   -2.2705   -0.8349 H   0  0  0  0  0  0  0  0  0  0  0  0
    5.8882   -1.4885   -1.8473 H   0  0  0  0  0  0  0  0  0  0  0  0
  1  2  2  3
  2  3  1  0
  3  4  2  0
  3  5  1  0
  5  6  1  0
  6  7  2  0
  7  8  1  0
  8  9  2  0
  9 10  1  0
 10 11  2  0
 10 12  2  0
 10 13  1  0
 13 14  1  0
 14 15  1  0
 15 16  1  0
 16 17  1  0
 17 18  2  0
 17 19  1  0
 19 20  1  0
 20 21  1  0
 21 22  1  0
 22 23  1  0
 23 24  1  0
 24 25  1  0
 25 26  1  0
 25 27  1  0
 23 28  1  0
 16 29  1  0
 29 30  1  0
  9 31  1  0
 31 32  2  0
 32  6  1  0
 30 13  1  0
 27 19  1  0
 28 19  1  0
 26 21  1  0
  1 33  1  0
  1 34  1  0
  2 35  1  0
  5 36  1  0
  7 37  1  0
  8 38  1  0
 14 39  1  0
 14 40  1  0
 15 41  1  0
 15 42  1  0
 20 43  1  0
 20 44  1  0
 21 45  1  0
 22 46  1  0
 22 47  1  0
 23 48  1  0
 24 49  1  0
 24 50  1  0
 25 51  1  0
 26 52  1  0
 26 53  1  0
 27 54  1  0
 27 55  1  0
 28 56  1  0
 28 57  1  0
 29 58  1  0
 29 59  1  0
 30 60  1  0
 30 61  1  0
 31 62  1  0
 32 63  1  0
M  END
$$$$
