@<TRIPOS>MOLECULE
*****
 63 67 0 0 0
SMALL
GASTEIGER

@<TRIPOS>ATOM
      1 C          10.0168    1.2329   -2.0874 C.2     1  UNL1       -0.0938
      2 C           9.9137    0.3317   -1.1404 C.2     1  UNL1       -0.0066
      3 C           8.6332   -0.0420   -0.6071 C.2     1  UNL1        0.2405
      4 O           8.6201   -0.9335    0.3197 O.2     1  UNL1       -0.2705
      5 N           7.4035    0.5057   -1.0360 N.am    1  UNL1       -0.2820
      6 C           6.1831    0.0727   -0.4482 C.ar    1  UNL1        0.0338
      7 C           5.6435    0.6860    0.6632 C.ar    1  UNL1       -0.0386
      8 C           4.4561    0.2482    1.2175 C.ar    1  UNL1       -0.0336
      9 C           3.7598   -0.8211    0.6830 C.ar    1  UNL1        0.1056
     10 S           2.2765   -1.3499    1.3945 S.O2    1  UNL1        0.0609
     11 O           2.1247   -2.8519    1.2007 O.2     1  UNL1       -0.1528
     12 O           2.2396   -1.1240    2.8828 O.2     1  UNL1       -0.1528
     13 N           0.8948   -0.5403    0.7094 N.3     1  UNL1       -0.1736
     14 C           1.0339    0.8507    0.9747 C.3     1  UNL1        0.0363
     15 C          -0.2018    1.6719    0.7508 C.3     1  UNL1        0.0291
     16 N          -1.4124    0.8204    0.8287 N.am    1  UNL1       -0.2985
     17 C          -2.4747    1.1137   -0.0008 C.2     1  UNL1        0.2218
     18 O          -2.2884    2.1421   -0.7785 O.2     1  UNL1       -0.2750
     19 C          -3.7879    0.4715   -0.1681 C.3     1  UNL1        0.0479
     20 C          -3.6879   -0.9576   -0.5625 C.3     1  UNL1       -0.0362
     21 C          -5.0784   -1.5702   -0.6944 C.3     1  UNL1       -0.0396
     22 C          -5.8256   -0.9041   -1.8327 C.3     1  UNL1       -0.0473
     23 C          -5.8521    0.5720   -1.5402 C.3     1  UNL1       -0.0396
     24 C          -6.6540    0.8425   -0.2823 C.3     1  UNL1       -0.0473
     25 C          -6.0346    0.0658    0.8393 C.3     1  UNL1       -0.0396
     26 C          -5.8713   -1.3923    0.5594 C.3     1  UNL1       -0.0473
     27 C          -4.6293    0.6523    1.0423 C.3     1  UNL1       -0.0362
     28 C          -4.4882    1.1625   -1.3712 C.3     1  UNL1       -0.0362
     29 C          -1.2950   -0.2154    1.7817 C.3     1  UNL1        0.0291
     30 C          -0.2679   -1.1885    1.2228 C.3     1  UNL1        0.0363
     31 C           4.3020   -1.4319   -0.4280 C.ar    1  UNL1       -0.0336
     32 C           5.4890   -0.9947   -0.9826 C.ar    1  UNL1       -0.0386
     33 H           9.1553    1.7136   -2.4886 H       1  UNL1        0.0536
     34 H          10.9920    1.4939   -2.4691 H       1  UNL1        0.0536
     35 H          10.8131   -0.1583   -0.7340 H       1  UNL1        0.0663
     36 H           7.3885    1.2204   -1.7762 H       1  UNL1        0.1551
     37 H           6.1956    1.5250    1.0779 H       1  UNL1        0.0637
     38 H           4.0318    0.7302    2.0911 H       1  UNL1        0.0638
     39 H           1.4188    0.9961    2.0073 H       1  UNL1        0.0459
     40 H           1.8209    1.2507    0.3007 H       1  UNL1        0.0459
     41 H          -0.3183    2.4079    1.5729 H       1  UNL1        0.0478
     42 H          -0.1905    2.2464   -0.1975 H       1  UNL1        0.0478
     43 H          -3.1444   -1.5920    0.1464 H       1  UNL1        0.0278
     44 H          -3.2173   -1.1008   -1.5664 H       1  UNL1        0.0278
     45 H          -4.9835   -2.6385   -0.9148 H       1  UNL1        0.0301
     46 H          -6.8750   -1.2718   -1.7718 H       1  UNL1        0.0271
     47 H          -5.3358   -1.0976   -2.7862 H       1  UNL1        0.0271
     48 H          -6.3955    1.0815   -2.3673 H       1  UNL1        0.0301
     49 H          -6.5448    1.9188   -0.0576 H       1  UNL1        0.0271
     50 H          -7.7252    0.6424   -0.4201 H       1  UNL1        0.0271
     51 H          -6.5585    0.2202    1.7978 H       1  UNL1        0.0301
     52 H          -6.8111   -1.9422    0.4636 H       1  UNL1        0.0271
     53 H          -5.3028   -1.8388    1.3951 H       1  UNL1        0.0271
     54 H          -4.1757    0.2181    1.9212 H       1  UNL1        0.0278
     55 H          -4.7435    1.7748    1.1858 H       1  UNL1        0.0278
     56 H          -3.8748    0.9041   -2.2486 H       1  UNL1        0.0278
     57 H          -4.5696    2.2383   -1.2110 H       1  UNL1        0.0278
     58 H          -2.1732   -0.8151    2.0281 H       1  UNL1        0.0478
     59 H          -0.8149    0.1744    2.7412 H       1  UNL1        0.0478
     60 H          -0.0668   -1.9322    2.0212 H       1  UNL1        0.0459
     61 H          -0.7658   -1.7358    0.3970 H       1  UNL1        0.0459
     62 H           3.7415   -2.2705   -0.8349 H       1  UNL1        0.0638
     63 H           5.8882   -1.4885   -1.8473 H       1  UNL1        0.0637
@<TRIPOS>BOND
     1     1     2    2
     2     2     3    1
     3     3     4    2
     4     3     5   am
     5     5     6    1
     6     6     7   ar
     7     7     8   ar
     8     8     9   ar
     9     9    10    1
    10    10    11    2
    11    10    12    2
    12    10    13    1
    13    13    14    1
    14    14    15    1
    15    15    16    1
    16    16    17   am
    17    17    18    2
    18    17    19    1
    19    19    20    1
    20    20    21    1
    21    21    22    1
    22    22    23    1
    23    23    24    1
    24    24    25    1
    25    25    26    1
    26    25    27    1
    27    23    28    1
    28    16    29    1
    29    29    30    1
    30     9    31   ar
    31    31    32   ar
    32    32     6   ar
    33    30    13    1
    34    27    19    1
    35    28    19    1
    36    26    21    1
    37     1    33    1
    38     1    34    1
    39     2    35    1
    40     5    36    1
    41     7    37    1
    42     8    38    1
    43    14    39    1
    44    14    40    1
    45    15    41    1
    46    15    42    1
    47    20    43    1
    48    20    44    1
    49    21    45    1
    50    22    46    1
    51    22    47    1
    52    23    48    1
    53    24    49    1
    54    24    50    1
    55    25    51    1
    56    26    52    1
    57    26    53    1
    58    27    54    1
    59    27    55    1
    60    28    56    1
    61    28    57    1
    62    29    58    1
    63    29    59    1
    64    30    60    1
    65    30    61    1
    66    31    62    1
    67    32    63    1
