@<TRIPOS>MOLECULE
*****
 178 179 0 0 0
SMALL
GASTEIGER

@<TRIPOS>ATOM
      1 C         -17.5658    2.2032    1.3986 C.3     1  UNL1        0.0817
      2 O         -16.2062    1.9955    1.6587 O.3     1  UNL1       -0.4666
      3 C         -15.6389    2.6597    2.7651 C.2     1  UNL1        0.3276
      4 O         -16.3658    3.4049    3.4538 O.2     1  UNL1       -0.2487
      5 C         -14.2210    2.4542    3.0746 C.3     1  UNL1        0.1230
      6 C         -13.4721    3.7324    3.0234 C.3     1  UNL1       -0.0225
      7 C         -12.5024    3.5958    1.8451 C.3     1  UNL1       -0.0349
      8 C         -13.1617    2.4646    1.0193 C.3     1  UNL1        0.0157
      9 N         -13.5481    1.5829    2.0898 N.am    1  UNL1       -0.2865
     10 C         -13.3907    0.2025    2.2728 C.2     1  UNL1        0.2371
     11 O         -13.8801   -0.1966    3.4440 O.2     1  UNL1       -0.2735
     12 C         -12.8081   -0.8431    1.4558 C.3     1  UNL1        0.1061
     13 C         -12.9794   -0.8612   -0.0144 C.3     1  UNL1       -0.0005
     14 C         -14.3997   -1.0059   -0.3874 C.ar    1  UNL1       -0.0451
     15 C         -14.9409   -2.2942   -0.4415 C.ar    1  UNL1       -0.0585
     16 C         -16.2567   -2.4827   -0.7862 C.ar    1  UNL1       -0.0615
     17 C         -17.0730   -1.4062   -1.0863 C.ar    1  UNL1       -0.0617
     18 C         -16.5469   -0.1446   -1.0350 C.ar    1  UNL1       -0.0615
     19 C         -15.2258    0.0358   -0.6890 C.ar    1  UNL1       -0.0585
     20 N         -11.5037   -1.3135    1.9330 N.am    1  UNL1       -0.2911
     21 C         -11.4437   -2.5888    2.6068 C.3     1  UNL1        0.0040
     22 C         -10.2938   -0.5613    1.7488 C.2     1  UNL1        0.2360
     23 O         -10.3752    0.5266    1.1378 O.2     1  UNL1       -0.2736
     24 C          -9.0424   -1.1230    2.2817 C.3     1  UNL1        0.0968
     25 C          -9.0263   -1.0347    3.7661 C.3     1  UNL1       -0.0381
     26 N          -7.8271   -0.5333    1.7138 N.am    1  UNL1       -0.3027
     27 C          -7.3319   -1.0589    0.4838 C.2     1  UNL1        0.2365
     28 O          -8.1188   -1.9958    0.0104 O.2     1  UNL1       -0.2737
     29 C          -6.1739   -0.7542   -0.2832 C.3     1  UNL1        0.1252
     30 N          -5.0650   -0.0698    0.2721 N.am    1  UNL1       -0.3018
     31 C          -4.0927    0.6046   -0.6013 C.2     1  UNL1        0.2162
     32 O          -4.4247    0.4897   -1.8088 O.2     1  UNL1       -0.2757
     33 C          -2.9230    1.2731   -0.0782 C.3     1  UNL1        0.0517
     34 C          -1.5561    0.9542   -0.5285 C.3     1  UNL1        0.0817
     35 O          -0.7303    1.8741    0.2413 O.3     1  UNL1       -0.3895
     36 C          -1.0533    0.9798   -1.8844 C.3     1  UNL1        0.0498
     37 C          -1.7876    0.3150   -2.9808 C.3     1  UNL1       -0.0297
     38 C          -2.0791   -1.1378   -2.8983 C.3     1  UNL1       -0.0450
     39 C          -2.9129   -1.4472   -4.1683 C.3     1  UNL1       -0.0626
     40 C          -0.8390   -1.9984   -3.0730 C.3     1  UNL1       -0.0626
     41 N           0.4082    0.5962   -1.8564 N.am    1  UNL1       -0.3084
     42 C           1.3029    1.0691   -2.8123 C.2     1  UNL1        0.2341
     43 O           0.6956    1.8256   -3.7292 O.2     1  UNL1       -0.2738
     44 C           2.7072    0.9179   -3.0140 C.3     1  UNL1        0.1076
     45 C           3.0742   -0.2012   -4.0360 C.3     1  UNL1        0.0506
     46 C           2.6948   -1.5291   -3.5691 C.2     1  UNL1        0.2127
     47 N           2.7609   -2.6714   -4.4509 N.am    1  UNL1       -0.3293
     48 O           2.2903   -1.7996   -2.4095 O.2     1  UNL1       -0.2760
     49 N           3.5151    0.5701   -1.8463 N.am    1  UNL1       -0.3020
     50 C           4.9339    0.6930   -1.9073 C.2     1  UNL1        0.2340
     51 O           5.3711    1.0977   -3.0572 O.2     1  UNL1       -0.2738
     52 C           5.8932    0.4137   -0.8610 C.3     1  UNL1        0.0997
     53 C           5.9739    1.5866    0.1057 C.3     1  UNL1       -0.0236
     54 C           6.3883    2.8894   -0.4427 C.3     1  UNL1       -0.0446
     55 C           6.4183    3.8559    0.7664 C.3     1  UNL1       -0.0626
     56 C           5.4909    3.5308   -1.4429 C.3     1  UNL1       -0.0626
     57 N           7.2396    0.2018   -1.4359 N.am    1  UNL1       -0.3009
     58 C           8.2766   -0.4441   -0.7603 C.2     1  UNL1        0.2547
     59 O           8.1276   -0.8496    0.4064 O.2     1  UNL1       -0.2717
     60 C           9.6141   -0.6792   -1.4035 C.3     1  UNL1        0.1807
     61 O          10.6064   -1.0065   -0.5072 O.3     1  UNL1       -0.4491
     62 C          11.1721   -2.1890   -0.1794 C.2     1  UNL1        0.3494
     63 O          10.7287   -3.2264   -0.7524 O.2     1  UNL1       -0.2466
     64 C          12.2754   -2.3783    0.7982 C.3     1  UNL1        0.2012
     65 O          12.8101   -1.0887    1.1858 O.3     1  UNL1       -0.4485
     66 C          14.1636   -0.8399    1.0647 C.2     1  UNL1        0.3255
     67 O          14.8567   -1.8171    0.6099 O.2     1  UNL1       -0.2490
     68 C          14.8499    0.4069    1.3992 C.3     1  UNL1        0.1102
     69 C          15.8515    0.2344    2.5381 C.3     1  UNL1       -0.0207
     70 C          16.4817    1.5766    2.7785 C.3     1  UNL1       -0.0607
     71 C          16.9071   -0.7783    2.2268 C.3     1  UNL1       -0.0607
     72 N          14.0154    1.5027    1.7408 N.3     1  UNL1       -0.2959
     73 C          13.1219    1.3303    2.8280 C.3     1  UNL1       -0.0123
     74 C          13.6213    2.3764    0.6917 C.3     1  UNL1       -0.0123
     75 C          11.7938   -2.9997    2.0931 C.3     1  UNL1        0.0011
     76 C          10.7572   -2.1682    2.7735 C.3     1  UNL1       -0.0588
     77 C          11.2803   -4.3931    1.9364 C.3     1  UNL1       -0.0588
     78 C           9.9483    0.2367   -2.5148 C.3     1  UNL1       -0.0008
     79 C           9.9999    1.6825   -2.1853 C.3     1  UNL1       -0.0588
     80 C          11.3054   -0.2242   -3.0702 C.3     1  UNL1       -0.0588
     81 C          -5.5765   -2.0704   -0.8776 C.3     1  UNL1        0.0792
     82 C          -4.7771   -2.8239    0.1175 C.3     1  UNL1       -0.0367
     83 O          -6.6185   -2.8145   -1.4504 O.3     1  UNL1       -0.3897
     84 H         -18.0452    2.8283    2.1864 H       1  UNL1        0.0661
     85 H         -17.7604    2.6771    0.4310 H       1  UNL1        0.0661
     86 H         -18.1345    1.2265    1.4426 H       1  UNL1        0.0661
     87 H         -14.0833    1.9561    4.0731 H       1  UNL1        0.0616
     88 H         -12.8700    3.8548    3.9466 H       1  UNL1        0.0289
     89 H         -14.1468    4.6091    2.8789 H       1  UNL1        0.0289
     90 H         -11.5284    3.2162    2.1915 H       1  UNL1        0.0281
     91 H         -12.4688    4.5189    1.2599 H       1  UNL1        0.0281
     92 H         -12.4597    2.0685    0.2951 H       1  UNL1        0.0465
     93 H         -14.0613    2.8978    0.5088 H       1  UNL1        0.0465
     94 H         -13.4827   -1.7906    1.7696 H       1  UNL1        0.0600
     95 H         -12.4606   -0.0468   -0.5678 H       1  UNL1        0.0336
     96 H         -12.4834   -1.8174   -0.3880 H       1  UNL1        0.0336
     97 H         -14.3166   -3.1688   -0.2049 H       1  UNL1        0.0620
     98 H         -16.6294   -3.5086   -0.8212 H       1  UNL1        0.0618
     99 H         -18.1026   -1.5749   -1.3519 H       1  UNL1        0.0618
    100 H         -17.1736    0.7313   -1.2633 H       1  UNL1        0.0618
    101 H         -14.8868    1.0606   -0.6880 H       1  UNL1        0.0620
    102 H         -12.4215   -3.1324    2.3943 H       1  UNL1        0.0429
    103 H         -10.6680   -3.2719    2.2489 H       1  UNL1        0.0429
    104 H         -11.4674   -2.4750    3.7199 H       1  UNL1        0.0429
    105 H          -9.0611   -2.2158    1.9662 H       1  UNL1        0.0592
    106 H         -10.0127   -0.6351    4.1192 H       1  UNL1        0.0252
    107 H          -8.9109   -2.0135    4.2855 H       1  UNL1        0.0252
    108 H          -8.2191   -0.3168    4.0600 H       1  UNL1        0.0252
    109 H          -7.3166    0.2341    2.1587 H       1  UNL1        0.1495
    110 H          -6.4447   -0.2066   -1.2433 H       1  UNL1        0.0621
    111 H          -4.8819   -0.0049    1.2885 H       1  UNL1        0.1495
    112 H          -3.1337    2.3925   -0.1717 H       1  UNL1        0.0384
    113 H          -2.9352    1.0976    1.0637 H       1  UNL1        0.0384
    114 H          -1.3327   -0.0739   -0.0182 H       1  UNL1        0.0616
    115 H          -0.6876    1.5580    1.1659 H       1  UNL1        0.2099
    116 H          -0.9540    2.0686   -2.2377 H       1  UNL1        0.0524
    117 H          -0.9934    0.3366   -3.8708 H       1  UNL1        0.0286
    118 H          -2.5924    0.8733   -3.4341 H       1  UNL1        0.0286
    119 H          -2.6354   -1.5135   -2.0627 H       1  UNL1        0.0296
    120 H          -2.2743   -1.1994   -5.0409 H       1  UNL1        0.0232
    121 H          -3.8664   -0.8794   -4.1311 H       1  UNL1        0.0232
    122 H          -3.0791   -2.5412   -4.1775 H       1  UNL1        0.0232
    123 H          -0.4336   -2.4192   -2.1701 H       1  UNL1        0.0232
    124 H          -0.0708   -1.3673   -3.6209 H       1  UNL1        0.0232
    125 H          -1.0402   -2.8251   -3.7757 H       1  UNL1        0.0232
    126 H           0.7692   -0.0230   -1.1099 H       1  UNL1        0.1491
    127 H           3.2163    1.7996   -3.4821 H       1  UNL1        0.0599
    128 H           4.0733   -0.0965   -4.4314 H       1  UNL1        0.0381
    129 H           2.3767    0.0296   -4.9060 H       1  UNL1        0.0381
    130 H           3.6442   -3.0576   -4.8162 H       1  UNL1        0.1449
    131 H           1.8593   -3.1079   -4.7069 H       1  UNL1        0.1449
    132 H           3.0669    0.2486   -0.9981 H       1  UNL1        0.1495
    133 H           5.5850   -0.4369   -0.2283 H       1  UNL1        0.0594
    134 H           6.7257    1.3266    0.9158 H       1  UNL1        0.0290
    135 H           5.0265    1.7002    0.6539 H       1  UNL1        0.0290
    136 H           7.4255    2.9549   -0.8422 H       1  UNL1        0.0296
    137 H           7.1756    3.5463    1.4980 H       1  UNL1        0.0232
    138 H           6.5774    4.8810    0.3717 H       1  UNL1        0.0232
    139 H           5.4381    3.8647    1.2765 H       1  UNL1        0.0232
    140 H           5.9576    3.6200   -2.4533 H       1  UNL1        0.0232
    141 H           5.3590    4.6233   -1.1377 H       1  UNL1        0.0232
    142 H           4.4685    3.1378   -1.4438 H       1  UNL1        0.0232
    143 H           7.3868    0.5652   -2.3945 H       1  UNL1        0.1496
    144 H           9.3965   -1.6985   -1.9324 H       1  UNL1        0.0835
    145 H          13.0836   -3.0054    0.4172 H       1  UNL1        0.0855
    146 H          15.4694    0.7246    0.5125 H       1  UNL1        0.0581
    147 H          15.3098   -0.0901    3.4623 H       1  UNL1        0.0316
    148 H          16.0081    2.3541    2.1446 H       1  UNL1        0.0233
    149 H          17.5730    1.5834    2.4785 H       1  UNL1        0.0233
    150 H          16.3936    1.8985    3.8480 H       1  UNL1        0.0233
    151 H          16.7969   -1.6792    2.8492 H       1  UNL1        0.0233
    152 H          16.9783   -1.0530    1.1572 H       1  UNL1        0.0233
    153 H          17.9150   -0.3461    2.4699 H       1  UNL1        0.0233
    154 H          12.0495    1.3490    2.5286 H       1  UNL1        0.0391
    155 H          13.3099    0.3820    3.4053 H       1  UNL1        0.0391
    156 H          13.2922    2.1386    3.5857 H       1  UNL1        0.0391
    157 H          14.4927    2.8865    0.1911 H       1  UNL1        0.0391
    158 H          13.0151    1.9274   -0.1104 H       1  UNL1        0.0391
    159 H          13.0507    3.2361    1.1572 H       1  UNL1        0.0391
    160 H          12.6920   -3.0553    2.7599 H       1  UNL1        0.0337
    161 H           9.7855   -2.6923    2.9153 H       1  UNL1        0.0234
    162 H          10.5879   -1.1761    2.2509 H       1  UNL1        0.0234
    163 H          11.1122   -1.9007    3.7890 H       1  UNL1        0.0234
    164 H          11.6508   -4.9156    1.0567 H       1  UNL1        0.0234
    165 H          10.1580   -4.4112    1.9597 H       1  UNL1        0.0234
    166 H          11.5935   -5.0316    2.8203 H       1  UNL1        0.0234
    167 H           9.2179    0.0547   -3.3551 H       1  UNL1        0.0336
    168 H           9.3696    2.2597   -2.9098 H       1  UNL1        0.0234
    169 H          11.0468    2.0606   -2.3797 H       1  UNL1        0.0234
    170 H           9.6356    1.9724   -1.1914 H       1  UNL1        0.0234
    171 H          12.0923    0.5391   -2.9049 H       1  UNL1        0.0234
    172 H          11.6624   -1.1467   -2.5706 H       1  UNL1        0.0234
    173 H          11.2528   -0.4768   -4.1477 H       1  UNL1        0.0234
    174 H          -4.9466   -1.7504   -1.7147 H       1  UNL1        0.0614
    175 H          -3.9334   -3.3485   -0.4019 H       1  UNL1        0.0255
    176 H          -5.3237   -3.6384    0.6362 H       1  UNL1        0.0255
    177 H          -4.2767   -2.1658    0.8671 H       1  UNL1        0.0255
    178 H          -7.0838   -2.1816   -2.0647 H       1  UNL1        0.2099
@<TRIPOS>BOND
     1     1     2    1
     2     2     3    1
     3     3     4    2
     4     3     5    1
     5     5     6    1
     6     6     7    1
     7     7     8    1
     8     8     9    1
     9     9    10   am
    10    10    11    2
    11    10    12    1
    12    12    13    1
    13    13    14    1
    14    14    15   ar
    15    15    16   ar
    16    16    17   ar
    17    17    18   ar
    18    18    19   ar
    19    12    20    1
    20    20    21    1
    21    20    22   am
    22    22    23    2
    23    22    24    1
    24    24    25    1
    25    24    26    1
    26    26    27   am
    27    27    28    2
    28    27    29    1
    29    29    30    1
    30    30    31   am
    31    31    32    2
    32    31    33    1
    33    33    34    1
    34    34    35    1
    35    34    36    1
    36    36    37    1
    37    37    38    1
    38    38    39    1
    39    38    40    1
    40    36    41    1
    41    41    42   am
    42    42    43    2
    43    42    44    1
    44    44    45    1
    45    45    46    1
    46    46    47   am
    47    46    48    2
    48    44    49    1
    49    49    50   am
    50    50    51    2
    51    50    52    1
    52    52    53    1
    53    53    54    1
    54    54    55    1
    55    54    56    1
    56    52    57    1
    57    57    58   am
    58    58    59    2
    59    58    60    1
    60    60    61    1
    61    61    62    1
    62    62    63    2
    63    62    64    1
    64    64    65    1
    65    65    66    1
    66    66    67    2
    67    66    68    1
    68    68    69    1
    69    69    70    1
    70    69    71    1
    71    68    72    1
    72    72    73    1
    73    72    74    1
    74    64    75    1
    75    75    76    1
    76    75    77    1
    77    60    78    1
    78    78    79    1
    79    78    80    1
    80    29    81    1
    81    81    82    1
    82    81    83    1
    83     9     5    1
    84    19    14   ar
    85     1    84    1
    86     1    85    1
    87     1    86    1
    88     5    87    1
    89     6    88    1
    90     6    89    1
    91     7    90    1
    92     7    91    1
    93     8    92    1
    94     8    93    1
    95    12    94    1
    96    13    95    1
    97    13    96    1
    98    15    97    1
    99    16    98    1
   100    17    99    1
   101    18   100    1
   102    19   101    1
   103    21   102    1
   104    21   103    1
   105    21   104    1
   106    24   105    1
   107    25   106    1
   108    25   107    1
   109    25   108    1
   110    26   109    1
   111    29   110    1
   112    30   111    1
   113    33   112    1
   114    33   113    1
   115    34   114    1
   116    35   115    1
   117    36   116    1
   118    37   117    1
   119    37   118    1
   120    38   119    1
   121    39   120    1
   122    39   121    1
   123    39   122    1
   124    40   123    1
   125    40   124    1
   126    40   125    1
   127    41   126    1
   128    44   127    1
   129    45   128    1
   130    45   129    1
   131    47   130    1
   132    47   131    1
   133    49   132    1
   134    52   133    1
   135    53   134    1
   136    53   135    1
   137    54   136    1
   138    55   137    1
   139    55   138    1
   140    55   139    1
   141    56   140    1
   142    56   141    1
   143    56   142    1
   144    57   143    1
   145    60   144    1
   146    64   145    1
   147    68   146    1
   148    69   147    1
   149    70   148    1
   150    70   149    1
   151    70   150    1
   152    71   151    1
   153    71   152    1
   154    71   153    1
   155    73   154    1
   156    73   155    1
   157    73   156    1
   158    74   157    1
   159    74   158    1
   160    74   159    1
   161    75   160    1
   162    76   161    1
   163    76   162    1
   164    76   163    1
   165    77   164    1
   166    77   165    1
   167    77   166    1
   168    78   167    1
   169    79   168    1
   170    79   169    1
   171    79   170    1
   172    80   171    1
   173    80   172    1
   174    80   173    1
   175    81   174    1
   176    82   175    1
   177    82   176    1
   178    82   177    1
   179    83   178    1
