@<TRIPOS>MOLECULE
*****
 45 48 0 0 0
SMALL
GASTEIGER

@<TRIPOS>ATOM
      1 O          -4.3469    0.8690    1.8743 O.2     1  UNL1       -0.2262
      2 C          -3.8434    0.4754    0.7714 C.2     1  UNL1        0.4035
      3 O          -4.7103   -0.2152   -0.0599 O.3     1  UNL1       -0.4355
      4 C          -6.0559   -0.4789    0.2630 C.3     1  UNL1        0.2215
      5 C          -6.8984    0.1405   -0.8561 C.3     1  UNL1        0.0899
      6 O          -6.4959   -0.4924   -2.0334 O.3     1  UNL1       -0.3911
      7 C          -6.3669   -1.9623    0.2499 C.3     1  UNL1        0.4287
      8 F          -7.7018   -2.1073    0.5774 F       1  UNL1       -0.1668
      9 F          -6.1590   -2.4681   -1.0033 F       1  UNL1       -0.1668
     10 F          -5.6415   -2.6422    1.2125 F       1  UNL1       -0.1668
     11 N          -2.5040    0.7480    0.4703 N.am    1  UNL1       -0.2668
     12 C          -1.5703    1.4556    1.2931 C.3     1  UNL1        0.0216
     13 C          -0.3213    0.6069    1.1697 C.3     1  UNL1       -0.0116
     14 C          -0.4924   -0.1621   -0.1589 C.3     1  UNL1       -0.0116
     15 C          -1.8151    0.3658   -0.7267 C.3     1  UNL1        0.0216
     16 C           0.5997    0.8181    0.0470 C.3     1  UNL1        0.0122
     17 C           1.9696    0.2462    0.1729 C.ar    1  UNL1        0.0671
     18 C           2.2421   -0.9335    0.8400 C.ar    1  UNL1       -0.0203
     19 C           3.6264   -1.1002    0.7195 C.ar    1  UNL1        0.0315
     20 N           4.1313   -0.0705    0.0187 N.ar    1  UNL1       -0.2396
     21 C           5.5349    0.0695   -0.2896 C.ar    1  UNL1        0.0655
     22 C           6.0318    1.3237   -0.5755 C.ar    1  UNL1       -0.0336
     23 C           7.3613    1.5217   -0.8771 C.ar    1  UNL1       -0.0244
     24 C           8.2168    0.4435   -0.8943 C.ar    1  UNL1        0.1235
     25 F           9.5382    0.6143   -1.1903 F       1  UNL1       -0.2055
     26 C           7.7063   -0.8115   -0.6055 C.ar    1  UNL1       -0.0244
     27 C           6.3837   -0.9931   -0.3077 C.ar    1  UNL1       -0.0336
     28 N           3.1322    0.7116   -0.2929 N.ar    1  UNL1       -0.1711
     29 H          -6.3383   -0.0725    1.2520 H       1  UNL1        0.0850
     30 H          -6.6159    1.2027   -0.9375 H       1  UNL1        0.0597
     31 H          -7.9803   -0.0139   -0.6542 H       1  UNL1        0.0597
     32 H          -6.6500    0.0641   -2.8363 H       1  UNL1        0.2096
     33 H          -1.3838    2.5006    0.9278 H       1  UNL1        0.0468
     34 H          -1.9177    1.4964    2.3648 H       1  UNL1        0.0468
     35 H          -0.0399   -0.0103    2.0474 H       1  UNL1        0.0326
     36 H          -0.3300   -1.2492   -0.1300 H       1  UNL1        0.0326
     37 H          -2.3257   -0.4228   -1.3089 H       1  UNL1        0.0468
     38 H          -1.6222    1.2685   -1.3512 H       1  UNL1        0.0468
     39 H           0.4952    1.7738   -0.5119 H       1  UNL1        0.0371
     40 H           1.5756   -1.6114    1.3546 H       1  UNL1        0.0651
     41 H           4.1653   -1.9393    1.1389 H       1  UNL1        0.0831
     42 H           5.3186    2.1613   -0.5522 H       1  UNL1        0.0640
     43 H           7.7368    2.5297   -1.1021 H       1  UNL1        0.0647
     44 H           8.3852   -1.6699   -0.6187 H       1  UNL1        0.0647
     45 H           5.9759   -1.9801   -0.0792 H       1  UNL1        0.0640
@<TRIPOS>BOND
     1     1     2    2
     2     2     3    1
     3     3     4    1
     4     4     5    1
     5     5     6    1
     6     4     7    1
     7     7     8    1
     8     7     9    1
     9     7    10    1
    10     2    11   am
    11    11    12    1
    12    12    13    1
    13    13    14    1
    14    14    15    1
    15    14    16    1
    16    16    17    1
    17    17    18   ar
    18    18    19   ar
    19    19    20   ar
    20    20    21    1
    21    21    22   ar
    22    22    23   ar
    23    23    24   ar
    24    24    25    1
    25    24    26   ar
    26    26    27   ar
    27    20    28   ar
    28    15    11    1
    29    28    17   ar
    30    16    13    1
    31    27    21   ar
    32     4    29    1
    33     5    30    1
    34     5    31    1
    35     6    32    1
    36    12    33    1
    37    12    34    1
    38    13    35    1
    39    14    36    1
    40    15    37    1
    41    15    38    1
    42    16    39    1
    43    18    40    1
    44    19    41    1
    45    22    42    1
    46    23    43    1
    47    26    44    1
    48    27    45    1
