
     RDKit          3D

 51 51  0  0  0  0  0  0  0  0999 V2000
    6.7301   -0.6849   -0.2639 C   0  0  0  0  0  0  0  0  0  0  0  0
    5.3216   -0.1568    0.0599 C   0  0  0  0  0  0  0  0  0  0  0  0
    4.3491   -0.5797   -0.9950 C   0  0  0  0  0  0  0  0  0  0  0  0
    2.9360   -0.0997   -0.7130 C   0  0  0  0  0  0  0  0  0  0  0  0
    2.8441    1.3707   -0.6486 C   0  0  0  0  0  0  0  0  0  0  0  0
    1.4964    1.9349   -0.4216 C   0  0  0  0  0  0  0  0  0  0  0  0
    0.7517    1.6974    0.8137 C   0  0  0  0  0  0  0  0  0  0  0  0
    0.3613    0.3622    1.2646 C   0  0  0  0  0  0  0  0  0  0  0  0
   -0.4831   -0.5023    0.3991 C   0  0  0  0  0  0  0  0  0  0  0  0
   -1.7805   -0.1052    0.0778 N   0  0  0  0  0  0  0  0  0  0  0  0
   -2.0741    0.9594   -0.7613 C   0  0  0  0  0  0  0  0  0  0  0  0
   -3.4045    0.8846   -1.4790 C   0  0  2  0  0  0  0  0  0  0  0  0
   -3.8252    2.1994   -1.6976 O   0  0  0  0  0  0  0  0  0  0  0  0
   -4.4687    0.1734   -0.7330 C   0  0  1  0  0  0  0  0  0  0  0  0
   -5.5516   -0.0556   -1.5433 O   0  0  0  0  0  0  0  0  0  0  0  0
   -3.9167   -1.1177   -0.1268 C   0  0  2  0  0  0  0  0  0  0  0  0
   -4.8798   -1.8893    0.4630 O   0  0  0  0  0  0  0  0  0  0  0  0
   -2.8529   -0.6238    0.8645 C   0  0  1  0  0  0  0  0  0  0  0  0
   -2.4627   -1.6912    1.8234 C   0  0  0  0  0  0  0  0  0  0  0  0
   -3.6402   -2.0766    2.5115 O   0  0  0  0  0  0  0  0  0  0  0  0
    6.6814   -1.6271   -0.8288 H   0  0  0  0  0  0  0  0  0  0  0  0
    7.2143    0.0726   -0.9311 H   0  0  0  0  0  0  0  0  0  0  0  0
    7.3528   -0.7460    0.6432 H   0  0  0  0  0  0  0  0  0  0  0  0
    5.0692   -0.5373    1.0502 H   0  0  0  0  0  0  0  0  0  0  0  0
    5.3574    0.9543    0.1317 H   0  0  0  0  0  0  0  0  0  0  0  0
    4.3235   -1.6985   -1.0162 H   0  0  0  0  0  0  0  0  0  0  0  0
    4.6578   -0.2366   -2.0003 H   0  0  0  0  0  0  0  0  0  0  0  0
    2.3210   -0.4328   -1.5987 H   0  0  0  0  0  0  0  0  0  0  0  0
    2.6041   -0.5762    0.1988 H   0  0  0  0  0  0  0  0  0  0  0  0
    3.5745    1.8004    0.0972 H   0  0  0  0  0  0  0  0  0  0  0  0
    3.1951    1.7676   -1.6470 H   0  0  0  0  0  0  0  0  0  0  0  0
    0.8746    1.7104   -1.3406 H   0  0  0  0  0  0  0  0  0  0  0  0
    1.6474    3.0802   -0.4777 H   0  0  0  0  0  0  0  0  0  0  0  0
    1.4633    2.0847    1.6599 H   0  0  0  0  0  0  0  0  0  0  0  0
   -0.0860    2.4580    0.9456 H   0  0  0  0  0  0  0  0  0  0  0  0
    1.1993   -0.1565    1.7859 H   0  0  0  0  0  0  0  0  0  0  0  0
   -0.3774    0.5972    2.1743 H   0  0  0  0  0  0  0  0  0  0  0  0
    0.0910   -0.5803   -0.5912 H   0  0  0  0  0  0  0  0  0  0  0  0
   -0.4457   -1.5627    0.7726 H   0  0  0  0  0  0  0  0  0  0  0  0
   -1.3182    1.0079   -1.5788 H   0  0  0  0  0  0  0  0  0  0  0  0
   -2.0091    1.9406   -0.2303 H   0  0  0  0  0  0  0  0  0  0  0  0
   -3.2876    0.4233   -2.4864 H   0  0  0  0  0  0  0  0  0  0  0  0
   -4.3853    2.5497   -0.9647 H   0  0  0  0  0  0  0  0  0  0  0  0
   -4.7878    0.8024    0.1419 H   0  0  0  0  0  0  0  0  0  0  0  0
   -6.3745    0.3989   -1.1742 H   0  0  0  0  0  0  0  0  0  0  0  0
   -3.3588   -1.6433   -0.9463 H   0  0  0  0  0  0  0  0  0  0  0  0
   -5.6809   -1.3720    0.6501 H   0  0  0  0  0  0  0  0  0  0  0  0
   -3.2972    0.2191    1.4310 H   0  0  0  0  0  0  0  0  0  0  0  0
   -1.7790   -1.2962    2.5966 H   0  0  0  0  0  0  0  0  0  0  0  0
   -2.0680   -2.6108    1.3725 H   0  0  0  0  0  0  0  0  0  0  0  0
   -3.8212   -1.4860    3.2662 H   0  0  0  0  0  0  0  0  0  0  0  0
  1  2  1  0
  2  3  1  0
  3  4  1  0
  4  5  1  0
  5  6  1  0
  6  7  1  0
  7  8  1  0
  8  9  1  0
  9 10  1  0
 10 11  1  0
 11 12  1  0
 12 13  1  0
 12 14  1  0
 14 15  1  0
 14 16  1  0
 16 17  1  0
 16 18  1  0
 18 19  1  0
 19 20  1  0
 18 10  1  0
  1 21  1  0
  1 22  1  0
  1 23  1  0
  2 24  1  0
  2 25  1  0
  3 26  1  0
  3 27  1  0
  4 28  1  0
  4 29  1  0
  5 30  1  0
  5 31  1  0
  6 32  1  0
  6 33  1  0
  7 34  1  0
  7 35  1  0
  8 36  1  0
  8 37  1  0
  9 38  1  0
  9 39  1  0
 11 40  1  0
 11 41  1  0
 12 42  1  6
 13 43  1  0
 14 44  1  1
 15 45  1  0
 16 46  1  6
 17 47  1  0
 18 48  1  1
 19 49  1  0
 19 50  1  0
 20 51  1  0
M  END
$$$$
