@<TRIPOS>MOLECULE
*****
 51 51 0 0 0
SMALL
GASTEIGER

@<TRIPOS>ATOM
      1 C           6.7301   -0.6849   -0.2639 C.3     1  UNL1       -0.0653
      2 C           5.3216   -0.1568    0.0599 C.3     1  UNL1       -0.0559
      3 C           4.3491   -0.5797   -0.9950 C.3     1  UNL1       -0.0533
      4 C           2.9360   -0.0997   -0.7130 C.3     1  UNL1       -0.0531
      5 C           2.8441    1.3707   -0.6486 C.3     1  UNL1       -0.0531
      6 C           1.4964    1.9349   -0.4216 C.3     1  UNL1       -0.0530
      7 C           0.7517    1.6974    0.8137 C.3     1  UNL1       -0.0519
      8 C           0.3613    0.3622    1.2646 C.3     1  UNL1       -0.0402
      9 C          -0.4831   -0.5023    0.3991 C.3     1  UNL1       -0.0006
     10 N          -1.7805   -0.1052    0.0778 N.3     1  UNL1       -0.2923
     11 C          -2.0741    0.9594   -0.7613 C.3     1  UNL1        0.0279
     12 C          -3.4045    0.8846   -1.4790 C.3     1  UNL1        0.0962
     13 O          -3.8252    2.1994   -1.6976 O.3     1  UNL1       -0.3879
     14 C          -4.4687    0.1734   -0.7330 C.3     1  UNL1        0.1095
     15 O          -5.5516   -0.0556   -1.5433 O.3     1  UNL1       -0.3866
     16 C          -3.9167   -1.1177   -0.1268 C.3     1  UNL1        0.1011
     17 O          -4.8798   -1.8893    0.4630 O.3     1  UNL1       -0.3875
     18 C          -2.8529   -0.6238    0.8645 C.3     1  UNL1        0.0621
     19 C          -2.4627   -1.6912    1.8234 C.3     1  UNL1        0.0622
     20 O          -3.6402   -2.0766    2.5115 O.3     1  UNL1       -0.3934
     21 H           6.6814   -1.6271   -0.8288 H       1  UNL1        0.0230
     22 H           7.2143    0.0726   -0.9311 H       1  UNL1        0.0230
     23 H           7.3528   -0.7460    0.6432 H       1  UNL1        0.0230
     24 H           5.0692   -0.5373    1.0502 H       1  UNL1        0.0263
     25 H           5.3574    0.9543    0.1317 H       1  UNL1        0.0263
     26 H           4.3235   -1.6985   -1.0162 H       1  UNL1        0.0265
     27 H           4.6578   -0.2366   -2.0003 H       1  UNL1        0.0265
     28 H           2.3210   -0.4328   -1.5987 H       1  UNL1        0.0265
     29 H           2.6041   -0.5762    0.1988 H       1  UNL1        0.0265
     30 H           3.5745    1.8004    0.0972 H       1  UNL1        0.0265
     31 H           3.1951    1.7676   -1.6470 H       1  UNL1        0.0265
     32 H           0.8746    1.7104   -1.3406 H       1  UNL1        0.0265
     33 H           1.6474    3.0802   -0.4777 H       1  UNL1        0.0265
     34 H           1.4633    2.0847    1.6599 H       1  UNL1        0.0266
     35 H          -0.0860    2.4580    0.9456 H       1  UNL1        0.0266
     36 H           1.1993   -0.1565    1.7859 H       1  UNL1        0.0278
     37 H          -0.3774    0.5972    2.1743 H       1  UNL1        0.0278
     38 H           0.0910   -0.5803   -0.5912 H       1  UNL1        0.0427
     39 H          -0.4457   -1.5627    0.7726 H       1  UNL1        0.0427
     40 H          -1.3182    1.0079   -1.5788 H       1  UNL1        0.0453
     41 H          -2.0091    1.9406   -0.2303 H       1  UNL1        0.0453
     42 H          -3.2876    0.4233   -2.4864 H       1  UNL1        0.0633
     43 H          -4.3853    2.5497   -0.9647 H       1  UNL1        0.2099
     44 H          -4.7878    0.8024    0.1419 H       1  UNL1        0.0646
     45 H          -6.3745    0.3989   -1.1742 H       1  UNL1        0.2100
     46 H          -3.3588   -1.6433   -0.9463 H       1  UNL1        0.0636
     47 H          -5.6809   -1.3720    0.6501 H       1  UNL1        0.2100
     48 H          -3.2972    0.2191    1.4310 H       1  UNL1        0.0511
     49 H          -1.7790   -1.2962    2.5966 H       1  UNL1        0.0573
     50 H          -2.0680   -2.6108    1.3725 H       1  UNL1        0.0573
     51 H          -3.8212   -1.4860    3.2662 H       1  UNL1        0.2095
@<TRIPOS>BOND
     1     1     2    1
     2     2     3    1
     3     3     4    1
     4     4     5    1
     5     5     6    1
     6     6     7    1
     7     7     8    1
     8     8     9    1
     9     9    10    1
    10    10    11    1
    11    11    12    1
    12    12    13    1
    13    12    14    1
    14    14    15    1
    15    14    16    1
    16    16    17    1
    17    16    18    1
    18    18    19    1
    19    19    20    1
    20    18    10    1
    21     1    21    1
    22     1    22    1
    23     1    23    1
    24     2    24    1
    25     2    25    1
    26     3    26    1
    27     3    27    1
    28     4    28    1
    29     4    29    1
    30     5    30    1
    31     5    31    1
    32     6    32    1
    33     6    33    1
    34     7    34    1
    35     7    35    1
    36     8    36    1
    37     8    37    1
    38     9    38    1
    39     9    39    1
    40    11    40    1
    41    11    41    1
    42    12    42    1
    43    13    43    1
    44    14    44    1
    45    15    45    1
    46    16    46    1
    47    17    47    1
    48    18    48    1
    49    19    49    1
    50    19    50    1
    51    20    51    1
