@<TRIPOS>MOLECULE
*****
 76 83 0 0 0
SMALL
GASTEIGER

@<TRIPOS>ATOM
      1 C          12.1558    2.4408    3.2563 C.3     1  UNL1        0.0516
      2 N          10.8564    1.7662    3.1532 N.ar    1  UNL1       -0.1659
      3 N          10.1455    1.2678    4.1473 N.ar    1  UNL1       -0.0460
      4 N           9.0262    0.7329    3.6905 N.ar    1  UNL1       -0.1078
      5 C           9.0044    0.8887    2.3352 C.ar    1  UNL1        0.2046
      6 C           7.9541    0.4449    1.4266 C.ar    1  UNL1        0.0248
      7 C           8.2527   -0.1647    0.2202 C.ar    1  UNL1       -0.0488
      8 C           7.2621   -0.5875   -0.6427 C.ar    1  UNL1       -0.0335
      9 C           5.9184   -0.4252   -0.3491 C.ar    1  UNL1        0.0899
     10 N           4.9577   -0.8401   -1.1945 N.ar    1  UNL1       -0.2430
     11 C           3.6326   -0.6799   -0.9024 C.ar    1  UNL1        0.0976
     12 C           2.6114   -1.1313   -1.8167 C.ar    1  UNL1        0.0025
     13 C           1.8572   -0.3399   -2.6462 C.ar    1  UNL1       -0.0525
     14 C           0.8894   -0.8456   -3.4858 C.ar    1  UNL1       -0.0611
     15 C           0.6381   -2.2031   -3.5228 C.ar    1  UNL1       -0.0617
     16 C           1.3702   -3.0227   -2.7103 C.ar    1  UNL1       -0.0611
     17 C           2.3430   -2.4993   -1.8686 C.ar    1  UNL1       -0.0525
     18 C           3.3349   -0.0731    0.2985 C.ar    1  UNL1        0.0976
     19 C           1.9217    0.1114    0.6417 C.ar    1  UNL1        0.0025
     20 C           1.1193    1.0878    0.1036 C.ar    1  UNL1       -0.0522
     21 C          -0.2218    1.2250    0.4419 C.ar    1  UNL1       -0.0567
     22 C          -0.8105    0.3749    1.3441 C.ar    1  UNL1       -0.0333
     23 C          -2.2491    0.4603    1.7336 C.3     1  UNL1        0.0240
     24 N          -3.0118   -0.4411    0.9532 N.3     1  UNL1       -0.2980
     25 C          -2.9570   -0.1557   -0.4347 C.3     1  UNL1        0.0011
     26 C          -4.1348    0.7831   -0.7516 C.3     1  UNL1       -0.0191
     27 C          -5.3269   -0.1230   -0.9157 C.3     1  UNL1        0.0417
     28 N          -6.5621    0.6551   -0.9562 N.ar    1  UNL1       -0.2891
     29 C          -6.7279    1.9785   -0.8682 C.ar    1  UNL1        0.3278
     30 O          -5.7992    2.8490   -0.7318 O.2     1  UNL1       -0.2465
     31 N          -8.0553    2.2581   -0.9483 N.ar    1  UNL1       -0.3059
     32 C          -8.6998    1.0940   -1.0865 C.ar    1  UNL1        0.0670
     33 C         -10.0519    0.8511   -1.2098 C.ar    1  UNL1       -0.0362
     34 C         -10.4617   -0.4633   -1.3434 C.ar    1  UNL1       -0.0597
     35 C          -9.5394   -1.5027   -1.3528 C.ar    1  UNL1       -0.0597
     36 C          -8.1932   -1.2368   -1.2280 C.ar    1  UNL1       -0.0360
     37 C          -7.7875    0.0763   -1.0946 C.ar    1  UNL1        0.0700
     38 C          -5.2930   -1.0697    0.2750 C.3     1  UNL1       -0.0191
     39 C          -4.3830   -0.5736    1.3772 C.3     1  UNL1        0.0011
     40 C           0.0011   -0.6221    1.8975 C.ar    1  UNL1       -0.0567
     41 C           1.3049   -0.7441    1.5593 C.ar    1  UNL1       -0.0522
     42 N           4.3128    0.3446    1.1491 N.ar    1  UNL1       -0.2430
     43 C           5.6117    0.1810    0.8507 C.ar    1  UNL1        0.0906
     44 C           6.6174    0.6072    1.7207 C.ar    1  UNL1       -0.0234
     45 N          10.1538    1.5297    2.0626 N.ar    1  UNL1       -0.1307
     46 H          12.9372    1.6759    3.0653 H       1  UNL1        0.0491
     47 H          12.1924    3.1552    2.3831 H       1  UNL1        0.0491
     48 H          12.2600    2.9468    4.2264 H       1  UNL1        0.0491
     49 H           9.2876   -0.3044   -0.0369 H       1  UNL1        0.0625
     50 H           7.5098   -1.0630   -1.5825 H       1  UNL1        0.0640
     51 H           2.0279    0.7239   -2.6524 H       1  UNL1        0.0624
     52 H           0.3206   -0.1799   -4.1209 H       1  UNL1        0.0618
     53 H          -0.1393   -2.5840   -4.2005 H       1  UNL1        0.0618
     54 H           1.1693   -4.0996   -2.7407 H       1  UNL1        0.0618
     55 H           2.9204   -3.1647   -1.2247 H       1  UNL1        0.0624
     56 H           1.5346    1.7830   -0.6024 H       1  UNL1        0.0624
     57 H          -0.8248    2.0326   -0.0118 H       1  UNL1        0.0621
     58 H          -2.2924    0.1980    2.8146 H       1  UNL1        0.0476
     59 H          -2.5655    1.5251    1.5750 H       1  UNL1        0.0476
     60 H          -2.0134    0.1858   -0.8434 H       1  UNL1        0.0427
     61 H          -3.1747   -1.1377   -0.9642 H       1  UNL1        0.0427
     62 H          -3.9273    1.3891   -1.6477 H       1  UNL1        0.0298
     63 H          -4.2895    1.3824    0.1692 H       1  UNL1        0.0298
     64 H          -5.2355   -0.7170   -1.8593 H       1  UNL1        0.0530
     65 H          -8.4103    3.2345   -0.9004 H       1  UNL1        0.1704
     66 H         -10.7362    1.6733   -1.1988 H       1  UNL1        0.0639
     67 H         -11.5126   -0.6335   -1.4377 H       1  UNL1        0.0618
     68 H          -9.9143   -2.5270   -1.4615 H       1  UNL1        0.0618
     69 H          -7.4595   -2.0237   -1.2351 H       1  UNL1        0.0639
     70 H          -4.9189   -2.0739   -0.0292 H       1  UNL1        0.0298
     71 H          -6.3107   -1.1727    0.6760 H       1  UNL1        0.0298
     72 H          -4.3920   -1.3923    2.1497 H       1  UNL1        0.0427
     73 H          -4.7830    0.3428    1.8478 H       1  UNL1        0.0427
     74 H          -0.4881   -1.2781    2.6065 H       1  UNL1        0.0621
     75 H           1.8999   -1.5255    2.0072 H       1  UNL1        0.0624
     76 H           6.3415    1.0782    2.6520 H       1  UNL1        0.0646
@<TRIPOS>BOND
     1     1     2    1
     2     2     3   ar
     3     3     4   ar
     4     4     5   ar
     5     5     6    1
     6     6     7   ar
     7     7     8   ar
     8     8     9   ar
     9     9    10   ar
    10    10    11   ar
    11    11    12    1
    12    12    13   ar
    13    13    14   ar
    14    14    15   ar
    15    15    16   ar
    16    16    17   ar
    17    11    18   ar
    18    18    19    1
    19    19    20   ar
    20    20    21   ar
    21    21    22   ar
    22    22    23    1
    23    23    24    1
    24    24    25    1
    25    25    26    1
    26    26    27    1
    27    27    28    1
    28    28    29   ar
    29    29    30    2
    30    29    31   ar
    31    31    32   ar
    32    32    33   ar
    33    33    34   ar
    34    34    35   ar
    35    35    36   ar
    36    36    37   ar
    37    27    38    1
    38    38    39    1
    39    22    40   ar
    40    40    41   ar
    41    18    42   ar
    42    42    43   ar
    43    43    44   ar
    44     5    45   ar
    45    45     2   ar
    46    44     6   ar
    47    43     9   ar
    48    17    12   ar
    49    41    19   ar
    50    39    24    1
    51    37    28   ar
    52    37    32   ar
    53     1    46    1
    54     1    47    1
    55     1    48    1
    56     7    49    1
    57     8    50    1
    58    13    51    1
    59    14    52    1
    60    15    53    1
    61    16    54    1
    62    17    55    1
    63    20    56    1
    64    21    57    1
    65    23    58    1
    66    23    59    1
    67    25    60    1
    68    25    61    1
    69    26    62    1
    70    26    63    1
    71    27    64    1
    72    31    65    1
    73    33    66    1
    74    34    67    1
    75    35    68    1
    76    36    69    1
    77    38    70    1
    78    38    71    1
    79    39    72    1
    80    39    73    1
    81    40    74    1
    82    41    75    1
    83    44    76    1
