
     RDKit          3D

 76 83  0  0  0  0  0  0  0  0999 V2000
   12.1558    2.4408    3.2563 C   0  0  0  0  0  0  0  0  0  0  0  0
   10.8564    1.7662    3.1532 N   0  0  0  0  0  0  0  0  0  0  0  0
   10.1455    1.2678    4.1473 N   0  0  0  0  0  0  0  0  0  0  0  0
    9.0262    0.7329    3.6905 N   0  0  0  0  0  0  0  0  0  0  0  0
    9.0044    0.8887    2.3352 C   0  0  0  0  0  0  0  0  0  0  0  0
    7.9541    0.4449    1.4266 C   0  0  0  0  0  0  0  0  0  0  0  0
    8.2527   -0.1647    0.2202 C   0  0  0  0  0  0  0  0  0  0  0  0
    7.2621   -0.5875   -0.6427 C   0  0  0  0  0  0  0  0  0  0  0  0
    5.9184   -0.4252   -0.3491 C   0  0  0  0  0  0  0  0  0  0  0  0
    4.9577   -0.8401   -1.1945 N   0  0  0  0  0  0  0  0  0  0  0  0
    3.6326   -0.6799   -0.9024 C   0  0  0  0  0  0  0  0  0  0  0  0
    2.6114   -1.1313   -1.8167 C   0  0  0  0  0  0  0  0  0  0  0  0
    1.8572   -0.3399   -2.6462 C   0  0  0  0  0  0  0  0  0  0  0  0
    0.8894   -0.8456   -3.4858 C   0  0  0  0  0  0  0  0  0  0  0  0
    0.6381   -2.2031   -3.5228 C   0  0  0  0  0  0  0  0  0  0  0  0
    1.3702   -3.0227   -2.7103 C   0  0  0  0  0  0  0  0  0  0  0  0
    2.3430   -2.4993   -1.8686 C   0  0  0  0  0  0  0  0  0  0  0  0
    3.3349   -0.0731    0.2985 C   0  0  0  0  0  0  0  0  0  0  0  0
    1.9217    0.1114    0.6417 C   0  0  0  0  0  0  0  0  0  0  0  0
    1.1193    1.0878    0.1036 C   0  0  0  0  0  0  0  0  0  0  0  0
   -0.2218    1.2250    0.4419 C   0  0  0  0  0  0  0  0  0  0  0  0
   -0.8105    0.3749    1.3441 C   0  0  0  0  0  0  0  0  0  0  0  0
   -2.2491    0.4603    1.7336 C   0  0  0  0  0  0  0  0  0  0  0  0
   -3.0118   -0.4411    0.9532 N   0  0  0  0  0  0  0  0  0  0  0  0
   -2.9570   -0.1557   -0.4347 C   0  0  0  0  0  0  0  0  0  0  0  0
   -4.1348    0.7831   -0.7516 C   0  0  0  0  0  0  0  0  0  0  0  0
   -5.3269   -0.1230   -0.9157 C   0  0  0  0  0  0  0  0  0  0  0  0
   -6.5621    0.6551   -0.9562 N   0  0  0  0  0  0  0  0  0  0  0  0
   -6.7279    1.9785   -0.8682 C   0  0  0  0  0  0  0  0  0  0  0  0
   -5.7992    2.8490   -0.7318 O   0  0  0  0  0  0  0  0  0  0  0  0
   -8.0553    2.2581   -0.9483 N   0  0  0  0  0  0  0  0  0  0  0  0
   -8.6998    1.0940   -1.0865 C   0  0  0  0  0  0  0  0  0  0  0  0
  -10.0519    0.8511   -1.2098 C   0  0  0  0  0  0  0  0  0  0  0  0
  -10.4617   -0.4633   -1.3434 C   0  0  0  0  0  0  0  0  0  0  0  0
   -9.5394   -1.5027   -1.3528 C   0  0  0  0  0  0  0  0  0  0  0  0
   -8.1932   -1.2368   -1.2280 C   0  0  0  0  0  0  0  0  0  0  0  0
   -7.7875    0.0763   -1.0946 C   0  0  0  0  0  0  0  0  0  0  0  0
   -5.2930   -1.0697    0.2750 C   0  0  0  0  0  0  0  0  0  0  0  0
   -4.3830   -0.5736    1.3772 C   0  0  0  0  0  0  0  0  0  0  0  0
    0.0011   -0.6221    1.8975 C   0  0  0  0  0  0  0  0  0  0  0  0
    1.3049   -0.7441    1.5593 C   0  0  0  0  0  0  0  0  0  0  0  0
    4.3128    0.3446    1.1491 N   0  0  0  0  0  0  0  0  0  0  0  0
    5.6117    0.1810    0.8507 C   0  0  0  0  0  0  0  0  0  0  0  0
    6.6174    0.6072    1.7207 C   0  0  0  0  0  0  0  0  0  0  0  0
   10.1538    1.5297    2.0626 N   0  0  0  0  0  0  0  0  0  0  0  0
   12.9372    1.6759    3.0653 H   0  0  0  0  0  0  0  0  0  0  0  0
   12.1924    3.1552    2.3831 H   0  0  0  0  0  0  0  0  0  0  0  0
   12.2600    2.9468    4.2264 H   0  0  0  0  0  0  0  0  0  0  0  0
    9.2876   -0.3044   -0.0369 H   0  0  0  0  0  0  0  0  0  0  0  0
    7.5098   -1.0630   -1.5825 H   0  0  0  0  0  0  0  0  0  0  0  0
    2.0279    0.7239   -2.6524 H   0  0  0  0  0  0  0  0  0  0  0  0
    0.3206   -0.1799   -4.1209 H   0  0  0  0  0  0  0  0  0  0  0  0
   -0.1393   -2.5840   -4.2005 H   0  0  0  0  0  0  0  0  0  0  0  0
    1.1693   -4.0996   -2.7407 H   0  0  0  0  0  0  0  0  0  0  0  0
    2.9204   -3.1647   -1.2247 H   0  0  0  0  0  0  0  0  0  0  0  0
    1.5346    1.7830   -0.6024 H   0  0  0  0  0  0  0  0  0  0  0  0
   -0.8248    2.0326   -0.0118 H   0  0  0  0  0  0  0  0  0  0  0  0
   -2.2924    0.1980    2.8146 H   0  0  0  0  0  0  0  0  0  0  0  0
   -2.5655    1.5251    1.5750 H   0  0  0  0  0  0  0  0  0  0  0  0
   -2.0134    0.1858   -0.8434 H   0  0  0  0  0  0  0  0  0  0  0  0
   -3.1747   -1.1377   -0.9642 H   0  0  0  0  0  0  0  0  0  0  0  0
   -3.9273    1.3891   -1.6477 H   0  0  0  0  0  0  0  0  0  0  0  0
   -4.2895    1.3824    0.1692 H   0  0  0  0  0  0  0  0  0  0  0  0
   -5.2355   -0.7170   -1.8593 H   0  0  0  0  0  0  0  0  0  0  0  0
   -8.4103    3.2345   -0.9004 H   0  0  0  0  0  0  0  0  0  0  0  0
  -10.7362    1.6733   -1.1988 H   0  0  0  0  0  0  0  0  0  0  0  0
  -11.5126   -0.6335   -1.4377 H   0  0  0  0  0  0  0  0  0  0  0  0
   -9.9143   -2.5270   -1.4615 H   0  0  0  0  0  0  0  0  0  0  0  0
   -7.4595   -2.0237   -1.2351 H   0  0  0  0  0  0  0  0  0  0  0  0
   -4.9189   -2.0739   -0.0292 H   0  0  0  0  0  0  0  0  0  0  0  0
   -6.3107   -1.1727    0.6760 H   0  0  0  0  0  0  0  0  0  0  0  0
   -4.3920   -1.3923    2.1497 H   0  0  0  0  0  0  0  0  0  0  0  0
   -4.7830    0.3428    1.8478 H   0  0  0  0  0  0  0  0  0  0  0  0
   -0.4881   -1.2781    2.6065 H   0  0  0  0  0  0  0  0  0  0  0  0
    1.8999   -1.5255    2.0072 H   0  0  0  0  0  0  0  0  0  0  0  0
    6.3415    1.0782    2.6520 H   0  0  0  0  0  0  0  0  0  0  0  0
  1  2  1  0
  2  3  1  0
  3  4  2  0
  4  5  1  0
  5  6  1  0
  6  7  2  0
  7  8  1  0
  8  9  2  0
  9 10  1  0
 10 11  2  0
 11 12  1  0
 12 13  2  0
 13 14  1  0
 14 15  2  0
 15 16  1  0
 16 17  2  0
 11 18  1  0
 18 19  1  0
 19 20  2  0
 20 21  1  0
 21 22  2  0
 22 23  1  0
 23 24  1  0
 24 25  1  0
 25 26  1  0
 26 27  1  0
 27 28  1  0
 28 29  1  0
 29 30  2  0
 29 31  1  0
 31 32  1  0
 32 33  2  0
 33 34  1  0
 34 35  2  0
 35 36  1  0
 36 37  2  0
 27 38  1  0
 38 39  1  0
 22 40  1  0
 40 41  2  0
 18 42  2  0
 42 43  1  0
 43 44  2  0
  5 45  2  0
 45  2  1  0
 44  6  1  0
 43  9  1  0
 17 12  1  0
 41 19  1  0
 39 24  1  0
 37 28  1  0
 37 32  1  0
  1 46  1  0
  1 47  1  0
  1 48  1  0
  7 49  1  0
  8 50  1  0
 13 51  1  0
 14 52  1  0
 15 53  1  0
 16 54  1  0
 17 55  1  0
 20 56  1  0
 21 57  1  0
 23 58  1  0
 23 59  1  0
 25 60  1  0
 25 61  1  0
 26 62  1  0
 26 63  1  0
 27 64  1  0
 31 65  1  0
 33 66  1  0
 34 67  1  0
 35 68  1  0
 36 69  1  0
 38 70  1  0
 38 71  1  0
 39 72  1  0
 39 73  1  0
 40 74  1  0
 41 75  1  0
 44 76  1  0
M  END
$$$$
