@<TRIPOS>MOLECULE
*****
 64 67 0 0 0
SMALL
GASTEIGER

@<TRIPOS>ATOM
      1 C           3.8452   -2.7011   -2.9465 C.3     1  UNL1       -0.0307
      2 C           2.5031   -2.8866   -2.2643 C.3     1  UNL1        0.0868
      3 O           2.3166   -1.8677   -1.2710 O.3     1  UNL1       -0.4915
      4 C           1.1363   -1.8822   -0.5429 C.ar    1  UNL1        0.1311
      5 C           0.1666   -2.8391   -0.7574 C.ar    1  UNL1       -0.0190
      6 C          -1.0102   -2.8749   -0.0497 C.ar    1  UNL1       -0.0551
      7 C          -1.2320   -1.9232    0.9078 C.ar    1  UNL1       -0.0462
      8 C          -2.4896   -1.9199    1.6993 C.3     1  UNL1       -0.0248
      9 C          -3.5258   -1.0859    0.9905 C.3     1  UNL1       -0.0370
     10 C          -4.8273   -1.0256    1.7194 C.3     1  UNL1       -0.0492
     11 C          -5.2192    0.4108    2.0539 C.3     1  UNL1       -0.0416
     12 C          -5.3261    1.2053    0.7785 C.3     1  UNL1        0.0375
     13 C          -6.6159    0.9749    0.1563 C.2     1  UNL1        0.2385
     14 O          -7.4390    0.2008    0.7012 O.2     1  UNL1       -0.2734
     15 N          -6.9728    1.6062   -1.0602 N.am    1  UNL1       -0.1973
     16 O          -8.1690    1.3944   -1.6404 O.3     1  UNL1       -0.2952
     17 C          -4.1414    0.9900   -0.1123 C.3     1  UNL1       -0.0416
     18 C          -3.0471    0.3219    0.7319 C.3     1  UNL1       -0.0492
     19 C          -0.2626   -0.9628    1.1254 C.ar    1  UNL1       -0.0444
     20 C           0.9173   -0.9216    0.4205 C.ar    1  UNL1        0.0592
     21 C           1.9624    0.0919    0.6364 C.ar    1  UNL1        0.1451
     22 N           3.0965    0.0713   -0.1067 N.ar    1  UNL1       -0.2254
     23 C           4.0575    0.9904    0.0803 C.ar    1  UNL1        0.1192
     24 C           5.3008    1.2224   -0.5118 C.ar    1  UNL1        0.0889
     25 C           5.8822    0.3979   -1.6081 C.3     1  UNL1       -0.0094
     26 C           5.2007    0.7450   -2.9360 C.3     1  UNL1       -0.0597
     27 N           5.8347    2.3029    0.0901 N.ar    1  UNL1       -0.1736
     28 N           5.0355    2.7724    1.0102 N.ar    1  UNL1       -0.2598
     29 C           5.3308    3.9308    1.8322 C.3     1  UNL1        0.0311
     30 C           3.9423    1.9911    1.0267 C.ar    1  UNL1        0.1513
     31 C           2.7994    2.0094    1.7734 C.ar    1  UNL1        0.2775
     32 O           2.6725    2.9049    2.6356 O.2     1  UNL1       -0.2655
     33 N           1.8522    1.0652    1.5555 N.ar    1  UNL1       -0.3051
     34 H           3.7996   -1.7277   -3.4721 H       1  UNL1        0.0262
     35 H           4.6265   -2.7580   -2.1681 H       1  UNL1        0.0262
     36 H           4.0100   -3.5130   -3.6830 H       1  UNL1        0.0262
     37 H           2.3687   -3.8844   -1.8459 H       1  UNL1        0.0694
     38 H           1.7336   -2.7207   -3.0501 H       1  UNL1        0.0694
     39 H           0.3723   -3.5889   -1.5309 H       1  UNL1        0.0654
     40 H          -1.7141   -3.6605   -0.2834 H       1  UNL1        0.0621
     41 H          -2.2539   -1.5435    2.7094 H       1  UNL1        0.0316
     42 H          -2.8373   -2.9626    1.7627 H       1  UNL1        0.0316
     43 H          -3.6964   -1.5603   -0.0066 H       1  UNL1        0.0304
     44 H          -4.7998   -1.6164    2.6547 H       1  UNL1        0.0268
     45 H          -5.6771   -1.4388    1.1154 H       1  UNL1        0.0268
     46 H          -6.2504    0.3447    2.4756 H       1  UNL1        0.0273
     47 H          -4.5869    0.8634    2.8167 H       1  UNL1        0.0273
     48 H          -5.2939    2.2914    1.0900 H       1  UNL1        0.0395
     49 H          -6.2999    2.2357   -1.5009 H       1  UNL1        0.1822
     50 H          -8.7241    0.8715   -1.0154 H       1  UNL1        0.2414
     51 H          -4.3225    0.3199   -0.9543 H       1  UNL1        0.0273
     52 H          -3.7171    1.9363   -0.4863 H       1  UNL1        0.0273
     53 H          -2.1340    0.3599    0.1012 H       1  UNL1        0.0268
     54 H          -2.8355    0.8906    1.6384 H       1  UNL1        0.0268
     55 H          -0.4452   -0.1958    1.8996 H       1  UNL1        0.0628
     56 H           6.9455    0.6563   -1.7178 H       1  UNL1        0.0327
     57 H           5.8123   -0.6832   -1.4155 H       1  UNL1        0.0327
     58 H           5.4804   -0.0033   -3.7028 H       1  UNL1        0.0233
     59 H           5.5158    1.7665   -3.2422 H       1  UNL1        0.0233
     60 H           4.1028    0.7237   -2.7218 H       1  UNL1        0.0233
     61 H           5.0293    4.8776    1.3527 H       1  UNL1        0.0473
     62 H           4.7886    3.8853    2.8101 H       1  UNL1        0.0473
     63 H           6.4247    3.9880    2.0917 H       1  UNL1        0.0473
     64 H           1.0035    1.1370    2.1610 H       1  UNL1        0.1704
@<TRIPOS>BOND
     1     1     2    1
     2     2     3    1
     3     3     4    1
     4     4     5   ar
     5     5     6   ar
     6     6     7   ar
     7     7     8    1
     8     8     9    1
     9     9    10    1
    10    10    11    1
    11    11    12    1
    12    12    13    1
    13    13    14    2
    14    13    15   am
    15    15    16    1
    16    12    17    1
    17    17    18    1
    18     7    19   ar
    19    19    20   ar
    20    20    21    1
    21    21    22   ar
    22    22    23   ar
    23    23    24   ar
    24    24    25    1
    25    25    26    1
    26    24    27   ar
    27    27    28   ar
    28    28    29    1
    29    28    30   ar
    30    30    31   ar
    31    31    32    2
    32    31    33   ar
    33    20     4   ar
    34    33    21   ar
    35    18     9    1
    36    30    23   ar
    37     1    34    1
    38     1    35    1
    39     1    36    1
    40     2    37    1
    41     2    38    1
    42     5    39    1
    43     6    40    1
    44     8    41    1
    45     8    42    1
    46     9    43    1
    47    10    44    1
    48    10    45    1
    49    11    46    1
    50    11    47    1
    51    12    48    1
    52    15    49    1
    53    16    50    1
    54    17    51    1
    55    17    52    1
    56    18    53    1
    57    18    54    1
    58    19    55    1
    59    25    56    1
    60    25    57    1
    61    26    58    1
    62    26    59    1
    63    26    60    1
    64    29    61    1
    65    29    62    1
    66    29    63    1
    67    33    64    1
