
     RDKit          3D

 78 82  0  0  0  0  0  0  0  0999 V2000
   -4.0276   -5.2156   -2.0383 C   0  0  0  0  0  0  0  0  0  0  0  0
   -3.7759   -4.1733   -1.1269 O   0  0  0  0  0  0  0  0  0  0  0  0
   -3.2733   -2.9587   -1.5620 C   0  0  0  0  0  0  0  0  0  0  0  0
   -3.0610   -2.8497   -2.7966 O   0  0  0  0  0  0  0  0  0  0  0  0
   -3.0321   -1.9373   -0.6292 N   0  0  0  0  0  0  0  0  0  0  0  0
   -2.5257   -0.7121   -1.0649 N   0  0  0  0  0  0  0  0  0  0  0  0
   -2.2549    0.3630   -0.1787 C   0  0  0  0  0  0  0  0  0  0  0  0
   -2.4694    0.1858    1.0359 O   0  0  0  0  0  0  0  0  0  0  0  0
   -1.7384    1.6227   -0.6588 C   0  0  0  0  0  0  0  0  0  0  0  0
   -0.5744    2.1742   -0.1057 C   0  0  0  0  0  0  0  0  0  0  0  0
    0.0988    1.4064    0.9293 C   0  0  0  0  0  0  0  0  0  0  0  0
    0.7097    0.1835    0.4284 N   0  0  0  0  0  0  0  0  0  0  0  0
    1.3589   -0.4682    1.5502 C   0  0  0  0  0  0  0  0  0  0  0  0
    1.9845   -1.7700    1.1165 C   0  0  0  0  0  0  0  0  0  0  0  0
    2.9322   -1.5293    0.0958 N   0  0  0  0  0  0  0  0  0  0  0  0
    4.1957   -2.1521    0.2481 C   0  0  0  0  0  0  0  0  0  0  0  0
    4.0787   -3.6807    0.3323 C   0  0  0  0  0  0  0  0  0  0  0  0
    4.8601   -1.6880    1.5236 C   0  0  0  0  0  0  0  0  0  0  0  0
    5.1462   -1.8874   -0.8950 C   0  0  0  0  0  0  0  0  0  0  0  0
    2.9291   -0.2516   -0.5104 C   0  0  0  0  0  0  0  0  0  0  0  0
    1.5408    0.3235   -0.7034 C   0  0  0  0  0  0  0  0  0  0  0  0
   -0.1170    3.3584   -0.5642 C   0  0  0  0  0  0  0  0  0  0  0  0
    1.1081    4.0381   -0.0468 C   0  0  0  0  0  0  0  0  0  0  0  0
    2.1165    4.3728   -0.9121 C   0  0  0  0  0  0  0  0  0  0  0  0
    3.2155    5.0435   -0.4428 C   0  0  0  0  0  0  0  0  0  0  0  0
    3.3405    5.3977    0.8946 C   0  0  0  0  0  0  0  0  0  0  0  0
    2.3322    5.0643    1.7631 C   0  0  0  0  0  0  0  0  0  0  0  0
    1.2192    4.3835    1.2776 C   0  0  0  0  0  0  0  0  0  0  0  0
   -0.7814    4.0053   -1.5572 N   0  0  0  0  0  0  0  0  0  0  0  0
   -1.8949    3.4996   -2.1005 C   0  0  0  0  0  0  0  0  0  0  0  0
   -2.5692    4.1956   -3.1012 C   0  0  0  0  0  0  0  0  0  0  0  0
   -2.0601    5.3777   -3.5252 F   0  0  0  0  0  0  0  0  0  0  0  0
   -3.7251    3.6965   -3.6474 C   0  0  0  0  0  0  0  0  0  0  0  0
   -4.2539    2.4979   -3.2257 C   0  0  0  0  0  0  0  0  0  0  0  0
   -3.5935    1.7901   -2.2286 C   0  0  0  0  0  0  0  0  0  0  0  0
   -2.4312    2.2820   -1.6767 C   0  0  0  0  0  0  0  0  0  0  0  0
   -3.2968   -2.1418    0.7290 C   0  0  0  0  0  0  0  0  0  0  0  0
   -2.3226   -2.6459    1.5531 C   0  0  0  0  0  0  0  0  0  0  0  0
   -2.6205   -2.8378    2.9073 C   0  0  0  0  0  0  0  0  0  0  0  0
   -3.8708   -2.5270    3.4103 C   0  0  0  0  0  0  0  0  0  0  0  0
   -4.8375   -2.0226    2.5727 C   0  0  0  0  0  0  0  0  0  0  0  0
   -4.5237   -1.8426    1.2487 C   0  0  0  0  0  0  0  0  0  0  0  0
   -3.5079   -5.1089   -3.0003 H   0  0  0  0  0  0  0  0  0  0  0  0
   -5.1259   -5.1675   -2.2770 H   0  0  0  0  0  0  0  0  0  0  0  0
   -3.8774   -6.2211   -1.5922 H   0  0  0  0  0  0  0  0  0  0  0  0
   -2.3068   -0.5861   -2.1037 H   0  0  0  0  0  0  0  0  0  0  0  0
    0.9376    2.0171    1.3876 H   0  0  0  0  0  0  0  0  0  0  0  0
   -0.5515    1.1455    1.7622 H   0  0  0  0  0  0  0  0  0  0  0  0
    2.1782    0.2122    1.8792 H   0  0  0  0  0  0  0  0  0  0  0  0
    0.6912   -0.6096    2.4032 H   0  0  0  0  0  0  0  0  0  0  0  0
    2.4839   -2.1959    2.0112 H   0  0  0  0  0  0  0  0  0  0  0  0
    1.1462   -2.4294    0.7975 H   0  0  0  0  0  0  0  0  0  0  0  0
    3.3000   -3.9831   -0.3985 H   0  0  0  0  0  0  0  0  0  0  0  0
    5.0412   -4.1205    0.0152 H   0  0  0  0  0  0  0  0  0  0  0  0
    3.8509   -3.9977    1.3700 H   0  0  0  0  0  0  0  0  0  0  0  0
    5.3086   -2.5403    2.0709 H   0  0  0  0  0  0  0  0  0  0  0  0
    4.1803   -1.0813    2.1687 H   0  0  0  0  0  0  0  0  0  0  0  0
    5.7020   -1.0102    1.2739 H   0  0  0  0  0  0  0  0  0  0  0  0
    5.4419   -0.8341   -0.9866 H   0  0  0  0  0  0  0  0  0  0  0  0
    4.7473   -2.3066   -1.8579 H   0  0  0  0  0  0  0  0  0  0  0  0
    6.0703   -2.4704   -0.6901 H   0  0  0  0  0  0  0  0  0  0  0  0
    3.5401    0.4743    0.0710 H   0  0  0  0  0  0  0  0  0  0  0  0
    3.3836   -0.2502   -1.5444 H   0  0  0  0  0  0  0  0  0  0  0  0
    1.6583    1.3881   -0.9643 H   0  0  0  0  0  0  0  0  0  0  0  0
    1.0730   -0.1930   -1.5680 H   0  0  0  0  0  0  0  0  0  0  0  0
    2.0014    4.0877   -1.9537 H   0  0  0  0  0  0  0  0  0  0  0  0
    3.9904    5.2903   -1.1565 H   0  0  0  0  0  0  0  0  0  0  0  0
    4.2158    5.9296    1.2603 H   0  0  0  0  0  0  0  0  0  0  0  0
    2.3784    5.3174    2.8214 H   0  0  0  0  0  0  0  0  0  0  0  0
    0.4092    4.1469    1.9969 H   0  0  0  0  0  0  0  0  0  0  0  0
   -4.2808    4.2078   -4.4297 H   0  0  0  0  0  0  0  0  0  0  0  0
   -5.1508    2.0635   -3.6157 H   0  0  0  0  0  0  0  0  0  0  0  0
   -3.9898    0.8699   -1.8492 H   0  0  0  0  0  0  0  0  0  0  0  0
   -1.3260   -2.9093    1.2255 H   0  0  0  0  0  0  0  0  0  0  0  0
   -1.8930   -3.2294    3.5942 H   0  0  0  0  0  0  0  0  0  0  0  0
   -4.1293   -2.6648    4.4517 H   0  0  0  0  0  0  0  0  0  0  0  0
   -5.8450   -1.7630    2.9356 H   0  0  0  0  0  0  0  0  0  0  0  0
   -5.2816   -1.4482    0.5965 H   0  0  0  0  0  0  0  0  0  0  0  0
  1  2  1  0
  2  3  1  0
  3  4  2  0
  3  5  1  0
  5  6  1  0
  6  7  1  0
  7  8  2  0
  7  9  1  0
  9 10  2  0
 10 11  1  0
 11 12  1  0
 12 13  1  0
 13 14  1  0
 14 15  1  0
 15 16  1  0
 16 17  1  0
 16 18  1  0
 16 19  1  0
 15 20  1  0
 20 21  1  0
 10 22  1  0
 22 23  1  0
 23 24  2  0
 24 25  1  0
 25 26  2  0
 26 27  1  0
 27 28  2  0
 22 29  2  0
 29 30  1  0
 30 31  2  0
 31 32  1  0
 31 33  1  0
 33 34  2  0
 34 35  1  0
 35 36  2  0
  5 37  1  0
 37 38  2  0
 38 39  1  0
 39 40  2  0
 40 41  1  0
 41 42  2  0
 36  9  1  0
 42 37  1  0
 21 12  1  0
 28 23  1  0
 36 30  1  0
  1 43  1  0
  1 44  1  0
  1 45  1  0
  6 46  1  0
 11 47  1  0
 11 48  1  0
 13 49  1  0
 13 50  1  0
 14 51  1  0
 14 52  1  0
 17 53  1  0
 17 54  1  0
 17 55  1  0
 18 56  1  0
 18 57  1  0
 18 58  1  0
 19 59  1  0
 19 60  1  0
 19 61  1  0
 20 62  1  0
 20 63  1  0
 21 64  1  0
 21 65  1  0
 24 66  1  0
 25 67  1  0
 26 68  1  0
 27 69  1  0
 28 70  1  0
 33 71  1  0
 34 72  1  0
 35 73  1  0
 38 74  1  0
 39 75  1  0
 40 76  1  0
 41 77  1  0
 42 78  1  0
M  END
$$$$
