@<TRIPOS>MOLECULE
*****
 78 82 0 0 0
SMALL
GASTEIGER

@<TRIPOS>ATOM
      1 C          -4.0276   -5.2156   -2.0383 C.3     1  UNL1        0.0833
      2 O          -3.7759   -4.1733   -1.1269 O.3     1  UNL1       -0.4523
      3 C          -3.2733   -2.9587   -1.5620 C.2     1  UNL1        0.4238
      4 O          -3.0610   -2.8497   -2.7966 O.2     1  UNL1       -0.2242
      5 N          -3.0321   -1.9373   -0.6292 N.am    1  UNL1       -0.1532
      6 N          -2.5257   -0.7121   -1.0649 N.am    1  UNL1       -0.2206
      7 C          -2.2549    0.3630   -0.1787 C.2     1  UNL1        0.2617
      8 O          -2.4694    0.1858    1.0359 O.2     1  UNL1       -0.2686
      9 C          -1.7384    1.6227   -0.6588 C.ar    1  UNL1        0.0538
     10 C          -0.5744    2.1742   -0.1057 C.ar    1  UNL1        0.0053
     11 C           0.0988    1.4064    0.9293 C.3     1  UNL1        0.0269
     12 N           0.7097    0.1835    0.4284 N.3     1  UNL1       -0.2957
     13 C           1.3589   -0.4682    1.5502 C.3     1  UNL1        0.0121
     14 C           1.9845   -1.7700    1.1165 C.3     1  UNL1        0.0122
     15 N           2.9322   -1.5293    0.0958 N.3     1  UNL1       -0.2951
     16 C           4.1957   -2.1521    0.2481 C.3     1  UNL1        0.0136
     17 C           4.0787   -3.6807    0.3323 C.3     1  UNL1       -0.0471
     18 C           4.8601   -1.6880    1.5236 C.3     1  UNL1       -0.0471
     19 C           5.1462   -1.8874   -0.8950 C.3     1  UNL1       -0.0471
     20 C           2.9291   -0.2516   -0.5104 C.3     1  UNL1        0.0122
     21 C           1.5408    0.3235   -0.7034 C.3     1  UNL1        0.0121
     22 C          -0.1170    3.3584   -0.5642 C.ar    1  UNL1        0.0769
     23 C           1.1081    4.0381   -0.0468 C.ar    1  UNL1        0.0007
     24 C           2.1165    4.3728   -0.9121 C.ar    1  UNL1       -0.0526
     25 C           3.2155    5.0435   -0.4428 C.ar    1  UNL1       -0.0611
     26 C           3.3405    5.3977    0.8946 C.ar    1  UNL1       -0.0617
     27 C           2.3322    5.0643    1.7631 C.ar    1  UNL1       -0.0611
     28 C           1.2192    4.3835    1.2776 C.ar    1  UNL1       -0.0526
     29 N          -0.7814    4.0053   -1.5572 N.ar    1  UNL1       -0.2435
     30 C          -1.8949    3.4996   -2.1005 C.ar    1  UNL1        0.1075
     31 C          -2.5692    4.1956   -3.1012 C.ar    1  UNL1        0.1492
     32 F          -2.0601    5.3777   -3.5252 F       1  UNL1       -0.2032
     33 C          -3.7251    3.6965   -3.6474 C.ar    1  UNL1       -0.0243
     34 C          -4.2539    2.4979   -3.2257 C.ar    1  UNL1       -0.0583
     35 C          -3.5935    1.7901   -2.2286 C.ar    1  UNL1       -0.0517
     36 C          -2.4312    2.2820   -1.6767 C.ar    1  UNL1        0.0157
     37 C          -3.2968   -2.1418    0.7290 C.ar    1  UNL1        0.0593
     38 C          -2.3226   -2.6459    1.5531 C.ar    1  UNL1       -0.0385
     39 C          -2.6205   -2.8378    2.9073 C.ar    1  UNL1       -0.0599
     40 C          -3.8708   -2.5270    3.4103 C.ar    1  UNL1       -0.0616
     41 C          -4.8375   -2.0226    2.5727 C.ar    1  UNL1       -0.0599
     42 C          -4.5237   -1.8426    1.2487 C.ar    1  UNL1       -0.0385
     43 H          -3.5079   -5.1089   -3.0003 H       1  UNL1        0.0661
     44 H          -5.1259   -5.1675   -2.2770 H       1  UNL1        0.0661
     45 H          -3.8774   -6.2211   -1.5922 H       1  UNL1        0.0661
     46 H          -2.3068   -0.5861   -2.1037 H       1  UNL1        0.1738
     47 H           0.9376    2.0171    1.3876 H       1  UNL1        0.0477
     48 H          -0.5515    1.1455    1.7622 H       1  UNL1        0.0477
     49 H           2.1782    0.2122    1.8792 H       1  UNL1        0.0439
     50 H           0.6912   -0.6096    2.4032 H       1  UNL1        0.0439
     51 H           2.4839   -2.1959    2.0112 H       1  UNL1        0.0439
     52 H           1.1462   -2.4294    0.7975 H       1  UNL1        0.0439
     53 H           3.3000   -3.9831   -0.3985 H       1  UNL1        0.0247
     54 H           5.0412   -4.1205    0.0152 H       1  UNL1        0.0247
     55 H           3.8509   -3.9977    1.3700 H       1  UNL1        0.0247
     56 H           5.3086   -2.5403    2.0709 H       1  UNL1        0.0247
     57 H           4.1803   -1.0813    2.1687 H       1  UNL1        0.0247
     58 H           5.7020   -1.0102    1.2739 H       1  UNL1        0.0247
     59 H           5.4419   -0.8341   -0.9866 H       1  UNL1        0.0247
     60 H           4.7473   -2.3066   -1.8579 H       1  UNL1        0.0247
     61 H           6.0703   -2.4704   -0.6901 H       1  UNL1        0.0247
     62 H           3.5401    0.4743    0.0710 H       1  UNL1        0.0439
     63 H           3.3836   -0.2502   -1.5444 H       1  UNL1        0.0439
     64 H           1.6583    1.3881   -0.9643 H       1  UNL1        0.0439
     65 H           1.0730   -0.1930   -1.5680 H       1  UNL1        0.0439
     66 H           2.0014    4.0877   -1.9537 H       1  UNL1        0.0624
     67 H           3.9904    5.2903   -1.1565 H       1  UNL1        0.0618
     68 H           4.2158    5.9296    1.2603 H       1  UNL1        0.0618
     69 H           2.3784    5.3174    2.8214 H       1  UNL1        0.0618
     70 H           0.4092    4.1469    1.9969 H       1  UNL1        0.0624
     71 H          -4.2808    4.2078   -4.4297 H       1  UNL1        0.0647
     72 H          -5.1508    2.0635   -3.6157 H       1  UNL1        0.0619
     73 H          -3.9898    0.8699   -1.8492 H       1  UNL1        0.0624
     74 H          -1.3260   -2.9093    1.2255 H       1  UNL1        0.0637
     75 H          -1.8930   -3.2294    3.5942 H       1  UNL1        0.0618
     76 H          -4.1293   -2.6648    4.4517 H       1  UNL1        0.0618
     77 H          -5.8450   -1.7630    2.9356 H       1  UNL1        0.0618
     78 H          -5.2816   -1.4482    0.5965 H       1  UNL1        0.0637
@<TRIPOS>BOND
     1     1     2    1
     2     2     3    1
     3     3     4    2
     4     3     5   am
     5     5     6    1
     6     6     7   am
     7     7     8    2
     8     7     9    1
     9     9    10   ar
    10    10    11    1
    11    11    12    1
    12    12    13    1
    13    13    14    1
    14    14    15    1
    15    15    16    1
    16    16    17    1
    17    16    18    1
    18    16    19    1
    19    15    20    1
    20    20    21    1
    21    10    22   ar
    22    22    23    1
    23    23    24   ar
    24    24    25   ar
    25    25    26   ar
    26    26    27   ar
    27    27    28   ar
    28    22    29   ar
    29    29    30   ar
    30    30    31   ar
    31    31    32    1
    32    31    33   ar
    33    33    34   ar
    34    34    35   ar
    35    35    36   ar
    36     5    37    1
    37    37    38   ar
    38    38    39   ar
    39    39    40   ar
    40    40    41   ar
    41    41    42   ar
    42    36     9   ar
    43    42    37   ar
    44    21    12    1
    45    28    23   ar
    46    36    30   ar
    47     1    43    1
    48     1    44    1
    49     1    45    1
    50     6    46    1
    51    11    47    1
    52    11    48    1
    53    13    49    1
    54    13    50    1
    55    14    51    1
    56    14    52    1
    57    17    53    1
    58    17    54    1
    59    17    55    1
    60    18    56    1
    61    18    57    1
    62    18    58    1
    63    19    59    1
    64    19    60    1
    65    19    61    1
    66    20    62    1
    67    20    63    1
    68    21    64    1
    69    21    65    1
    70    24    66    1
    71    25    67    1
    72    26    68    1
    73    27    69    1
    74    28    70    1
    75    33    71    1
    76    34    72    1
    77    35    73    1
    78    38    74    1
    79    39    75    1
    80    40    76    1
    81    41    77    1
    82    42    78    1
