
     RDKit          3D

 55 60  0  0  0  0  0  0  0  0999 V2000
   -9.2215   -0.7069    0.9264 C   0  0  0  0  0  0  0  0  0  0  0  0
   -7.9529   -1.0209    0.1790 C   0  0  0  0  0  0  0  0  0  0  0  0
   -6.7588   -0.7689    0.2914 N   0  0  0  0  0  0  0  0  0  0  0  0
   -5.7939   -1.1463   -0.4836 C   0  0  0  0  0  0  0  0  0  0  0  0
   -4.3467   -0.8031   -0.2912 C   0  0  0  0  0  0  0  0  0  0  0  0
   -3.4924   -1.2176   -1.0971 O   0  0  0  0  0  0  0  0  0  0  0  0
   -3.9575   -0.0159    0.7960 N   0  0  0  0  0  0  0  0  0  0  0  0
   -2.6497    0.4063    1.1367 C   0  0  0  0  0  0  0  0  0  0  0  0
   -2.4949    1.1956    2.2825 C   0  0  0  0  0  0  0  0  0  0  0  0
   -1.2712    1.6584    2.7017 C   0  0  0  0  0  0  0  0  0  0  0  0
   -0.1281    1.3576    1.9975 C   0  0  0  0  0  0  0  0  0  0  0  0
   -0.2363    0.5889    0.8738 C   0  0  0  0  0  0  0  0  0  0  0  0
   -1.5001    0.1241    0.4593 C   0  0  0  0  0  0  0  0  0  0  0  0
    0.9119    0.1816    0.0336 C   0  0  0  0  0  0  0  0  0  0  0  0
    1.0409   -1.3337    0.1505 C   0  0  0  0  0  0  0  0  0  0  0  0
    0.4363   -2.1005   -0.9595 C   0  0  0  0  0  0  0  0  0  0  0  0
    0.2982   -1.4451   -2.1803 O   0  0  0  0  0  0  0  0  0  0  0  0
    0.4283   -0.0706   -2.3395 C   0  0  0  0  0  0  0  0  0  0  0  0
    0.2377    0.4438   -3.6489 N   0  0  0  0  0  0  0  0  0  0  0  0
    0.7035    0.6294   -1.3286 N   0  0  0  0  0  0  0  0  0  0  0  0
    2.1858    0.7358    0.5423 C   0  0  0  0  0  0  0  0  0  0  0  0
    3.3816    0.4602   -0.1466 C   0  0  0  0  0  0  0  0  0  0  0  0
    4.6047    0.9196    0.2570 C   0  0  0  0  0  0  0  0  0  0  0  0
    5.8443    0.6283   -0.4655 C   0  0  0  0  0  0  0  0  0  0  0  0
    5.8531   -0.1250   -1.5938 C   0  0  0  0  0  0  0  0  0  0  0  0
    7.0291   -0.3738   -2.2380 N   0  0  0  0  0  0  0  0  0  0  0  0
    8.2068    0.0922   -1.8140 C   0  0  0  0  0  0  0  0  0  0  0  0
    8.2405    0.8640   -0.6680 C   0  0  0  0  0  0  0  0  0  0  0  0
    9.4123    1.3564   -0.2031 F   0  0  0  0  0  0  0  0  0  0  0  0
    7.0664    1.1209   -0.0120 C   0  0  0  0  0  0  0  0  0  0  0  0
    4.6255    1.6735    1.3793 N   0  0  0  0  0  0  0  0  0  0  0  0
    3.5061    1.9589    2.0646 C   0  0  0  0  0  0  0  0  0  0  0  0
    3.5305    2.7146    3.1888 F   0  0  0  0  0  0  0  0  0  0  0  0
    2.2429    1.4970    1.6661 C   0  0  0  0  0  0  0  0  0  0  0  0
    1.1120    1.8252    2.4146 O   0  0  0  0  0  0  0  0  0  0  0  0
   -6.1755   -1.9293   -1.5662 C   0  0  0  0  0  0  0  0  0  0  0  0
   -7.9819   -2.0195   -1.3025 S   0  0  0  0  0  0  0  0  0  0  0  0
   -9.7226    0.0848    0.3177 H   0  0  0  0  0  0  0  0  0  0  0  0
   -9.8157   -1.6129    1.0360 H   0  0  0  0  0  0  0  0  0  0  0  0
   -8.9151   -0.2836    1.8819 H   0  0  0  0  0  0  0  0  0  0  0  0
   -4.7576    0.2979    1.4400 H   0  0  0  0  0  0  0  0  0  0  0  0
   -3.3880    1.4513    2.8638 H   0  0  0  0  0  0  0  0  0  0  0  0
   -1.2311    2.2655    3.6004 H   0  0  0  0  0  0  0  0  0  0  0  0
   -1.5718   -0.4746   -0.4317 H   0  0  0  0  0  0  0  0  0  0  0  0
    0.5133   -1.6438    1.1038 H   0  0  0  0  0  0  0  0  0  0  0  0
    2.1152   -1.6249    0.2653 H   0  0  0  0  0  0  0  0  0  0  0  0
   -0.5357   -2.5867   -0.6346 H   0  0  0  0  0  0  0  0  0  0  0  0
    1.1227   -2.9833   -1.1693 H   0  0  0  0  0  0  0  0  0  0  0  0
    0.7893    0.0213   -4.4227 H   0  0  0  0  0  0  0  0  0  0  0  0
   -0.4174    1.2155   -3.8850 H   0  0  0  0  0  0  0  0  0  0  0  0
    3.2819   -0.1446   -1.0277 H   0  0  0  0  0  0  0  0  0  0  0  0
    4.9817   -0.5532   -2.0322 H   0  0  0  0  0  0  0  0  0  0  0  0
    9.1361   -0.1078   -2.3282 H   0  0  0  0  0  0  0  0  0  0  0  0
    7.1069    1.7249    0.8815 H   0  0  0  0  0  0  0  0  0  0  0  0
   -5.6291   -2.4009   -2.3894 H   0  0  0  0  0  0  0  0  0  0  0  0
  1  2  1  0
  2  3  2  0
  3  4  1  0
  4  5  1  0
  5  6  2  0
  5  7  1  0
  7  8  1  0
  8  9  2  0
  9 10  1  0
 10 11  2  0
 11 12  1  0
 12 13  2  0
 12 14  1  0
 14 15  1  0
 15 16  1  0
 16 17  1  0
 17 18  1  0
 18 19  1  0
 18 20  2  0
 14 21  1  0
 21 22  2  0
 22 23  1  0
 23 24  1  0
 24 25  2  0
 25 26  1  0
 26 27  2  0
 27 28  1  0
 28 29  1  0
 28 30  2  0
 23 31  2  0
 31 32  1  0
 32 33  1  0
 32 34  2  0
 34 35  1  0
  4 36  2  0
 36 37  1  0
 37  2  1  0
 13  8  1  0
 20 14  1  0
 34 21  1  0
 35 11  1  0
 30 24  1  0
  1 38  1  0
  1 39  1  0
  1 40  1  0
  7 41  1  0
  9 42  1  0
 10 43  1  0
 13 44  1  0
 15 45  1  0
 15 46  1  0
 16 47  1  0
 16 48  1  0
 19 49  1  0
 19 50  1  0
 22 51  1  0
 25 52  1  0
 27 53  1  0
 30 54  1  0
 36 55  1  0
M  END
$$$$
