@<TRIPOS>MOLECULE
*****
 55 60 0 0 0
SMALL
GASTEIGER

@<TRIPOS>ATOM
      1 C          -9.2215   -0.7069    0.9264 C.3     1  UNL1       -0.0159
      2 C          -7.9529   -1.0209    0.1790 C.ar    1  UNL1        0.0761
      3 N          -6.7588   -0.7689    0.2914 N.ar    1  UNL1       -0.2397
      4 C          -5.7939   -1.1463   -0.4836 C.ar    1  UNL1        0.1331
      5 C          -4.3467   -0.8031   -0.2912 C.2     1  UNL1        0.2671
      6 O          -3.4924   -1.2176   -1.0971 O.2     1  UNL1       -0.2682
      7 N          -3.9575   -0.0159    0.7960 N.am    1  UNL1       -0.2802
      8 C          -2.6497    0.4063    1.1367 C.ar    1  UNL1        0.0343
      9 C          -2.4949    1.1956    2.2825 C.ar    1  UNL1       -0.0370
     10 C          -1.2712    1.6584    2.7017 C.ar    1  UNL1       -0.0172
     11 C          -0.1281    1.3576    1.9975 C.ar    1  UNL1        0.1346
     12 C          -0.2363    0.5889    0.8738 C.ar    1  UNL1        0.0287
     13 C          -1.5001    0.1241    0.4593 C.ar    1  UNL1       -0.0312
     14 C           0.9119    0.1816    0.0336 C.3     1  UNL1        0.1265
     15 C           1.0409   -1.3337    0.1505 C.3     1  UNL1        0.0155
     16 C           0.4363   -2.1005   -0.9595 C.3     1  UNL1        0.0953
     17 O           0.2982   -1.4451   -2.1803 O.2     1  UNL1       -0.4658
     18 C           0.4283   -0.0706   -2.3395 C.2     1  UNL1        0.2763
     19 N           0.2377    0.4438   -3.6489 N.pl3   1  UNL1       -0.3134
     20 N           0.7035    0.6294   -1.3286 N.2     1  UNL1       -0.2205
     21 C           2.1858    0.7358    0.5423 C.ar    1  UNL1        0.0334
     22 C           3.3816    0.4602   -0.1466 C.ar    1  UNL1       -0.0261
     23 C           4.6047    0.9196    0.2570 C.ar    1  UNL1        0.0762
     24 C           5.8443    0.6283   -0.4655 C.ar    1  UNL1        0.0213
     25 C           5.8531   -0.1250   -1.5938 C.ar    1  UNL1        0.0369
     26 N           7.0291   -0.3738   -2.2380 N.ar    1  UNL1       -0.2598
     27 C           8.2068    0.0922   -1.8140 C.ar    1  UNL1        0.0628
     28 C           8.2405    0.8640   -0.6680 C.ar    1  UNL1        0.1420
     29 F           9.4123    1.3564   -0.2031 F       1  UNL1       -0.2039
     30 C           7.0664    1.1209   -0.0120 C.ar    1  UNL1       -0.0143
     31 N           4.6255    1.6735    1.3793 N.ar    1  UNL1       -0.2160
     32 C           3.5061    1.9589    2.0646 C.ar    1  UNL1        0.2567
     33 F           3.5305    2.7146    3.1888 F       1  UNL1       -0.1799
     34 C           2.2429    1.4970    1.6661 C.ar    1  UNL1        0.1883
     35 O           1.1120    1.8252    2.4146 O.3     1  UNL1       -0.4508
     36 C          -6.1755   -1.9293   -1.5662 C.ar    1  UNL1        0.0078
     37 S          -7.9819   -2.0195   -1.3025 S.2     1  UNL1       -0.0800
     38 H          -9.7226    0.0848    0.3177 H       1  UNL1        0.0298
     39 H          -9.8157   -1.6129    1.0360 H       1  UNL1        0.0298
     40 H          -8.9151   -0.2836    1.8819 H       1  UNL1        0.0298
     41 H          -4.7576    0.2979    1.4400 H       1  UNL1        0.1552
     42 H          -3.3880    1.4513    2.8638 H       1  UNL1        0.0637
     43 H          -1.2311    2.2655    3.6004 H       1  UNL1        0.0655
     44 H          -1.5718   -0.4746   -0.4317 H       1  UNL1        0.0641
     45 H           0.5133   -1.6438    1.1038 H       1  UNL1        0.0328
     46 H           2.1152   -1.6249    0.2653 H       1  UNL1        0.0328
     47 H          -0.5357   -2.5867   -0.6346 H       1  UNL1        0.0698
     48 H           1.1227   -2.9833   -1.1693 H       1  UNL1        0.0698
     49 H           0.7893    0.0213   -4.4227 H       1  UNL1        0.1466
     50 H          -0.4174    1.2155   -3.8850 H       1  UNL1        0.1466
     51 H           3.2819   -0.1446   -1.0277 H       1  UNL1        0.0644
     52 H           4.9817   -0.5532   -2.0322 H       1  UNL1        0.0836
     53 H           9.1361   -0.1078   -2.3282 H       1  UNL1        0.0859
     54 H           7.1069    1.7249    0.8815 H       1  UNL1        0.0654
     55 H          -5.6291   -2.4009   -2.3894 H       1  UNL1        0.0717
@<TRIPOS>BOND
     1     1     2    1
     2     2     3   ar
     3     3     4   ar
     4     4     5    1
     5     5     6    2
     6     5     7   am
     7     7     8    1
     8     8     9   ar
     9     9    10   ar
    10    10    11   ar
    11    11    12   ar
    12    12    13   ar
    13    12    14    1
    14    14    15    1
    15    15    16    1
    16    16    17    1
    17    17    18    1
    18    18    19    1
    19    18    20    2
    20    14    21    1
    21    21    22   ar
    22    22    23   ar
    23    23    24    1
    24    24    25   ar
    25    25    26   ar
    26    26    27   ar
    27    27    28   ar
    28    28    29    1
    29    28    30   ar
    30    23    31   ar
    31    31    32   ar
    32    32    33    1
    33    32    34   ar
    34    34    35    1
    35     4    36   ar
    36    36    37   ar
    37    37     2   ar
    38    13     8   ar
    39    20    14    1
    40    34    21   ar
    41    35    11    1
    42    30    24   ar
    43     1    38    1
    44     1    39    1
    45     1    40    1
    46     7    41    1
    47     9    42    1
    48    10    43    1
    49    13    44    1
    50    15    45    1
    51    15    46    1
    52    16    47    1
    53    16    48    1
    54    19    49    1
    55    19    50    1
    56    22    51    1
    57    25    52    1
    58    27    53    1
    59    30    54    1
    60    36    55    1
