@<TRIPOS>MOLECULE
*****
 53 55 0 0 0
SMALL
GASTEIGER

@<TRIPOS>ATOM
      1 O           8.8543   -1.0866    0.9497 O.2     1  UNL1       -0.2687
      2 C           8.0811   -0.5022    0.1518 C.2     1  UNL1        0.2593
      3 C           6.6771   -0.3683    0.4826 C.2     1  UNL1        0.0027
      4 C           5.7869    0.2445   -0.2690 C.2     1  UNL1       -0.0496
      5 C           4.3755    0.3869    0.0375 C.ar    1  UNL1       -0.0249
      6 C           3.6084    1.1194   -0.8517 C.ar    1  UNL1       -0.0543
      7 C           2.2544    1.2719   -0.6580 C.ar    1  UNL1       -0.0568
      8 C           1.6237    0.6968    0.4280 C.ar    1  UNL1       -0.0333
      9 C           0.1992    0.9252    0.6335 C.3     1  UNL1        0.0241
     10 N          -0.7304    0.2788   -0.2347 N.3     1  UNL1       -0.2957
     11 C          -0.6914   -1.1466   -0.2672 C.3     1  UNL1        0.0224
     12 C           0.4338   -1.7904   -1.0031 C.3     1  UNL1        0.0569
     13 O           0.3360   -3.2081   -0.9388 O.3     1  UNL1       -0.3937
     14 C          -2.0559    0.7266    0.1527 C.3     1  UNL1        0.0033
     15 C          -3.0157    0.5604   -0.9918 C.3     1  UNL1       -0.0129
     16 C          -4.4040    0.9869   -0.6124 C.ar    1  UNL1       -0.0212
     17 C          -5.0023    2.2249   -0.8802 C.ar    1  UNL1        0.0059
     18 N          -6.2465    2.2298   -0.3584 N.ar    1  UNL1       -0.3604
     19 C          -6.4510    1.0405    0.2266 C.ar    1  UNL1        0.0467
     20 C          -7.5567    0.5319    0.8927 C.ar    1  UNL1       -0.0378
     21 C          -7.5747   -0.7431    1.4205 C.ar    1  UNL1       -0.0598
     22 C          -6.4375   -1.5081    1.2627 C.ar    1  UNL1       -0.0611
     23 C          -5.2948   -1.0446    0.6006 C.ar    1  UNL1       -0.0523
     24 C          -5.3341    0.2418    0.0910 C.ar    1  UNL1        0.0029
     25 C           2.3955   -0.0290    1.3069 C.ar    1  UNL1       -0.0568
     26 C           3.7713   -0.1852    1.1157 C.ar    1  UNL1       -0.0543
     27 N           8.6414   -0.0055   -1.0454 N.am    1  UNL1       -0.1940
     28 O           9.9648   -0.1470   -1.3351 O.3     1  UNL1       -0.2949
     29 H           6.2812   -0.7870    1.4306 H       1  UNL1        0.0670
     30 H           6.1960    0.6729   -1.2091 H       1  UNL1        0.0625
     31 H           4.0637    1.5825   -1.7270 H       1  UNL1        0.0624
     32 H           1.6617    1.8551   -1.3705 H       1  UNL1        0.0621
     33 H          -0.1047    0.6620    1.7056 H       1  UNL1        0.0476
     34 H          -0.0629    2.0307    0.5960 H       1  UNL1        0.0476
     35 H          -1.6301   -1.5628   -0.7074 H       1  UNL1        0.0449
     36 H          -0.7017   -1.5795    0.7748 H       1  UNL1        0.0449
     37 H           0.3019   -1.6211   -2.1390 H       1  UNL1        0.0570
     38 H           1.4378   -1.4639   -0.8046 H       1  UNL1        0.0570
     39 H           0.7834   -3.4826   -0.0770 H       1  UNL1        0.2095
     40 H          -2.0729    1.7449    0.5699 H       1  UNL1        0.0430
     41 H          -2.3523    0.0247    1.0053 H       1  UNL1        0.0430
     42 H          -3.0895   -0.4795   -1.3015 H       1  UNL1        0.0326
     43 H          -2.6464    1.2280   -1.8115 H       1  UNL1        0.0326
     44 H          -4.5452    3.0474   -1.4141 H       1  UNL1        0.0810
     45 H          -6.9258    3.0222   -0.4010 H       1  UNL1        0.1653
     46 H          -8.4240    1.1877    0.9822 H       1  UNL1        0.0638
     47 H          -8.4518   -1.0951    1.9215 H       1  UNL1        0.0618
     48 H          -6.3983   -2.5271    1.6516 H       1  UNL1        0.0618
     49 H          -4.4491   -1.6858    0.5092 H       1  UNL1        0.0624
     50 H           1.9787   -0.4984    2.1839 H       1  UNL1        0.0621
     51 H           4.3333   -0.7652    1.8307 H       1  UNL1        0.0624
     52 H           8.0788    0.4776   -1.7402 H       1  UNL1        0.1825
     53 H          10.5305    0.4269   -0.7651 H       1  UNL1        0.2414
@<TRIPOS>BOND
     1     1     2    2
     2     2     3    1
     3     3     4    2
     4     4     5    1
     5     5     6   ar
     6     6     7   ar
     7     7     8   ar
     8     8     9    1
     9     9    10    1
    10    10    11    1
    11    11    12    1
    12    12    13    1
    13    10    14    1
    14    14    15    1
    15    15    16    1
    16    16    17   ar
    17    17    18   ar
    18    18    19   ar
    19    19    20   ar
    20    20    21   ar
    21    21    22   ar
    22    22    23   ar
    23    23    24   ar
    24     8    25   ar
    25    25    26   ar
    26     2    27   am
    27    27    28    1
    28    26     5   ar
    29    24    16   ar
    30    24    19   ar
    31     3    29    1
    32     4    30    1
    33     6    31    1
    34     7    32    1
    35     9    33    1
    36     9    34    1
    37    11    35    1
    38    11    36    1
    39    12    37    1
    40    12    38    1
    41    13    39    1
    42    14    40    1
    43    14    41    1
    44    15    42    1
    45    15    43    1
    46    17    44    1
    47    18    45    1
    48    20    46    1
    49    21    47    1
    50    22    48    1
    51    23    49    1
    52    25    50    1
    53    26    51    1
    54    27    52    1
    55    28    53    1
