
     RDKit          3D

 42 44  0  0  0  0  0  0  0  0999 V2000
    4.4193    0.7839    0.1049 C   0  0  0  0  0  0  0  0  0  0  0  0
    4.0714   -0.6116    0.2441 N   0  0  0  0  0  0  0  0  0  0  0  0
    4.8961   -1.3663   -0.6774 C   0  0  0  0  0  0  0  0  0  0  0  0
    2.6981   -0.8169   -0.0526 C   0  0  0  0  0  0  0  0  0  0  0  0
    1.7377   -0.2256    0.9488 C   0  0  0  0  0  0  0  0  0  0  0  0
    0.3097   -0.4836    0.5803 C   0  0  0  0  0  0  0  0  0  0  0  0
   -0.9171   -0.1143    0.2442 C   0  0  0  0  0  0  0  0  0  0  0  0
   -1.9487   -1.1646    0.0071 C   0  0  0  0  0  0  0  0  0  0  0  0
   -1.3369   -2.2439   -0.6020 C   0  0  0  0  0  0  0  0  0  0  0  0
   -2.1408   -3.3132   -0.8727 C   0  0  0  0  0  0  0  0  0  0  0  0
   -3.4957   -3.2536   -0.5285 C   0  0  0  0  0  0  0  0  0  0  0  0
   -4.0593   -2.1300    0.0868 C   0  0  0  0  0  0  0  0  0  0  0  0
   -3.2798   -1.0310    0.3766 C   0  0  0  0  0  0  0  0  0  0  0  0
   -3.9930    0.0738    1.0129 C   0  0  0  0  0  0  0  0  0  0  0  0
   -3.6081    1.3608    1.0903 C   0  0  0  0  0  0  0  0  0  0  0  0
   -2.3745    1.9511    0.5480 C   0  0  0  0  0  0  0  0  0  0  0  0
   -2.4648    3.3145    0.4217 C   0  0  0  0  0  0  0  0  0  0  0  0
   -1.3705    4.0032   -0.0887 C   0  0  0  0  0  0  0  0  0  0  0  0
   -0.2028    3.3654   -0.4712 C   0  0  0  0  0  0  0  0  0  0  0  0
   -0.0721    1.9989   -0.3609 C   0  0  0  0  0  0  0  0  0  0  0  0
   -1.1762    1.3467    0.1503 C   0  0  0  0  0  0  0  0  0  0  0  0
    3.5835    1.4840    0.2282 H   0  0  0  0  0  0  0  0  0  0  0  0
    4.8250    0.9330   -0.9356 H   0  0  0  0  0  0  0  0  0  0  0  0
    5.2769    1.0577    0.7596 H   0  0  0  0  0  0  0  0  0  0  0  0
    5.9806   -1.3025   -0.4110 H   0  0  0  0  0  0  0  0  0  0  0  0
    4.7801   -0.8722   -1.6813 H   0  0  0  0  0  0  0  0  0  0  0  0
    4.5792   -2.4145   -0.8049 H   0  0  0  0  0  0  0  0  0  0  0  0
    2.4681   -1.9100   -0.0992 H   0  0  0  0  0  0  0  0  0  0  0  0
    2.4227   -0.3368   -1.0406 H   0  0  0  0  0  0  0  0  0  0  0  0
    2.0124   -0.7142    1.9457 H   0  0  0  0  0  0  0  0  0  0  0  0
    1.9366    0.8306    1.2071 H   0  0  0  0  0  0  0  0  0  0  0  0
    0.4161   -1.5577    0.6835 H   0  0  0  0  0  0  0  0  0  0  0  0
   -0.2878   -2.2335   -0.8619 H   0  0  0  0  0  0  0  0  0  0  0  0
   -1.7586   -4.1877   -1.3383 H   0  0  0  0  0  0  0  0  0  0  0  0
   -4.1991   -4.0782   -0.7182 H   0  0  0  0  0  0  0  0  0  0  0  0
   -5.1065   -2.0886    0.3505 H   0  0  0  0  0  0  0  0  0  0  0  0
   -4.9287   -0.2121    1.4595 H   0  0  0  0  0  0  0  0  0  0  0  0
   -4.2756    2.0286    1.6034 H   0  0  0  0  0  0  0  0  0  0  0  0
   -3.3843    3.7640    0.7287 H   0  0  0  0  0  0  0  0  0  0  0  0
   -1.4608    5.0803   -0.1807 H   0  0  0  0  0  0  0  0  0  0  0  0
    0.6555    3.9000   -0.8706 H   0  0  0  0  0  0  0  0  0  0  0  0
    0.7726    1.3863   -0.6381 H   0  0  0  0  0  0  0  0  0  0  0  0
  1  2  1  0
  2  3  1  0
  2  4  1  0
  4  5  1  0
  5  6  1  0
  6  7  2  3
  7  8  1  0
  8  9  2  0
  9 10  1  0
 10 11  2  0
 11 12  1  0
 12 13  2  0
 13 14  1  0
 14 15  2  0
 15 16  1  0
 16 17  2  0
 17 18  1  0
 18 19  2  0
 19 20  1  0
 20 21  2  0
 21  7  1  0
 13  8  1  0
 21 16  1  0
  1 22  1  0
  1 23  1  0
  1 24  1  0
  3 25  1  0
  3 26  1  0
  3 27  1  0
  4 28  1  0
  4 29  1  0
  5 30  1  0
  5 31  1  0
  6 32  1  0
  9 33  1  0
 10 34  1  0
 11 35  1  0
 12 36  1  0
 14 37  1  0
 15 38  1  0
 17 39  1  0
 18 40  1  0
 19 41  1  0
 20 42  1  0
M  END
$$$$
