@<TRIPOS>MOLECULE
*****
 42 44 0 0 0
SMALL
GASTEIGER

@<TRIPOS>ATOM
      1 C           4.4193    0.7839    0.1049 C.3     1  UNL1       -0.0130
      2 N           4.0714   -0.6116    0.2441 N.3     1  UNL1       -0.3081
      3 C           4.8961   -1.3663   -0.6774 C.3     1  UNL1       -0.0130
      4 C           2.6981   -0.8169   -0.0526 C.3     1  UNL1        0.0018
      5 C           1.7377   -0.2256    0.9488 C.3     1  UNL1       -0.0211
      6 C           0.3097   -0.4836    0.5803 C.2     1  UNL1       -0.0745
      7 C          -0.9171   -0.1143    0.2442 C.2     1  UNL1       -0.0135
      8 C          -1.9487   -1.1646    0.0071 C.ar    1  UNL1       -0.0105
      9 C          -1.3369   -2.2439   -0.6020 C.ar    1  UNL1       -0.0535
     10 C          -2.1408   -3.3132   -0.8727 C.ar    1  UNL1       -0.0611
     11 C          -3.4957   -3.2536   -0.5285 C.ar    1  UNL1       -0.0612
     12 C          -4.0593   -2.1300    0.0868 C.ar    1  UNL1       -0.0540
     13 C          -3.2798   -1.0310    0.3766 C.ar    1  UNL1       -0.0173
     14 C          -3.9930    0.0738    1.0129 C.2     1  UNL1       -0.0534
     15 C          -3.6081    1.3608    1.0903 C.2     1  UNL1       -0.0534
     16 C          -2.3745    1.9511    0.5480 C.ar    1  UNL1       -0.0173
     17 C          -2.4648    3.3145    0.4217 C.ar    1  UNL1       -0.0540
     18 C          -1.3705    4.0032   -0.0887 C.ar    1  UNL1       -0.0612
     19 C          -0.2028    3.3654   -0.4712 C.ar    1  UNL1       -0.0611
     20 C          -0.0721    1.9989   -0.3609 C.ar    1  UNL1       -0.0535
     21 C          -1.1762    1.3467    0.1503 C.ar    1  UNL1       -0.0105
     22 H           3.5835    1.4840    0.2282 H       1  UNL1        0.0391
     23 H           4.8250    0.9330   -0.9356 H       1  UNL1        0.0391
     24 H           5.2769    1.0577    0.7596 H       1  UNL1        0.0391
     25 H           5.9806   -1.3025   -0.4110 H       1  UNL1        0.0391
     26 H           4.7801   -0.8722   -1.6813 H       1  UNL1        0.0391
     27 H           4.5792   -2.4145   -0.8049 H       1  UNL1        0.0391
     28 H           2.4681   -1.9100   -0.0992 H       1  UNL1        0.0429
     29 H           2.4227   -0.3368   -1.0406 H       1  UNL1        0.0429
     30 H           2.0124   -0.7142    1.9457 H       1  UNL1        0.0320
     31 H           1.9366    0.8306    1.2071 H       1  UNL1        0.0320
     32 H           0.4161   -1.5577    0.6835 H       1  UNL1        0.0579
     33 H          -0.2878   -2.2335   -0.8619 H       1  UNL1        0.0624
     34 H          -1.7586   -4.1877   -1.3383 H       1  UNL1        0.0618
     35 H          -4.1991   -4.0782   -0.7182 H       1  UNL1        0.0618
     36 H          -5.1065   -2.0886    0.3505 H       1  UNL1        0.0624
     37 H          -4.9287   -0.2121    1.4595 H       1  UNL1        0.0624
     38 H          -4.2756    2.0286    1.6034 H       1  UNL1        0.0624
     39 H          -3.3843    3.7640    0.7287 H       1  UNL1        0.0624
     40 H          -1.4608    5.0803   -0.1807 H       1  UNL1        0.0618
     41 H           0.6555    3.9000   -0.8706 H       1  UNL1        0.0618
     42 H           0.7726    1.3863   -0.6381 H       1  UNL1        0.0624
@<TRIPOS>BOND
     1     1     2    1
     2     2     3    1
     3     2     4    1
     4     4     5    1
     5     5     6    1
     6     6     7    2
     7     7     8    1
     8     8     9   ar
     9     9    10   ar
    10    10    11   ar
    11    11    12   ar
    12    12    13   ar
    13    13    14    1
    14    14    15    2
    15    15    16    1
    16    16    17   ar
    17    17    18   ar
    18    18    19   ar
    19    19    20   ar
    20    20    21   ar
    21    21     7    1
    22    13     8   ar
    23    21    16   ar
    24     1    22    1
    25     1    23    1
    26     1    24    1
    27     3    25    1
    28     3    26    1
    29     3    27    1
    30     4    28    1
    31     4    29    1
    32     5    30    1
    33     5    31    1
    34     6    32    1
    35     9    33    1
    36    10    34    1
    37    11    35    1
    38    12    36    1
    39    14    37    1
    40    15    38    1
    41    17    39    1
    42    18    40    1
    43    19    41    1
    44    20    42    1
