@<TRIPOS>MOLECULE
*****
 54 57 0 0 0
SMALL
GASTEIGER

@<TRIPOS>ATOM
      1 C           4.7869   -1.7134   -1.1889 C.3     1  UNL1       -0.0374
      2 C           5.0234   -0.4157   -0.5130 C.ar    1  UNL1       -0.0165
      3 C           6.2748    0.2185   -0.7205 C.ar    1  UNL1       -0.0131
      4 C           6.5629    1.3964   -0.0745 C.ar    1  UNL1        0.1452
      5 O           7.7830    1.9886   -0.2945 O.3     1  UNL1       -0.4327
      6 C           8.2788    3.1658    0.2458 C.3     1  UNL1        0.3893
      7 F           8.6011    4.0786   -0.7638 F       1  UNL1       -0.1663
      8 F           9.4325    2.8418    0.9574 F       1  UNL1       -0.1663
      9 C           5.6206    1.9340    0.7646 C.ar    1  UNL1        0.0703
     10 N           4.4670    1.3015    0.9225 N.ar    1  UNL1       -0.2465
     11 C           4.0974    0.1296    0.3201 C.ar    1  UNL1        0.1288
     12 C           2.7714   -0.3895    0.5559 C.2     1  UNL1        0.2668
     13 O           2.2465   -0.0160    1.6812 O.2     1  UNL1       -0.2682
     14 N           1.9820   -1.2245   -0.2535 N.am    1  UNL1       -0.2802
     15 C           0.6690   -1.6473    0.1696 C.ar    1  UNL1        0.0343
     16 C           0.5320   -2.8128    0.8965 C.ar    1  UNL1       -0.0377
     17 C          -0.7263   -3.2323    1.3106 C.ar    1  UNL1       -0.0243
     18 C          -1.8238   -2.4546    0.9755 C.ar    1  UNL1        0.1312
     19 F          -3.0471   -2.8688    1.3820 F       1  UNL1       -0.2050
     20 C          -1.7013   -1.2882    0.2498 C.ar    1  UNL1        0.0450
     21 C          -2.9385   -0.5371   -0.0514 C.3     1  UNL1        0.2272
     22 C          -3.8498   -1.4715   -0.8469 C.3     1  UNL1       -0.0082
     23 N          -3.5383   -0.1775    1.2109 N.2     1  UNL1       -0.0696
     24 C          -4.6336    0.4715    1.3161 C.2     1  UNL1        0.3075
     25 N          -5.1308    0.7704    2.6177 N.pl3   1  UNL1       -0.2488
     26 C          -5.3264    0.8788    0.0710 C.3     1  UNL1        0.1919
     27 C          -6.5714    1.6701    0.2744 C.3     1  UNL1       -0.0138
     28 C          -6.6218    0.3332   -0.3303 C.3     1  UNL1       -0.0138
     29 S          -4.1913    1.5654   -1.1131 S.O2    1  UNL1        0.0220
     30 O          -4.7907    1.4198   -2.4659 O.2     1  UNL1       -0.1703
     31 O          -3.9179    3.0062   -0.8273 O.2     1  UNL1       -0.1703
     32 C          -2.6716    0.6618   -0.9362 C.3     1  UNL1        0.2674
     33 F          -2.2997    0.2469   -2.1992 F       1  UNL1       -0.2156
     34 C          -0.4477   -0.9007   -0.1442 C.ar    1  UNL1       -0.0300
     35 H           4.2902   -2.4288   -0.5365 H       1  UNL1        0.0278
     36 H           5.8296   -2.1792   -1.3628 H       1  UNL1        0.0278
     37 H           4.3453   -1.6403   -2.1883 H       1  UNL1        0.0278
     38 H           6.9845   -0.2478   -1.3937 H       1  UNL1        0.0658
     39 H           7.6231    3.7048    0.9403 H       1  UNL1        0.1520
     40 H           5.8249    2.8803    1.2980 H       1  UNL1        0.0867
     41 H           2.3329   -1.5180   -1.1752 H       1  UNL1        0.1552
     42 H           1.4198   -3.3872    1.1343 H       1  UNL1        0.0637
     43 H          -0.8471   -4.1399    1.8785 H       1  UNL1        0.0647
     44 H          -4.5620   -1.9357   -0.1573 H       1  UNL1        0.0280
     45 H          -3.2316   -2.2408   -1.3430 H       1  UNL1        0.0280
     46 H          -4.3653   -0.9116   -1.6596 H       1  UNL1        0.0280
     47 H          -5.4691    0.0037    3.2395 H       1  UNL1        0.2881
     48 H          -5.1799    1.7395    3.0017 H       1  UNL1        0.2881
     49 H          -6.9986    1.8233    1.2842 H       1  UNL1        0.0293
     50 H          -6.7986    2.5426   -0.3993 H       1  UNL1        0.0293
     51 H          -7.0292   -0.4896    0.3143 H       1  UNL1        0.0293
     52 H          -6.8370    0.1694   -1.4014 H       1  UNL1        0.0293
     53 H          -1.8918    1.3219   -0.5491 H       1  UNL1        0.0951
     54 H          -0.3412    0.0040   -0.7085 H       1  UNL1        0.0641
@<TRIPOS>BOND
     1     1     2    1
     2     2     3   ar
     3     3     4   ar
     4     4     5    1
     5     5     6    1
     6     6     7    1
     7     6     8    1
     8     4     9   ar
     9     9    10   ar
    10    10    11   ar
    11    11    12    1
    12    12    13    2
    13    12    14   am
    14    14    15    1
    15    15    16   ar
    16    16    17   ar
    17    17    18   ar
    18    18    19    1
    19    18    20   ar
    20    20    21    1
    21    21    22    1
    22    21    23    1
    23    23    24    2
    24    24    25    1
    25    24    26    1
    26    26    27    1
    27    27    28    1
    28    26    29    1
    29    29    30    2
    30    29    31    2
    31    29    32    1
    32    32    33    1
    33    20    34   ar
    34    11     2   ar
    35    34    15   ar
    36    32    21    1
    37    28    26    1
    38     1    35    1
    39     1    36    1
    40     1    37    1
    41     3    38    1
    42     6    39    1
    43     9    40    1
    44    14    41    1
    45    16    42    1
    46    17    43    1
    47    22    44    1
    48    22    45    1
    49    22    46    1
    50    25    47    1
    51    25    48    1
    52    27    49    1
    53    27    50    1
    54    28    51    1
    55    28    52    1
    56    32    53    1
    57    34    54    1
