
     RDKit          3D

 54 57  0  0  0  0  0  0  0  0999 V2000
    4.7869   -1.7134   -1.1889 C   0  0  0  0  0  0  0  0  0  0  0  0
    5.0234   -0.4157   -0.5130 C   0  0  0  0  0  0  0  0  0  0  0  0
    6.2748    0.2185   -0.7205 C   0  0  0  0  0  0  0  0  0  0  0  0
    6.5629    1.3964   -0.0745 C   0  0  0  0  0  0  0  0  0  0  0  0
    7.7830    1.9886   -0.2945 O   0  0  0  0  0  0  0  0  0  0  0  0
    8.2788    3.1658    0.2458 C   0  0  0  0  0  0  0  0  0  0  0  0
    8.6011    4.0786   -0.7638 F   0  0  0  0  0  0  0  0  0  0  0  0
    9.4325    2.8418    0.9574 F   0  0  0  0  0  0  0  0  0  0  0  0
    5.6206    1.9340    0.7646 C   0  0  0  0  0  0  0  0  0  0  0  0
    4.4670    1.3015    0.9225 N   0  0  0  0  0  0  0  0  0  0  0  0
    4.0974    0.1296    0.3201 C   0  0  0  0  0  0  0  0  0  0  0  0
    2.7714   -0.3895    0.5559 C   0  0  0  0  0  0  0  0  0  0  0  0
    2.2465   -0.0160    1.6812 O   0  0  0  0  0  0  0  0  0  0  0  0
    1.9820   -1.2245   -0.2535 N   0  0  0  0  0  0  0  0  0  0  0  0
    0.6690   -1.6473    0.1696 C   0  0  0  0  0  0  0  0  0  0  0  0
    0.5320   -2.8128    0.8965 C   0  0  0  0  0  0  0  0  0  0  0  0
   -0.7263   -3.2323    1.3106 C   0  0  0  0  0  0  0  0  0  0  0  0
   -1.8238   -2.4546    0.9755 C   0  0  0  0  0  0  0  0  0  0  0  0
   -3.0471   -2.8688    1.3820 F   0  0  0  0  0  0  0  0  0  0  0  0
   -1.7013   -1.2882    0.2498 C   0  0  0  0  0  0  0  0  0  0  0  0
   -2.9385   -0.5371   -0.0514 C   0  0  1  0  0  0  0  0  0  0  0  0
   -3.8498   -1.4715   -0.8469 C   0  0  0  0  0  0  0  0  0  0  0  0
   -3.5383   -0.1775    1.2109 N   0  0  0  0  0  0  0  0  0  0  0  0
   -4.6336    0.4715    1.3161 C   0  0  0  0  0  0  0  0  0  0  0  0
   -5.1308    0.7704    2.6177 N   0  0  0  0  0  0  0  0  0  0  0  0
   -5.3264    0.8788    0.0710 C   0  0  0  0  0  0  0  0  0  0  0  0
   -6.5714    1.6701    0.2744 C   0  0  0  0  0  0  0  0  0  0  0  0
   -6.6218    0.3332   -0.3303 C   0  0  0  0  0  0  0  0  0  0  0  0
   -4.1913    1.5654   -1.1131 S   0  0  0  0  0  6  0  0  0  0  0  0
   -4.7907    1.4198   -2.4659 O   0  0  0  0  0  0  0  0  0  0  0  0
   -3.9179    3.0062   -0.8273 O   0  0  0  0  0  0  0  0  0  0  0  0
   -2.6716    0.6618   -0.9362 C   0  0  2  0  0  0  0  0  0  0  0  0
   -2.2997    0.2469   -2.1992 F   0  0  0  0  0  0  0  0  0  0  0  0
   -0.4477   -0.9007   -0.1442 C   0  0  0  0  0  0  0  0  0  0  0  0
    4.2902   -2.4288   -0.5365 H   0  0  0  0  0  0  0  0  0  0  0  0
    5.8296   -2.1792   -1.3628 H   0  0  0  0  0  0  0  0  0  0  0  0
    4.3453   -1.6403   -2.1883 H   0  0  0  0  0  0  0  0  0  0  0  0
    6.9845   -0.2478   -1.3937 H   0  0  0  0  0  0  0  0  0  0  0  0
    7.6231    3.7048    0.9403 H   0  0  0  0  0  0  0  0  0  0  0  0
    5.8249    2.8803    1.2980 H   0  0  0  0  0  0  0  0  0  0  0  0
    2.3329   -1.5180   -1.1752 H   0  0  0  0  0  0  0  0  0  0  0  0
    1.4198   -3.3872    1.1343 H   0  0  0  0  0  0  0  0  0  0  0  0
   -0.8471   -4.1399    1.8785 H   0  0  0  0  0  0  0  0  0  0  0  0
   -4.5620   -1.9357   -0.1573 H   0  0  0  0  0  0  0  0  0  0  0  0
   -3.2316   -2.2408   -1.3430 H   0  0  0  0  0  0  0  0  0  0  0  0
   -4.3653   -0.9116   -1.6596 H   0  0  0  0  0  0  0  0  0  0  0  0
   -5.4691    0.0037    3.2395 H   0  0  0  0  0  0  0  0  0  0  0  0
   -5.1799    1.7395    3.0017 H   0  0  0  0  0  0  0  0  0  0  0  0
   -6.9986    1.8233    1.2842 H   0  0  0  0  0  0  0  0  0  0  0  0
   -6.7986    2.5426   -0.3993 H   0  0  0  0  0  0  0  0  0  0  0  0
   -7.0292   -0.4896    0.3143 H   0  0  0  0  0  0  0  0  0  0  0  0
   -6.8370    0.1694   -1.4014 H   0  0  0  0  0  0  0  0  0  0  0  0
   -1.8918    1.3219   -0.5491 H   0  0  0  0  0  0  0  0  0  0  0  0
   -0.3412    0.0040   -0.7085 H   0  0  0  0  0  0  0  0  0  0  0  0
  1  2  1  0
  2  3  2  0
  3  4  1  0
  4  5  1  0
  5  6  1  0
  6  7  1  0
  6  8  1  0
  4  9  2  0
  9 10  1  0
 10 11  2  0
 11 12  1  0
 12 13  2  0
 12 14  1  0
 14 15  1  0
 15 16  2  0
 16 17  1  0
 17 18  2  0
 18 19  1  0
 18 20  1  0
 20 21  1  0
 21 22  1  6
 21 23  1  0
 23 24  2  0
 24 25  1  0
 24 26  1  0
 26 27  1  0
 27 28  1  0
 26 29  1  0
 29 30  2  0
 29 31  2  0
 29 32  1  0
 32 33  1  0
 20 34  2  0
 11  2  1  0
 34 15  1  0
 32 21  1  0
 28 26  1  0
  1 35  1  0
  1 36  1  0
  1 37  1  0
  3 38  1  0
  6 39  1  0
  9 40  1  0
 14 41  1  0
 16 42  1  0
 17 43  1  0
 22 44  1  0
 22 45  1  0
 22 46  1  0
 25 47  1  0
 25 48  1  0
 27 49  1  0
 27 50  1  0
 28 51  1  0
 28 52  1  0
 32 53  1  1
 34 54  1  0
M  END
$$$$
