@<TRIPOS>MOLECULE
*****
 53 55 0 0 0
SMALL
GASTEIGER

@<TRIPOS>ATOM
      1 C           3.6668   -2.4321    0.0446 C.3     1  UNL1       -0.0200
      2 C           4.1239   -1.0272    0.2083 C.ar    1  UNL1        0.0724
      3 N           5.4138   -0.6991   -0.0123 N.ar    1  UNL1       -0.2146
      4 C           5.8725    0.5558    0.1228 C.ar    1  UNL1        0.2340
      5 O           7.1944    0.9185   -0.0982 O.3     1  UNL1       -0.4663
      6 C           8.0925   -0.1045   -0.4866 C.3     1  UNL1        0.1858
      7 C           9.4892    0.4436   -0.6892 C.3     1  UNL1        0.4236
      8 F          10.3086   -0.5920   -1.0627 F       1  UNL1       -0.1671
      9 F           9.4758    1.3512   -1.7276 F       1  UNL1       -0.1671
     10 F           9.9167    0.9918    0.4974 F       1  UNL1       -0.1671
     11 C           4.9792    1.5440    0.5037 C.ar    1  UNL1        0.0899
     12 N           3.6936    1.2165    0.7234 N.ar    1  UNL1       -0.2433
     13 C           3.2272   -0.0513    0.5875 C.ar    1  UNL1        0.1468
     14 C           1.8234   -0.3519    0.8382 C.2     1  UNL1        0.2683
     15 O           1.4313   -1.5399    0.7011 O.2     1  UNL1       -0.2681
     16 N           0.9480    0.6964    1.2264 N.am    1  UNL1       -0.2801
     17 C          -0.4120    0.3705    1.4628 C.ar    1  UNL1        0.0369
     18 C          -0.8079   -0.0008    2.7270 C.ar    1  UNL1       -0.0023
     19 C          -2.1139   -0.3250    3.0032 C.ar    1  UNL1        0.1605
     20 F          -2.4911   -0.6891    4.2525 F       1  UNL1       -0.2024
     21 C          -3.0562   -0.2775    1.9848 C.ar    1  UNL1        0.1640
     22 F          -4.3346   -0.5958    2.2562 F       1  UNL1       -0.2021
     23 C          -2.6871    0.0952    0.6912 C.ar    1  UNL1        0.0197
     24 C          -3.7237    0.1435   -0.4002 C.3     1  UNL1        0.0952
     25 C          -2.9513    0.4484   -1.6961 C.3     1  UNL1       -0.0352
     26 C          -4.6952    1.2560   -0.1565 C.3     1  UNL1        0.0223
     27 C          -6.1253    0.7984   -0.0942 C.3     1  UNL1        0.1997
     28 C          -6.9896    1.9612   -0.6001 C.3     1  UNL1        0.4266
     29 F          -8.2993    1.5558   -0.5483 F       1  UNL1       -0.1669
     30 F          -6.5716    2.1722   -1.9168 F       1  UNL1       -0.1669
     31 F          -6.7780    3.0750    0.1768 F       1  UNL1       -0.1669
     32 O          -6.3862   -0.3031   -0.9744 O.2     1  UNL1       -0.4534
     33 C          -5.5348   -1.4228   -0.8434 C.2     1  UNL1        0.2765
     34 N          -6.0277   -2.7524   -1.0020 N.pl3   1  UNL1       -0.3134
     35 N          -4.3145   -1.1399   -0.5767 N.2     1  UNL1       -0.2257
     36 C          -1.3913    0.4052    0.4680 C.ar    1  UNL1       -0.0321
     37 H           4.5509   -3.0691   -0.2473 H       1  UNL1        0.0293
     38 H           2.9358   -2.5606   -0.7666 H       1  UNL1        0.0293
     39 H           3.3291   -2.8654    1.0182 H       1  UNL1        0.0293
     40 H           8.0769   -0.9769    0.1832 H       1  UNL1        0.0788
     41 H           7.7630   -0.4855   -1.4915 H       1  UNL1        0.0788
     42 H           5.3420    2.5606    0.6151 H       1  UNL1        0.0884
     43 H           1.3511    1.6509    1.3173 H       1  UNL1        0.1552
     44 H          -0.0810   -0.0452    3.5461 H       1  UNL1        0.0666
     45 H          -2.4768    1.4451   -1.6622 H       1  UNL1        0.0256
     46 H          -2.1630   -0.3201   -1.7913 H       1  UNL1        0.0256
     47 H          -3.6437    0.3447   -2.5640 H       1  UNL1        0.0256
     48 H          -4.4880    1.7905    0.8010 H       1  UNL1        0.0330
     49 H          -4.5979    2.0312   -0.9496 H       1  UNL1        0.0330
     50 H          -6.4023    0.5358    0.9470 H       1  UNL1        0.0826
     51 H          -5.7211   -3.5383   -0.4171 H       1  UNL1        0.1466
     52 H          -6.7322   -2.9002   -1.7573 H       1  UNL1        0.1466
     53 H          -1.0083    0.7077   -0.5058 H       1  UNL1        0.0640
@<TRIPOS>BOND
     1     1     2    1
     2     2     3   ar
     3     3     4   ar
     4     4     5    1
     5     5     6    1
     6     6     7    1
     7     7     8    1
     8     7     9    1
     9     7    10    1
    10     4    11   ar
    11    11    12   ar
    12    12    13   ar
    13    13    14    1
    14    14    15    2
    15    14    16   am
    16    16    17    1
    17    17    18   ar
    18    18    19   ar
    19    19    20    1
    20    19    21   ar
    21    21    22    1
    22    21    23   ar
    23    23    24    1
    24    24    25    1
    25    24    26    1
    26    26    27    1
    27    27    28    1
    28    28    29    1
    29    28    30    1
    30    28    31    1
    31    27    32    1
    32    32    33    1
    33    33    34    1
    34    33    35    2
    35    23    36   ar
    36    13     2   ar
    37    36    17   ar
    38    35    24    1
    39     1    37    1
    40     1    38    1
    41     1    39    1
    42     6    40    1
    43     6    41    1
    44    11    42    1
    45    16    43    1
    46    18    44    1
    47    25    45    1
    48    25    46    1
    49    25    47    1
    50    26    48    1
    51    26    49    1
    52    27    50    1
    53    34    51    1
    54    34    52    1
    55    36    53    1
