
     RDKit          3D

 56 58  0  0  0  0  0  0  0  0999 V2000
    4.0744    0.1292   -0.1350 C   0  0  2  0  0  0  0  0  0  0  0  0
    5.0795   -1.0319   -0.1108 C   0  0  0  0  0  0  0  0  0  0  0  0
    6.5119   -0.1117   -0.8124 S   0  0  0  0  0  0  0  0  0  0  0  0
    5.9585    1.5137   -0.2245 C   0  0  0  0  0  0  0  0  0  0  0  0
    6.5468    2.5889   -0.4494 O   0  0  0  0  0  0  0  0  0  0  0  0
    4.7465    1.2492    0.5171 N   0  0  0  0  0  0  0  0  0  0  0  0
    2.8175   -0.2152    0.5814 C   0  0  1  0  0  0  0  0  0  0  0  0
    3.2040   -0.5578    1.9022 O   0  0  0  0  0  0  0  0  0  0  0  0
    1.9055    0.9585    0.7174 C   0  0  0  0  0  0  0  0  0  0  0  0
    1.1306    1.2972   -0.5464 C   0  0  1  0  0  0  0  0  0  0  0  0
    1.0012    0.0161   -1.3432 C   0  0  0  0  0  0  0  0  0  0  0  0
    0.8856   -1.1129   -0.3385 C   0  0  1  0  0  0  0  0  0  0  0  0
    0.4162   -2.3918   -1.0163 C   0  0  0  0  0  0  0  0  0  0  0  0
   -0.9576   -2.2846   -1.5453 C   0  0  0  0  0  0  0  0  0  0  0  0
   -2.0611   -2.1822   -0.4791 C   0  0  2  0  0  0  0  0  0  0  0  0
   -2.1903   -3.5308    0.1417 C   0  0  0  0  0  0  0  0  0  0  0  0
   -3.2681   -1.8125   -1.2419 C   0  0  0  0  0  0  0  0  0  0  0  0
   -3.9983   -0.7482   -0.9170 C   0  0  0  0  0  0  0  0  0  0  0  0
   -3.7140    0.1537    0.2191 C   0  0  0  0  0  0  0  0  0  0  0  0
   -3.2414    1.5127   -0.1601 C   0  0  0  0  0  0  0  0  0  0  0  0
   -3.0975    2.4709    0.9555 C   0  0  0  0  0  0  0  0  0  0  0  0
   -4.2787    2.9979    1.6601 C   0  0  0  0  0  0  0  0  0  0  0  0
   -1.9006    2.8574    1.3232 C   0  0  0  0  0  0  0  0  0  0  0  0
   -0.5960    2.4782    0.8089 C   0  0  0  0  0  0  0  0  0  0  0  0
    0.4584    2.9542    1.2422 O   0  0  0  0  0  0  0  0  0  0  0  0
   -0.1638    1.6184   -0.1408 O   0  0  0  0  0  0  0  0  0  0  0  0
    2.1862   -1.3476    0.0934 O   0  0  0  0  0  0  0  0  0  0  0  0
    3.9524    0.4441   -1.1872 H   0  0  0  0  0  0  0  0  0  0  0  0
    4.7399   -1.8075   -0.7893 H   0  0  0  0  0  0  0  0  0  0  0  0
    5.3072   -1.3202    0.9132 H   0  0  0  0  0  0  0  0  0  0  0  0
    4.5073    1.8430    1.3690 H   0  0  0  0  0  0  0  0  0  0  0  0
    4.0937   -0.2134    2.1248 H   0  0  0  0  0  0  0  0  0  0  0  0
    2.5193    1.8528    0.9385 H   0  0  0  0  0  0  0  0  0  0  0  0
    1.2164    0.7988    1.6003 H   0  0  0  0  0  0  0  0  0  0  0  0
    1.6157    2.1168   -1.1170 H   0  0  0  0  0  0  0  0  0  0  0  0
    0.0804    0.1195   -1.9557 H   0  0  0  0  0  0  0  0  0  0  0  0
    1.8117   -0.1643   -2.0513 H   0  0  0  0  0  0  0  0  0  0  0  0
    0.2757   -0.8489    0.5354 H   0  0  0  0  0  0  0  0  0  0  0  0
    1.1576   -2.6947   -1.7511 H   0  0  0  0  0  0  0  0  0  0  0  0
    0.4124   -3.1531   -0.2010 H   0  0  0  0  0  0  0  0  0  0  0  0
   -1.1296   -1.4893   -2.2715 H   0  0  0  0  0  0  0  0  0  0  0  0
   -1.1919   -3.2483   -2.0675 H   0  0  0  0  0  0  0  0  0  0  0  0
   -1.7607   -1.4076    0.2712 H   0  0  0  0  0  0  0  0  0  0  0  0
   -1.4662   -3.7235    0.9455 H   0  0  0  0  0  0  0  0  0  0  0  0
   -1.9582   -4.2987   -0.6534 H   0  0  0  0  0  0  0  0  0  0  0  0
   -3.2358   -3.7745    0.4350 H   0  0  0  0  0  0  0  0  0  0  0  0
   -3.5617   -2.4233   -2.0830 H   0  0  0  0  0  0  0  0  0  0  0  0
   -4.8680   -0.5427   -1.5493 H   0  0  0  0  0  0  0  0  0  0  0  0
   -3.1718   -0.3313    1.0415 H   0  0  0  0  0  0  0  0  0  0  0  0
   -4.7525    0.3288    0.6857 H   0  0  0  0  0  0  0  0  0  0  0  0
   -4.0414    1.9409   -0.8349 H   0  0  0  0  0  0  0  0  0  0  0  0
   -2.2955    1.4125   -0.6846 H   0  0  0  0  0  0  0  0  0  0  0  0
   -4.4840    2.5151    2.6367 H   0  0  0  0  0  0  0  0  0  0  0  0
   -5.1709    2.9180    0.9764 H   0  0  0  0  0  0  0  0  0  0  0  0
   -4.2175    4.0985    1.8726 H   0  0  0  0  0  0  0  0  0  0  0  0
   -1.8395    3.5836    2.1497 H   0  0  0  0  0  0  0  0  0  0  0  0
  1  2  1  0
  2  3  1  0
  3  4  1  0
  4  5  2  0
  4  6  1  0
  1  7  1  0
  7  8  1  1
  7  9  1  0
  9 10  1  0
 10 11  1  0
 11 12  1  0
 12 13  1  0
 13 14  1  0
 14 15  1  0
 15 16  1  0
 15 17  1  0
 17 18  2  0
 18 19  1  0
 19 20  1  0
 20 21  1  0
 21 22  1  0
 21 23  2  0
 23 24  1  0
 24 25  2  0
 24 26  1  0
 12 27  1  0
  6  1  1  0
 27  7  1  0
 26 10  1  0
  1 28  1  6
  2 29  1  0
  2 30  1  0
  6 31  1  0
  8 32  1  0
  9 33  1  0
  9 34  1  0
 10 35  1  6
 11 36  1  0
 11 37  1  0
 12 38  1  1
 13 39  1  0
 13 40  1  0
 14 41  1  0
 14 42  1  0
 15 43  1  1
 16 44  1  0
 16 45  1  0
 16 46  1  0
 17 47  1  0
 18 48  1  0
 19 49  1  0
 19 50  1  0
 20 51  1  0
 20 52  1  0
 22 53  1  0
 22 54  1  0
 22 55  1  0
 23 56  1  0
M  END
$$$$
