
     RDKit          3D

 59 64  0  0  0  0  0  0  0  0999 V2000
   -7.4508   -1.8523   -2.0433 C   0  0  0  0  0  0  0  0  0  0  0  0
   -6.5619   -0.8024   -1.9782 C   0  0  0  0  0  0  0  0  0  0  0  0
   -6.1568   -0.2363   -0.7898 C   0  0  0  0  0  0  0  0  0  0  0  0
   -5.2248    0.8788   -0.6880 C   0  0  0  0  0  0  0  0  0  0  0  0
   -5.5477    2.2251   -0.7301 C   0  0  0  0  0  0  0  0  0  0  0  0
   -4.4085    2.9378   -0.6072 N   0  0  0  0  0  0  0  0  0  0  0  0
   -3.3686    2.1029   -0.4877 N   0  0  0  0  0  0  0  0  0  0  0  0
   -2.0550    2.3520   -0.3370 C   0  0  0  0  0  0  0  0  0  0  0  0
   -1.1527    1.3042   -0.2252 C   0  0  0  0  0  0  0  0  0  0  0  0
    0.2533    1.5991   -0.0503 C   0  0  0  0  0  0  0  0  0  0  0  0
    0.6397    2.7321    0.6348 C   0  0  0  0  0  0  0  0  0  0  0  0
    1.9534    3.0673    0.8362 C   0  0  0  0  0  0  0  0  0  0  0  0
    2.9700    2.2383    0.3337 C   0  0  0  0  0  0  0  0  0  0  0  0
    4.2845    2.5908    0.5436 O   0  0  0  0  0  0  0  0  0  0  0  0
    5.3348    1.7967    0.0708 C   0  0  0  0  0  0  0  0  0  0  0  0
    5.2998    0.4437    0.7006 C   0  0  0  0  0  0  0  0  0  0  0  0
    6.3962   -0.3663    0.2344 N   0  0  0  0  0  0  0  0  0  0  0  0
    6.2279   -0.7356   -1.1357 C   0  0  0  0  0  0  0  0  0  0  0  0
    7.5586   -1.2821   -1.6279 C   0  0  0  0  0  0  0  0  0  0  0  0
    8.0112   -2.3055   -0.7439 N   0  0  0  0  0  0  0  0  0  0  0  0
    7.0918   -2.7026    0.2705 C   0  0  0  0  0  0  0  0  0  0  0  0
    6.5339   -1.5355    1.0774 C   0  0  0  0  0  0  0  0  0  0  0  0
    2.5736    1.1411   -0.3296 N   0  0  0  0  0  0  0  0  0  0  0  0
    1.2781    0.8143   -0.5263 C   0  0  0  0  0  0  0  0  0  0  0  0
   -1.6719    0.0282   -0.2780 C   0  0  0  0  0  0  0  0  0  0  0  0
   -2.9947   -0.1945   -0.4301 N   0  0  0  0  0  0  0  0  0  0  0  0
   -3.8501    0.8463   -0.5354 C   0  0  0  0  0  0  0  0  0  0  0  0
   -6.6828   -0.7674    0.3717 C   0  0  0  0  0  0  0  0  0  0  0  0
   -6.3003   -0.2299    1.5877 C   0  0  0  0  0  0  0  0  0  0  0  0
   -6.8078   -0.7417    2.7642 C   0  0  0  0  0  0  0  0  0  0  0  0
   -7.6979   -1.7940    2.6840 C   0  0  0  0  0  0  0  0  0  0  0  0
   -8.0604   -2.3047    1.5125 N   0  0  0  0  0  0  0  0  0  0  0  0
   -7.5831   -1.8262    0.3675 C   0  0  0  0  0  0  0  0  0  0  0  0
   -7.9507   -2.3514   -0.8672 C   0  0  0  0  0  0  0  0  0  0  0  0
   -7.7630   -2.2910   -2.9955 H   0  0  0  0  0  0  0  0  0  0  0  0
   -6.1714   -0.4131   -2.9069 H   0  0  0  0  0  0  0  0  0  0  0  0
   -6.5291    2.6262   -0.8401 H   0  0  0  0  0  0  0  0  0  0  0  0
   -1.6589    3.3600   -0.3001 H   0  0  0  0  0  0  0  0  0  0  0  0
   -0.1421    3.3730    1.0268 H   0  0  0  0  0  0  0  0  0  0  0  0
    2.2819    3.9469    1.3693 H   0  0  0  0  0  0  0  0  0  0  0  0
    5.2503    1.7992   -1.0390 H   0  0  0  0  0  0  0  0  0  0  0  0
    6.3053    2.3241    0.2798 H   0  0  0  0  0  0  0  0  0  0  0  0
    4.3257   -0.0867    0.5461 H   0  0  0  0  0  0  0  0  0  0  0  0
    5.3675    0.5370    1.8303 H   0  0  0  0  0  0  0  0  0  0  0  0
    5.4654   -1.5493   -1.2414 H   0  0  0  0  0  0  0  0  0  0  0  0
    5.9433    0.1363   -1.7380 H   0  0  0  0  0  0  0  0  0  0  0  0
    8.2591   -0.4043   -1.6588 H   0  0  0  0  0  0  0  0  0  0  0  0
    7.4092   -1.6509   -2.6811 H   0  0  0  0  0  0  0  0  0  0  0  0
    8.9193   -2.0355   -0.3230 H   0  0  0  0  0  0  0  0  0  0  0  0
    7.6775   -3.3172    1.0126 H   0  0  0  0  0  0  0  0  0  0  0  0
    6.2750   -3.3661   -0.0758 H   0  0  0  0  0  0  0  0  0  0  0  0
    7.1659   -1.2943    1.9356 H   0  0  0  0  0  0  0  0  0  0  0  0
    5.5540   -1.8914    1.4751 H   0  0  0  0  0  0  0  0  0  0  0  0
    1.0404   -0.0838   -1.0689 H   0  0  0  0  0  0  0  0  0  0  0  0
   -0.9749   -0.8084   -0.1926 H   0  0  0  0  0  0  0  0  0  0  0  0
   -5.6040    0.5900    1.5995 H   0  0  0  0  0  0  0  0  0  0  0  0
   -6.5202   -0.3360    3.7248 H   0  0  0  0  0  0  0  0  0  0  0  0
   -8.1062   -2.2108    3.5968 H   0  0  0  0  0  0  0  0  0  0  0  0
   -8.6501   -3.1758   -0.9141 H   0  0  0  0  0  0  0  0  0  0  0  0
  1  2  2  0
  2  3  1  0
  3  4  1  0
  4  5  1  0
  5  6  2  0
  6  7  1  0
  7  8  1  0
  8  9  2  0
  9 10  1  0
 10 11  2  0
 11 12  1  0
 12 13  2  0
 13 14  1  0
 14 15  1  0
 15 16  1  0
 16 17  1  0
 17 18  1  0
 18 19  1  0
 19 20  1  0
 20 21  1  0
 21 22  1  0
 13 23  1  0
 23 24  2  0
  9 25  1  0
 25 26  2  0
 26 27  1  0
  3 28  2  0
 28 29  1  0
 29 30  2  0
 30 31  1  0
 31 32  2  0
 32 33  1  0
 33 34  2  0
 34  1  1  0
 27  4  2  0
 33 28  1  0
 27  7  1  0
 24 10  1  0
 22 17  1  0
  1 35  1  0
  2 36  1  0
  5 37  1  0
  8 38  1  0
 11 39  1  0
 12 40  1  0
 15 41  1  0
 15 42  1  0
 16 43  1  0
 16 44  1  0
 18 45  1  0
 18 46  1  0
 19 47  1  0
 19 48  1  0
 20 49  1  0
 21 50  1  0
 21 51  1  0
 22 52  1  0
 22 53  1  0
 24 54  1  0
 25 55  1  0
 29 56  1  0
 30 57  1  0
 31 58  1  0
 34 59  1  0
M  END
$$$$
