@<TRIPOS>MOLECULE
*****
 59 64 0 0 0
SMALL
GASTEIGER

@<TRIPOS>ATOM
      1 C          -7.4508   -1.8523   -2.0433 C.ar    1  UNL1       -0.0591
      2 C          -6.5619   -0.8024   -1.9782 C.ar    1  UNL1       -0.0532
      3 C          -6.1568   -0.2363   -0.7898 C.ar    1  UNL1       -0.0037
      4 C          -5.2248    0.8788   -0.6880 C.ar    1  UNL1        0.0466
      5 C          -5.5477    2.2251   -0.7301 C.ar    1  UNL1        0.0597
      6 N          -4.4085    2.9378   -0.6072 N.ar    1  UNL1       -0.1727
      7 N          -3.3686    2.1029   -0.4877 N.ar    1  UNL1       -0.2206
      8 C          -2.0550    2.3520   -0.3370 C.ar    1  UNL1        0.0406
      9 C          -1.1527    1.3042   -0.2252 C.ar    1  UNL1        0.0199
     10 C           0.2533    1.5991   -0.0503 C.ar    1  UNL1        0.0034
     11 C           0.6397    2.7321    0.6348 C.ar    1  UNL1       -0.0475
     12 C           1.9534    3.0673    0.8362 C.ar    1  UNL1        0.0006
     13 C           2.9700    2.2383    0.3337 C.ar    1  UNL1        0.2147
     14 O           4.2845    2.5908    0.5436 O.3     1  UNL1       -0.4751
     15 C           5.3348    1.7967    0.0708 C.3     1  UNL1        0.1039
     16 C           5.2998    0.4437    0.7006 C.3     1  UNL1        0.0333
     17 N           6.3962   -0.3663    0.2344 N.3     1  UNL1       -0.2967
     18 C           6.2279   -0.7356   -1.1357 C.3     1  UNL1        0.0116
     19 C           7.5586   -1.2821   -1.6279 C.3     1  UNL1        0.0087
     20 N           8.0112   -2.3055   -0.7439 N.3     1  UNL1       -0.3136
     21 C           7.0918   -2.7026    0.2705 C.3     1  UNL1        0.0087
     22 C           6.5339   -1.5355    1.0774 C.3     1  UNL1        0.0116
     23 N           2.5736    1.1411   -0.3296 N.ar    1  UNL1       -0.2207
     24 C           1.2781    0.8143   -0.5263 C.ar    1  UNL1        0.0392
     25 C          -1.6719    0.0282   -0.2780 C.ar    1  UNL1        0.0392
     26 N          -2.9947   -0.1945   -0.4301 N.ar    1  UNL1       -0.2350
     27 C          -3.8501    0.8463   -0.5354 C.ar    1  UNL1        0.1632
     28 C          -6.6828   -0.7674    0.3717 C.ar    1  UNL1        0.0082
     29 C          -6.3003   -0.2299    1.5877 C.ar    1  UNL1       -0.0506
     30 C          -6.8078   -0.7417    2.7642 C.ar    1  UNL1       -0.0430
     31 C          -7.6979   -1.7940    2.6840 C.ar    1  UNL1        0.0283
     32 N          -8.0604   -2.3047    1.5125 N.ar    1  UNL1       -0.2550
     33 C          -7.5831   -1.8262    0.3675 C.ar    1  UNL1        0.0715
     34 C          -7.9507   -2.3514   -0.8672 C.ar    1  UNL1       -0.0357
     35 H          -7.7630   -2.2910   -2.9955 H       1  UNL1        0.0618
     36 H          -6.1714   -0.4131   -2.9069 H       1  UNL1        0.0624
     37 H          -6.5291    2.6262   -0.8401 H       1  UNL1        0.0855
     38 H          -1.6589    3.3600   -0.3001 H       1  UNL1        0.0837
     39 H          -0.1421    3.3730    1.0268 H       1  UNL1        0.0626
     40 H           2.2819    3.9469    1.3693 H       1  UNL1        0.0671
     41 H           5.2503    1.7992   -1.0390 H       1  UNL1        0.0710
     42 H           6.3053    2.3241    0.2798 H       1  UNL1        0.0710
     43 H           4.3257   -0.0867    0.5461 H       1  UNL1        0.0460
     44 H           5.3675    0.5370    1.8303 H       1  UNL1        0.0460
     45 H           5.4654   -1.5493   -1.2414 H       1  UNL1        0.0439
     46 H           5.9433    0.1363   -1.7380 H       1  UNL1        0.0439
     47 H           8.2591   -0.4043   -1.6588 H       1  UNL1        0.0437
     48 H           7.4092   -1.6509   -2.6811 H       1  UNL1        0.0437
     49 H           8.9193   -2.0355   -0.3230 H       1  UNL1        0.1220
     50 H           7.6775   -3.3172    1.0126 H       1  UNL1        0.0437
     51 H           6.2750   -3.3661   -0.0758 H       1  UNL1        0.0437
     52 H           7.1659   -1.2943    1.9356 H       1  UNL1        0.0439
     53 H           5.5540   -1.8914    1.4751 H       1  UNL1        0.0439
     54 H           1.0404   -0.0838   -1.0689 H       1  UNL1        0.0837
     55 H          -0.9749   -0.8084   -0.1926 H       1  UNL1        0.0837
     56 H          -5.6040    0.5900    1.5995 H       1  UNL1        0.0625
     57 H          -6.5202   -0.3360    3.7248 H       1  UNL1        0.0633
     58 H          -8.1062   -2.2108    3.5968 H       1  UNL1        0.0830
     59 H          -8.6501   -3.1758   -0.9141 H       1  UNL1        0.0639
@<TRIPOS>BOND
     1     1     2   ar
     2     2     3   ar
     3     3     4    1
     4     4     5   ar
     5     5     6   ar
     6     6     7   ar
     7     7     8   ar
     8     8     9   ar
     9     9    10    1
    10    10    11   ar
    11    11    12   ar
    12    12    13   ar
    13    13    14    1
    14    14    15    1
    15    15    16    1
    16    16    17    1
    17    17    18    1
    18    18    19    1
    19    19    20    1
    20    20    21    1
    21    21    22    1
    22    13    23   ar
    23    23    24   ar
    24     9    25   ar
    25    25    26   ar
    26    26    27   ar
    27     3    28   ar
    28    28    29   ar
    29    29    30   ar
    30    30    31   ar
    31    31    32   ar
    32    32    33   ar
    33    33    34   ar
    34    34     1   ar
    35    27     4   ar
    36    33    28   ar
    37    27     7   ar
    38    24    10   ar
    39    22    17    1
    40     1    35    1
    41     2    36    1
    42     5    37    1
    43     8    38    1
    44    11    39    1
    45    12    40    1
    46    15    41    1
    47    15    42    1
    48    16    43    1
    49    16    44    1
    50    18    45    1
    51    18    46    1
    52    19    47    1
    53    19    48    1
    54    20    49    1
    55    21    50    1
    56    21    51    1
    57    22    52    1
    58    22    53    1
    59    24    54    1
    60    25    55    1
    61    29    56    1
    62    30    57    1
    63    31    58    1
    64    34    59    1
