@<TRIPOS>MOLECULE
*****
 138 145 0 0 0
SMALL
GASTEIGER

@<TRIPOS>ATOM
      1 C          12.4476   -2.2938    2.7849 C.3     1  UNL1       -0.0437
      2 C          11.7741   -1.2027    2.0469 C.2     1  UNL1       -0.0739
      3 C          12.4629   -0.2595    1.3836 C.2     1  UNL1       -0.0812
      4 C          11.9960    1.1848    1.3308 C.3     1  UNL1       -0.0122
      5 C          11.9558    1.5961   -0.1618 C.3     1  UNL1       -0.0055
      6 C          11.5033    0.3194   -0.8252 C.ar    1  UNL1        0.0248
      7 N          12.0434   -0.0693   -1.9761 N.ar    1  UNL1       -0.3259
      8 C          11.7171   -1.2378   -2.5962 C.ar    1  UNL1        0.2489
      9 O          12.2353   -1.5824   -3.6744 O.2     1  UNL1       -0.2679
     10 C          10.7760   -2.0165   -1.9559 C.ar    1  UNL1        0.0031
     11 C          10.2075   -1.6226   -0.7612 C.ar    1  UNL1       -0.0498
     12 C          10.5541   -0.4335   -0.1536 C.ar    1  UNL1       -0.0039
     13 C           9.9105   -0.0612    1.1118 C.3     1  UNL1        0.0710
     14 C          10.2529   -1.1952    2.0831 C.3     1  UNL1       -0.0059
     15 C          10.5917    1.1574    1.7901 C.3     1  UNL1       -0.0083
     16 C           9.7676    2.3811    1.6246 C.3     1  UNL1       -0.0460
     17 C           8.5622    2.1974    2.5822 C.3     1  UNL1       -0.0368
     18 C           7.9596    0.8111    2.2977 C.3     1  UNL1        0.0156
     19 N           8.5437    0.3059    1.0501 N.am    1  UNL1       -0.2910
     20 C           7.7410    0.2586   -0.0985 C.2     1  UNL1        0.2175
     21 O           8.1294   -0.1133   -1.2436 O.2     1  UNL1       -0.2755
     22 C           6.2821    0.6600   -0.0753 C.3     1  UNL1        0.0369
     23 C           5.8528    0.9341   -1.4673 C.3     1  UNL1        0.0069
     24 N           5.9635   -0.0765   -2.4418 N.3     1  UNL1       -0.3049
     25 C           5.9968    0.6542   -3.7903 C.3     1  UNL1       -0.0127
     26 C           4.7956   -0.8841   -2.6213 C.3     1  UNL1       -0.0014
     27 C           4.4633   -1.7954   -1.5250 C.3     1  UNL1       -0.0402
     28 C           3.2378   -2.6709   -1.8964 C.3     1  UNL1       -0.0519
     29 C           2.0233   -1.8394   -2.1825 C.3     1  UNL1       -0.0530
     30 C           1.6444   -1.0735   -0.9380 C.3     1  UNL1       -0.0531
     31 C           0.4553   -0.1762   -1.1579 C.3     1  UNL1       -0.0531
     32 C          -0.7792   -0.7900   -1.6263 C.3     1  UNL1       -0.0531
     33 C          -1.4562   -1.8308   -0.8429 C.3     1  UNL1       -0.0531
     34 C          -1.9267   -1.5122    0.5262 C.3     1  UNL1       -0.0530
     35 C          -2.8798   -0.2947    0.5190 C.3     1  UNL1       -0.0519
     36 C          -3.4292   -0.0645    1.8886 C.3     1  UNL1       -0.0402
     37 C          -4.2453    1.1276    2.0309 C.3     1  UNL1       -0.0014
     38 N          -5.4314    1.3923    1.3179 N.3     1  UNL1       -0.3049
     39 C          -6.0372    2.6566    1.7697 C.3     1  UNL1       -0.0127
     40 C          -5.4265    1.2820   -0.0941 C.3     1  UNL1        0.0069
     41 C          -6.7475    1.8423   -0.6464 C.3     1  UNL1        0.0369
     42 C          -7.8433    0.9544   -0.0916 C.2     1  UNL1        0.2175
     43 O          -7.4867    0.0392    0.6902 O.2     1  UNL1       -0.2755
     44 N          -9.1649    1.2001   -0.4817 N.am    1  UNL1       -0.2910
     45 C          -9.4361    2.3744   -1.3240 C.3     1  UNL1        0.0156
     46 C         -10.0928    3.3731   -0.3736 C.3     1  UNL1       -0.0368
     47 C         -10.6921    2.6755    0.8466 C.3     1  UNL1       -0.0460
     48 C         -11.3348    1.4250    0.3597 C.3     1  UNL1       -0.0083
     49 C         -12.2593    0.7117    1.2636 C.3     1  UNL1       -0.0122
     50 C         -12.6289   -0.5712    0.5376 C.2     1  UNL1       -0.0812
     51 C         -12.2926   -0.7958   -0.7332 C.2     1  UNL1       -0.0739
     52 C         -13.1393   -1.5988   -1.6597 C.3     1  UNL1       -0.0437
     53 C         -11.0062   -0.2466   -1.3365 C.3     1  UNL1       -0.0059
     54 C         -10.2872    0.4110   -0.1263 C.3     1  UNL1        0.0710
     55 C         -10.0841   -0.7081    0.7968 C.ar    1  UNL1       -0.0039
     56 C          -9.3223   -1.7885    0.3961 C.ar    1  UNL1       -0.0498
     57 C          -9.1144   -2.8769    1.2422 C.ar    1  UNL1        0.0031
     58 C          -9.6613   -2.9127    2.5017 C.ar    1  UNL1        0.2489
     59 O          -9.5027   -3.8723    3.3068 O.2     1  UNL1       -0.2679
     60 N         -10.4068   -1.8433    2.8739 N.ar    1  UNL1       -0.3259
     61 C         -10.6119   -0.8012    2.0773 C.ar    1  UNL1        0.0248
     62 C         -11.5100    0.3025    2.5401 C.3     1  UNL1       -0.0055
     63 H          12.2509   -3.2963    2.3601 H       1  UNL1        0.0274
     64 H          13.5602   -2.1506    2.7997 H       1  UNL1        0.0274
     65 H          12.1607   -2.2834    3.8737 H       1  UNL1        0.0274
     66 H          13.3537   -0.5925    0.8955 H       1  UNL1        0.0575
     67 H          12.7001    1.7846    1.9045 H       1  UNL1        0.0350
     68 H          11.2180    2.3679   -0.3488 H       1  UNL1        0.0333
     69 H          12.9436    1.9003   -0.4970 H       1  UNL1        0.0333
     70 H          12.7637    0.5174   -2.4731 H       1  UNL1        0.1686
     71 H          10.4951   -2.9578   -2.4345 H       1  UNL1        0.0672
     72 H           9.4751   -2.3093   -0.3374 H       1  UNL1        0.0623
     73 H           9.9712   -0.8941    3.1048 H       1  UNL1        0.0334
     74 H           9.8230   -2.1542    1.8022 H       1  UNL1        0.0334
     75 H          10.6193    0.9576    2.9065 H       1  UNL1        0.0331
     76 H          10.3290    3.2454    1.9840 H       1  UNL1        0.0269
     77 H           9.3072    2.5093    0.6202 H       1  UNL1        0.0269
     78 H           8.9277    2.2551    3.6258 H       1  UNL1        0.0280
     79 H           7.8396    3.0095    2.4307 H       1  UNL1        0.0280
     80 H           6.8732    0.8018    2.3059 H       1  UNL1        0.0465
     81 H           8.2926    0.1377    3.1040 H       1  UNL1        0.0465
     82 H           5.7714   -0.1462    0.4297 H       1  UNL1        0.0371
     83 H           6.1578    1.5597    0.5863 H       1  UNL1        0.0371
     84 H           6.5151    1.7929   -1.8329 H       1  UNL1        0.0431
     85 H           4.8346    1.4212   -1.4547 H       1  UNL1        0.0431
     86 H           6.9883    1.1472   -3.8287 H       1  UNL1        0.0391
     87 H           5.8109   -0.0935   -4.5536 H       1  UNL1        0.0391
     88 H           5.2275    1.4363   -3.6960 H       1  UNL1        0.0391
     89 H           3.9020   -0.2151   -2.8651 H       1  UNL1        0.0426
     90 H           4.9186   -1.5069   -3.5743 H       1  UNL1        0.0426
     91 H           4.2912   -1.3323   -0.5615 H       1  UNL1        0.0278
     92 H           5.3017   -2.5250   -1.3988 H       1  UNL1        0.0278
     93 H           3.5305   -3.2190   -2.7938 H       1  UNL1        0.0266
     94 H           3.1191   -3.3351   -1.0211 H       1  UNL1        0.0266
     95 H           2.2174   -1.2176   -3.0624 H       1  UNL1        0.0265
     96 H           1.2080   -2.6058   -2.4140 H       1  UNL1        0.0265
     97 H           1.4475   -1.8164   -0.1402 H       1  UNL1        0.0265
     98 H           2.5278   -0.4847   -0.6220 H       1  UNL1        0.0265
     99 H           0.3076    0.4185   -0.2367 H       1  UNL1        0.0265
    100 H           0.7793    0.5870   -1.9254 H       1  UNL1        0.0265
    101 H          -0.6918   -1.1343   -2.7045 H       1  UNL1        0.0265
    102 H          -1.5390    0.0592   -1.7447 H       1  UNL1        0.0265
    103 H          -2.3566   -2.2550   -1.3908 H       1  UNL1        0.0265
    104 H          -0.7792   -2.7404   -0.7947 H       1  UNL1        0.0265
    105 H          -1.1636   -1.3676    1.2935 H       1  UNL1        0.0265
    106 H          -2.5489   -2.3637    0.8743 H       1  UNL1        0.0265
    107 H          -3.6366   -0.5699   -0.2070 H       1  UNL1        0.0266
    108 H          -2.3040    0.6222    0.2279 H       1  UNL1        0.0266
    109 H          -3.9291   -1.0057    2.2814 H       1  UNL1        0.0278
    110 H          -2.5098    0.0738    2.5589 H       1  UNL1        0.0278
    111 H          -4.4216    1.3037    3.1644 H       1  UNL1        0.0426
    112 H          -3.5516    2.0305    1.8274 H       1  UNL1        0.0426
    113 H          -5.6758    3.4599    1.1397 H       1  UNL1        0.0391
    114 H          -7.1255    2.5527    1.6640 H       1  UNL1        0.0391
    115 H          -5.8439    2.8036    2.8558 H       1  UNL1        0.0391
    116 H          -4.5494    1.6411   -0.6280 H       1  UNL1        0.0431
    117 H          -5.6048    0.1544   -0.2908 H       1  UNL1        0.0431
    118 H          -6.9327    2.8632   -0.3042 H       1  UNL1        0.0371
    119 H          -6.7309    1.7411   -1.7554 H       1  UNL1        0.0371
    120 H          -8.4584    2.7922   -1.6311 H       1  UNL1        0.0465
    121 H         -10.0560    2.1335   -2.1873 H       1  UNL1        0.0465
    122 H         -10.8697    3.9110   -0.9496 H       1  UNL1        0.0280
    123 H          -9.3202    4.0732   -0.0104 H       1  UNL1        0.0280
    124 H         -11.4878    3.3430    1.2257 H       1  UNL1        0.0269
    125 H          -9.9511    2.5399    1.6418 H       1  UNL1        0.0269
    126 H         -11.9239    1.7139   -0.5546 H       1  UNL1        0.0331
    127 H         -13.1417    1.2761    1.5700 H       1  UNL1        0.0350
    128 H         -13.1755   -1.3390    1.0379 H       1  UNL1        0.0575
    129 H         -13.8533   -2.2357   -1.1325 H       1  UNL1        0.0274
    130 H         -13.7235   -0.8628   -2.2849 H       1  UNL1        0.0274
    131 H         -12.5104   -2.1633   -2.3779 H       1  UNL1        0.0274
    132 H         -11.2595    0.5656   -2.0298 H       1  UNL1        0.0334
    133 H         -10.3883   -1.0109   -1.7868 H       1  UNL1        0.0334
    134 H          -8.8531   -1.8801   -0.5782 H       1  UNL1        0.0623
    135 H          -8.5106   -3.7328    0.9235 H       1  UNL1        0.0672
    136 H         -10.8190   -1.8795    3.8316 H       1  UNL1        0.1686
    137 H         -10.8955    1.1156    2.9124 H       1  UNL1        0.0333
    138 H         -12.2781   -0.0586    3.2471 H       1  UNL1        0.0333
@<TRIPOS>BOND
     1     1     2    1
     2     2     3    2
     3     3     4    1
     4     4     5    1
     5     5     6    1
     6     6     7   ar
     7     7     8   ar
     8     8     9    2
     9     8    10   ar
    10    10    11   ar
    11    11    12   ar
    12    12    13    1
    13    13    14    1
    14    13    15    1
    15    15    16    1
    16    16    17    1
    17    17    18    1
    18    18    19    1
    19    19    20   am
    20    20    21    2
    21    20    22    1
    22    22    23    1
    23    23    24    1
    24    24    25    1
    25    24    26    1
    26    26    27    1
    27    27    28    1
    28    28    29    1
    29    29    30    1
    30    30    31    1
    31    31    32    1
    32    32    33    1
    33    33    34    1
    34    34    35    1
    35    35    36    1
    36    36    37    1
    37    37    38    1
    38    38    39    1
    39    38    40    1
    40    40    41    1
    41    41    42    1
    42    42    43    2
    43    42    44   am
    44    44    45    1
    45    45    46    1
    46    46    47    1
    47    47    48    1
    48    48    49    1
    49    49    50    1
    50    50    51    2
    51    51    52    1
    52    51    53    1
    53    53    54    1
    54    54    55    1
    55    55    56   ar
    56    56    57   ar
    57    57    58   ar
    58    58    59    2
    59    58    60   ar
    60    60    61   ar
    61    61    62    1
    62    14     2    1
    63    54    44    1
    64    61    55   ar
    65    15     4    1
    66    54    48    1
    67    12     6   ar
    68    13    19    1
    69    62    49    1
    70     1    63    1
    71     1    64    1
    72     1    65    1
    73     3    66    1
    74     4    67    1
    75     5    68    1
    76     5    69    1
    77     7    70    1
    78    10    71    1
    79    11    72    1
    80    14    73    1
    81    14    74    1
    82    15    75    1
    83    16    76    1
    84    16    77    1
    85    17    78    1
    86    17    79    1
    87    18    80    1
    88    18    81    1
    89    22    82    1
    90    22    83    1
    91    23    84    1
    92    23    85    1
    93    25    86    1
    94    25    87    1
    95    25    88    1
    96    26    89    1
    97    26    90    1
    98    27    91    1
    99    27    92    1
   100    28    93    1
   101    28    94    1
   102    29    95    1
   103    29    96    1
   104    30    97    1
   105    30    98    1
   106    31    99    1
   107    31   100    1
   108    32   101    1
   109    32   102    1
   110    33   103    1
   111    33   104    1
   112    34   105    1
   113    34   106    1
   114    35   107    1
   115    35   108    1
   116    36   109    1
   117    36   110    1
   118    37   111    1
   119    37   112    1
   120    39   113    1
   121    39   114    1
   122    39   115    1
   123    40   116    1
   124    40   117    1
   125    41   118    1
   126    41   119    1
   127    45   120    1
   128    45   121    1
   129    46   122    1
   130    46   123    1
   131    47   124    1
   132    47   125    1
   133    48   126    1
   134    49   127    1
   135    50   128    1
   136    52   129    1
   137    52   130    1
   138    52   131    1
   139    53   132    1
   140    53   133    1
   141    56   134    1
   142    57   135    1
   143    60   136    1
   144    62   137    1
   145    62   138    1
