
     RDKit          3D

138145  0  0  0  0  0  0  0  0999 V2000
   12.4476   -2.2938    2.7849 C   0  0  0  0  0  0  0  0  0  0  0  0
   11.7741   -1.2027    2.0469 C   0  0  0  0  0  0  0  0  0  0  0  0
   12.4629   -0.2595    1.3836 C   0  0  0  0  0  0  0  0  0  0  0  0
   11.9960    1.1848    1.3308 C   0  0  0  0  0  0  0  0  0  0  0  0
   11.9558    1.5961   -0.1618 C   0  0  0  0  0  0  0  0  0  0  0  0
   11.5033    0.3194   -0.8252 C   0  0  0  0  0  0  0  0  0  0  0  0
   12.0434   -0.0693   -1.9761 N   0  0  0  0  0  0  0  0  0  0  0  0
   11.7171   -1.2378   -2.5962 C   0  0  0  0  0  0  0  0  0  0  0  0
   12.2353   -1.5824   -3.6744 O   0  0  0  0  0  0  0  0  0  0  0  0
   10.7760   -2.0165   -1.9559 C   0  0  0  0  0  0  0  0  0  0  0  0
   10.2075   -1.6226   -0.7612 C   0  0  0  0  0  0  0  0  0  0  0  0
   10.5541   -0.4335   -0.1536 C   0  0  0  0  0  0  0  0  0  0  0  0
    9.9105   -0.0612    1.1118 C   0  0  1  0  0  0  0  0  0  0  0  0
   10.2529   -1.1952    2.0831 C   0  0  0  0  0  0  0  0  0  0  0  0
   10.5917    1.1574    1.7901 C   0  0  2  0  0  0  0  0  0  0  0  0
    9.7676    2.3811    1.6246 C   0  0  0  0  0  0  0  0  0  0  0  0
    8.5622    2.1974    2.5822 C   0  0  0  0  0  0  0  0  0  0  0  0
    7.9596    0.8111    2.2977 C   0  0  0  0  0  0  0  0  0  0  0  0
    8.5437    0.3059    1.0501 N   0  0  0  0  0  0  0  0  0  0  0  0
    7.7410    0.2586   -0.0985 C   0  0  0  0  0  0  0  0  0  0  0  0
    8.1294   -0.1133   -1.2436 O   0  0  0  0  0  0  0  0  0  0  0  0
    6.2821    0.6600   -0.0753 C   0  0  0  0  0  0  0  0  0  0  0  0
    5.8528    0.9341   -1.4673 C   0  0  0  0  0  0  0  0  0  0  0  0
    5.9635   -0.0765   -2.4418 N   0  0  0  0  0  0  0  0  0  0  0  0
    5.9968    0.6542   -3.7903 C   0  0  0  0  0  0  0  0  0  0  0  0
    4.7956   -0.8841   -2.6213 C   0  0  0  0  0  0  0  0  0  0  0  0
    4.4633   -1.7954   -1.5250 C   0  0  0  0  0  0  0  0  0  0  0  0
    3.2378   -2.6709   -1.8964 C   0  0  0  0  0  0  0  0  0  0  0  0
    2.0233   -1.8394   -2.1825 C   0  0  0  0  0  0  0  0  0  0  0  0
    1.6444   -1.0735   -0.9380 C   0  0  0  0  0  0  0  0  0  0  0  0
    0.4553   -0.1762   -1.1579 C   0  0  0  0  0  0  0  0  0  0  0  0
   -0.7792   -0.7900   -1.6263 C   0  0  0  0  0  0  0  0  0  0  0  0
   -1.4562   -1.8308   -0.8429 C   0  0  0  0  0  0  0  0  0  0  0  0
   -1.9267   -1.5122    0.5262 C   0  0  0  0  0  0  0  0  0  0  0  0
   -2.8798   -0.2947    0.5190 C   0  0  0  0  0  0  0  0  0  0  0  0
   -3.4292   -0.0645    1.8886 C   0  0  0  0  0  0  0  0  0  0  0  0
   -4.2453    1.1276    2.0309 C   0  0  0  0  0  0  0  0  0  0  0  0
   -5.4314    1.3923    1.3179 N   0  0  0  0  0  0  0  0  0  0  0  0
   -6.0372    2.6566    1.7697 C   0  0  0  0  0  0  0  0  0  0  0  0
   -5.4265    1.2820   -0.0941 C   0  0  0  0  0  0  0  0  0  0  0  0
   -6.7475    1.8423   -0.6464 C   0  0  0  0  0  0  0  0  0  0  0  0
   -7.8433    0.9544   -0.0916 C   0  0  0  0  0  0  0  0  0  0  0  0
   -7.4867    0.0392    0.6902 O   0  0  0  0  0  0  0  0  0  0  0  0
   -9.1649    1.2001   -0.4817 N   0  0  0  0  0  0  0  0  0  0  0  0
   -9.4361    2.3744   -1.3240 C   0  0  0  0  0  0  0  0  0  0  0  0
  -10.0928    3.3731   -0.3736 C   0  0  0  0  0  0  0  0  0  0  0  0
  -10.6921    2.6755    0.8466 C   0  0  0  0  0  0  0  0  0  0  0  0
  -11.3348    1.4250    0.3597 C   0  0  2  0  0  0  0  0  0  0  0  0
  -12.2593    0.7117    1.2636 C   0  0  0  0  0  0  0  0  0  0  0  0
  -12.6289   -0.5712    0.5376 C   0  0  0  0  0  0  0  0  0  0  0  0
  -12.2926   -0.7958   -0.7332 C   0  0  0  0  0  0  0  0  0  0  0  0
  -13.1393   -1.5988   -1.6597 C   0  0  0  0  0  0  0  0  0  0  0  0
  -11.0062   -0.2466   -1.3365 C   0  0  0  0  0  0  0  0  0  0  0  0
  -10.2872    0.4110   -0.1263 C   0  0  1  0  0  0  0  0  0  0  0  0
  -10.0841   -0.7081    0.7968 C   0  0  0  0  0  0  0  0  0  0  0  0
   -9.3223   -1.7885    0.3961 C   0  0  0  0  0  0  0  0  0  0  0  0
   -9.1144   -2.8769    1.2422 C   0  0  0  0  0  0  0  0  0  0  0  0
   -9.6613   -2.9127    2.5017 C   0  0  0  0  0  0  0  0  0  0  0  0
   -9.5027   -3.8723    3.3068 O   0  0  0  0  0  0  0  0  0  0  0  0
  -10.4068   -1.8433    2.8739 N   0  0  0  0  0  0  0  0  0  0  0  0
  -10.6119   -0.8012    2.0773 C   0  0  0  0  0  0  0  0  0  0  0  0
  -11.5100    0.3025    2.5401 C   0  0  0  0  0  0  0  0  0  0  0  0
   12.2509   -3.2963    2.3601 H   0  0  0  0  0  0  0  0  0  0  0  0
   13.5602   -2.1506    2.7997 H   0  0  0  0  0  0  0  0  0  0  0  0
   12.1607   -2.2834    3.8737 H   0  0  0  0  0  0  0  0  0  0  0  0
   13.3537   -0.5925    0.8955 H   0  0  0  0  0  0  0  0  0  0  0  0
   12.7001    1.7846    1.9045 H   0  0  0  0  0  0  0  0  0  0  0  0
   11.2180    2.3679   -0.3488 H   0  0  0  0  0  0  0  0  0  0  0  0
   12.9436    1.9003   -0.4970 H   0  0  0  0  0  0  0  0  0  0  0  0
   12.7637    0.5174   -2.4731 H   0  0  0  0  0  0  0  0  0  0  0  0
   10.4951   -2.9578   -2.4345 H   0  0  0  0  0  0  0  0  0  0  0  0
    9.4751   -2.3093   -0.3374 H   0  0  0  0  0  0  0  0  0  0  0  0
    9.9712   -0.8941    3.1048 H   0  0  0  0  0  0  0  0  0  0  0  0
    9.8230   -2.1542    1.8022 H   0  0  0  0  0  0  0  0  0  0  0  0
   10.6193    0.9576    2.9065 H   0  0  0  0  0  0  0  0  0  0  0  0
   10.3290    3.2454    1.9840 H   0  0  0  0  0  0  0  0  0  0  0  0
    9.3072    2.5093    0.6202 H   0  0  0  0  0  0  0  0  0  0  0  0
    8.9277    2.2551    3.6258 H   0  0  0  0  0  0  0  0  0  0  0  0
    7.8396    3.0095    2.4307 H   0  0  0  0  0  0  0  0  0  0  0  0
    6.8732    0.8018    2.3059 H   0  0  0  0  0  0  0  0  0  0  0  0
    8.2926    0.1377    3.1040 H   0  0  0  0  0  0  0  0  0  0  0  0
    5.7714   -0.1462    0.4297 H   0  0  0  0  0  0  0  0  0  0  0  0
    6.1578    1.5597    0.5863 H   0  0  0  0  0  0  0  0  0  0  0  0
    6.5151    1.7929   -1.8329 H   0  0  0  0  0  0  0  0  0  0  0  0
    4.8346    1.4212   -1.4547 H   0  0  0  0  0  0  0  0  0  0  0  0
    6.9883    1.1472   -3.8287 H   0  0  0  0  0  0  0  0  0  0  0  0
    5.8109   -0.0935   -4.5536 H   0  0  0  0  0  0  0  0  0  0  0  0
    5.2275    1.4363   -3.6960 H   0  0  0  0  0  0  0  0  0  0  0  0
    3.9020   -0.2151   -2.8651 H   0  0  0  0  0  0  0  0  0  0  0  0
    4.9186   -1.5069   -3.5743 H   0  0  0  0  0  0  0  0  0  0  0  0
    4.2912   -1.3323   -0.5615 H   0  0  0  0  0  0  0  0  0  0  0  0
    5.3017   -2.5250   -1.3988 H   0  0  0  0  0  0  0  0  0  0  0  0
    3.5305   -3.2190   -2.7938 H   0  0  0  0  0  0  0  0  0  0  0  0
    3.1191   -3.3351   -1.0211 H   0  0  0  0  0  0  0  0  0  0  0  0
    2.2174   -1.2176   -3.0624 H   0  0  0  0  0  0  0  0  0  0  0  0
    1.2080   -2.6058   -2.4140 H   0  0  0  0  0  0  0  0  0  0  0  0
    1.4475   -1.8164   -0.1402 H   0  0  0  0  0  0  0  0  0  0  0  0
    2.5278   -0.4847   -0.6220 H   0  0  0  0  0  0  0  0  0  0  0  0
    0.3076    0.4185   -0.2367 H   0  0  0  0  0  0  0  0  0  0  0  0
    0.7793    0.5870   -1.9254 H   0  0  0  0  0  0  0  0  0  0  0  0
   -0.6918   -1.1343   -2.7045 H   0  0  0  0  0  0  0  0  0  0  0  0
   -1.5390    0.0592   -1.7447 H   0  0  0  0  0  0  0  0  0  0  0  0
   -2.3566   -2.2550   -1.3908 H   0  0  0  0  0  0  0  0  0  0  0  0
   -0.7792   -2.7404   -0.7947 H   0  0  0  0  0  0  0  0  0  0  0  0
   -1.1636   -1.3676    1.2935 H   0  0  0  0  0  0  0  0  0  0  0  0
   -2.5489   -2.3637    0.8743 H   0  0  0  0  0  0  0  0  0  0  0  0
   -3.6366   -0.5699   -0.2070 H   0  0  0  0  0  0  0  0  0  0  0  0
   -2.3040    0.6222    0.2279 H   0  0  0  0  0  0  0  0  0  0  0  0
   -3.9291   -1.0057    2.2814 H   0  0  0  0  0  0  0  0  0  0  0  0
   -2.5098    0.0738    2.5589 H   0  0  0  0  0  0  0  0  0  0  0  0
   -4.4216    1.3037    3.1644 H   0  0  0  0  0  0  0  0  0  0  0  0
   -3.5516    2.0305    1.8274 H   0  0  0  0  0  0  0  0  0  0  0  0
   -5.6758    3.4599    1.1397 H   0  0  0  0  0  0  0  0  0  0  0  0
   -7.1255    2.5527    1.6640 H   0  0  0  0  0  0  0  0  0  0  0  0
   -5.8439    2.8036    2.8558 H   0  0  0  0  0  0  0  0  0  0  0  0
   -4.5494    1.6411   -0.6280 H   0  0  0  0  0  0  0  0  0  0  0  0
   -5.6048    0.1544   -0.2908 H   0  0  0  0  0  0  0  0  0  0  0  0
   -6.9327    2.8632   -0.3042 H   0  0  0  0  0  0  0  0  0  0  0  0
   -6.7309    1.7411   -1.7554 H   0  0  0  0  0  0  0  0  0  0  0  0
   -8.4584    2.7922   -1.6311 H   0  0  0  0  0  0  0  0  0  0  0  0
  -10.0560    2.1335   -2.1873 H   0  0  0  0  0  0  0  0  0  0  0  0
  -10.8697    3.9110   -0.9496 H   0  0  0  0  0  0  0  0  0  0  0  0
   -9.3202    4.0732   -0.0104 H   0  0  0  0  0  0  0  0  0  0  0  0
  -11.4878    3.3430    1.2257 H   0  0  0  0  0  0  0  0  0  0  0  0
   -9.9511    2.5399    1.6418 H   0  0  0  0  0  0  0  0  0  0  0  0
  -11.9239    1.7139   -0.5546 H   0  0  0  0  0  0  0  0  0  0  0  0
  -13.1417    1.2761    1.5700 H   0  0  0  0  0  0  0  0  0  0  0  0
  -13.1755   -1.3390    1.0379 H   0  0  0  0  0  0  0  0  0  0  0  0
  -13.8533   -2.2357   -1.1325 H   0  0  0  0  0  0  0  0  0  0  0  0
  -13.7235   -0.8628   -2.2849 H   0  0  0  0  0  0  0  0  0  0  0  0
  -12.5104   -2.1633   -2.3779 H   0  0  0  0  0  0  0  0  0  0  0  0
  -11.2595    0.5656   -2.0298 H   0  0  0  0  0  0  0  0  0  0  0  0
  -10.3883   -1.0109   -1.7868 H   0  0  0  0  0  0  0  0  0  0  0  0
   -8.8531   -1.8801   -0.5782 H   0  0  0  0  0  0  0  0  0  0  0  0
   -8.5106   -3.7328    0.9235 H   0  0  0  0  0  0  0  0  0  0  0  0
  -10.8190   -1.8795    3.8316 H   0  0  0  0  0  0  0  0  0  0  0  0
  -10.8955    1.1156    2.9124 H   0  0  0  0  0  0  0  0  0  0  0  0
  -12.2781   -0.0586    3.2471 H   0  0  0  0  0  0  0  0  0  0  0  0
  1  2  1  0
  2  3  2  0
  3  4  1  0
  4  5  1  0
  5  6  1  0
  6  7  1  0
  7  8  1  0
  8  9  2  0
  8 10  1  0
 10 11  2  0
 11 12  1  0
 12 13  1  0
 13 14  1  0
 13 15  1  0
 15 16  1  0
 16 17  1  0
 17 18  1  0
 18 19  1  0
 19 20  1  0
 20 21  2  0
 20 22  1  0
 22 23  1  0
 23 24  1  0
 24 25  1  0
 24 26  1  0
 26 27  1  0
 27 28  1  0
 28 29  1  0
 29 30  1  0
 30 31  1  0
 31 32  1  0
 32 33  1  0
 33 34  1  0
 34 35  1  0
 35 36  1  0
 36 37  1  0
 37 38  1  0
 38 39  1  0
 38 40  1  0
 40 41  1  0
 41 42  1  0
 42 43  2  0
 42 44  1  0
 44 45  1  0
 45 46  1  0
 46 47  1  0
 47 48  1  0
 48 49  1  0
 49 50  1  0
 50 51  2  0
 51 52  1  0
 51 53  1  0
 53 54  1  0
 54 55  1  0
 55 56  1  0
 56 57  2  0
 57 58  1  0
 58 59  2  0
 58 60  1  0
 60 61  1  0
 61 62  1  0
 14  2  1  0
 54 44  1  6
 61 55  2  0
 15  4  1  0
 54 48  1  0
 12  6  2  0
 13 19  1  6
 62 49  1  0
  1 63  1  0
  1 64  1  0
  1 65  1  0
  3 66  1  0
  4 67  1  0
  5 68  1  0
  5 69  1  0
  7 70  1  0
 10 71  1  0
 11 72  1  0
 14 73  1  0
 14 74  1  0
 15 75  1  1
 16 76  1  0
 16 77  1  0
 17 78  1  0
 17 79  1  0
 18 80  1  0
 18 81  1  0
 22 82  1  0
 22 83  1  0
 23 84  1  0
 23 85  1  0
 25 86  1  0
 25 87  1  0
 25 88  1  0
 26 89  1  0
 26 90  1  0
 27 91  1  0
 27 92  1  0
 28 93  1  0
 28 94  1  0
 29 95  1  0
 29 96  1  0
 30 97  1  0
 30 98  1  0
 31 99  1  0
 31100  1  0
 32101  1  0
 32102  1  0
 33103  1  0
 33104  1  0
 34105  1  0
 34106  1  0
 35107  1  0
 35108  1  0
 36109  1  0
 36110  1  0
 37111  1  0
 37112  1  0
 39113  1  0
 39114  1  0
 39115  1  0
 40116  1  0
 40117  1  0
 41118  1  0
 41119  1  0
 45120  1  0
 45121  1  0
 46122  1  0
 46123  1  0
 47124  1  0
 47125  1  0
 48126  1  6
 49127  1  0
 50128  1  0
 52129  1  0
 52130  1  0
 52131  1  0
 53132  1  0
 53133  1  0
 56134  1  0
 57135  1  0
 60136  1  0
 62137  1  0
 62138  1  0
M  END
$$$$
