@<TRIPOS>MOLECULE
*****
 77 81 0 0 0
SMALL
GASTEIGER

@<TRIPOS>ATOM
      1 C          -7.3549    4.1581    1.4840 C.3     1  UNL1        0.0302
      2 N          -6.0439    3.5793    1.7995 N.ar    1  UNL1       -0.2742
      3 C          -5.8040    2.3753    2.3613 C.ar    1  UNL1        0.0286
      4 C          -4.4521    2.1619    2.5091 C.ar    1  UNL1       -0.0054
      5 C          -3.7180    0.9878    3.0732 C.3     1  UNL1        0.0071
      6 C          -3.4285    0.0331    1.9626 C.ar    1  UNL1        0.0394
      7 C          -2.1603   -0.0454    1.4015 C.ar    1  UNL1        0.0161
      8 N          -1.9038   -0.8997    0.3973 N.ar    1  UNL1       -0.3177
      9 C          -0.5611   -0.9811   -0.2030 C.3     1  UNL1        0.1015
     10 C           0.1976   -2.0054    0.5367 C.2     1  UNL1        0.2362
     11 O          -0.0514   -3.2519    0.3064 O.2     1  UNL1       -0.2736
     12 N           1.1824   -1.6908    1.4884 N.am    1  UNL1       -0.2850
     13 C           1.8432   -2.7660    2.2421 C.3     1  UNL1        0.1121
     14 C           1.0846   -3.0281    3.4891 C.2     1  UNL1        0.3223
     15 O           0.0522   -2.3528    3.7484 O.2     1  UNL1       -0.2492
     16 O           1.4719   -3.9959    4.3881 O.3     1  UNL1       -0.4795
     17 C           1.6159   -0.3617    1.7438 C.3     1  UNL1        0.0404
     18 C           2.8862   -0.0759    1.0390 C.ar    1  UNL1       -0.0301
     19 C           2.9339    0.3550   -0.2518 C.ar    1  UNL1       -0.0565
     20 C           4.1480    0.6298   -0.8789 C.ar    1  UNL1       -0.0537
     21 C           5.3203    0.4656   -0.1906 C.ar    1  UNL1       -0.0179
     22 C           6.5844    0.7508   -0.8330 C.ar    1  UNL1       -0.0179
     23 C           6.8032    0.5710   -2.1795 C.ar    1  UNL1       -0.0535
     24 C           8.0444    0.8730   -2.6812 C.ar    1  UNL1       -0.0495
     25 C           9.0766    1.3461   -1.9004 C.ar    1  UNL1        0.0548
     26 C          10.4033    1.6599   -2.4892 C.3     1  UNL1        0.4174
     27 F          10.2491    2.2594   -3.7295 F       1  UNL1       -0.1659
     28 F          11.1007    0.4812   -2.6664 F       1  UNL1       -0.1659
     29 F          11.1404    2.4636   -1.6503 F       1  UNL1       -0.1659
     30 C           8.8244    1.5135   -0.5621 C.ar    1  UNL1       -0.0495
     31 C           7.5992    1.2256   -0.0118 C.ar    1  UNL1       -0.0535
     32 C           5.2807    0.0338    1.1043 C.ar    1  UNL1       -0.0537
     33 C           4.0908   -0.2354    1.7201 C.ar    1  UNL1       -0.0565
     34 C          -2.8370   -1.7176   -0.1204 C.ar    1  UNL1        0.1733
     35 S          -2.5180   -2.8597   -1.4635 S.3     1  UNL1       -0.0829
     36 C          -2.8628   -1.9645   -3.0139 C.3     1  UNL1        0.0262
     37 C          -4.3171   -1.6305   -3.1131 C.ar    1  UNL1       -0.0370
     38 C          -4.8365   -0.4647   -2.6209 C.ar    1  UNL1       -0.0551
     39 C          -6.1739   -0.2118   -2.7409 C.ar    1  UNL1       -0.0262
     40 C          -7.0638   -1.0869   -3.3467 C.ar    1  UNL1        0.1234
     41 F          -8.3788   -0.7822   -3.4355 F       1  UNL1       -0.2055
     42 C          -6.5254   -2.2628   -3.8403 C.ar    1  UNL1       -0.0262
     43 C          -5.1740   -2.5203   -3.7208 C.ar    1  UNL1       -0.0551
     44 N          -4.0763   -1.6471    0.4202 N.ar    1  UNL1       -0.1848
     45 C          -4.3792   -0.8081    1.4260 C.ar    1  UNL1        0.2773
     46 O          -5.5498   -0.7560    1.9215 O.2     1  UNL1       -0.2655
     47 C          -3.8633    3.3241    1.9969 C.ar    1  UNL1        0.0528
     48 N          -4.8611    4.1256    1.5921 N.ar    1  UNL1       -0.1796
     49 H          -7.6885    3.7015    0.5267 H       1  UNL1        0.0473
     50 H          -7.2152    5.2352    1.2737 H       1  UNL1        0.0473
     51 H          -8.0986    3.9291    2.2467 H       1  UNL1        0.0473
     52 H          -6.5779    1.6735    2.6560 H       1  UNL1        0.0829
     53 H          -2.7647    1.3688    3.4692 H       1  UNL1        0.0365
     54 H          -4.3231    0.4431    3.8109 H       1  UNL1        0.0365
     55 H          -1.4200    0.6159    1.8234 H       1  UNL1        0.0814
     56 H          -0.6592   -1.3315   -1.2708 H       1  UNL1        0.0588
     57 H          -0.0720   -0.0161   -0.1942 H       1  UNL1        0.0588
     58 H           2.9078   -2.5830    2.3932 H       1  UNL1        0.0580
     59 H           1.7715   -3.6785    1.5926 H       1  UNL1        0.0580
     60 H           0.9981   -4.1266    5.2738 H       1  UNL1        0.2951
     61 H           0.9064    0.4332    1.4708 H       1  UNL1        0.0514
     62 H           1.7858   -0.1913    2.8587 H       1  UNL1        0.0514
     63 H           2.0681    0.5075   -0.8533 H       1  UNL1        0.0621
     64 H           4.1566    0.9718   -1.9032 H       1  UNL1        0.0624
     65 H           6.0060    0.1981   -2.8195 H       1  UNL1        0.0624
     66 H           8.2549    0.7418   -3.7502 H       1  UNL1        0.0623
     67 H           9.6219    1.8834    0.0700 H       1  UNL1        0.0623
     68 H           7.4722    1.3809    1.0341 H       1  UNL1        0.0624
     69 H           6.1983   -0.0958    1.6413 H       1  UNL1        0.0624
     70 H           4.0492   -0.5695    2.7580 H       1  UNL1        0.0621
     71 H          -2.3245   -0.9978   -2.9492 H       1  UNL1        0.0429
     72 H          -2.5084   -2.5171   -3.9002 H       1  UNL1        0.0429
     73 H          -4.2017    0.2494   -2.1428 H       1  UNL1        0.0621
     74 H          -6.5927    0.7206   -2.3486 H       1  UNL1        0.0646
     75 H          -7.2055   -2.9699   -4.3236 H       1  UNL1        0.0646
     76 H          -4.7837   -3.4606   -4.1224 H       1  UNL1        0.0621
     77 H          -2.7996    3.5127    1.9487 H       1  UNL1        0.0851
@<TRIPOS>BOND
     1     1     2    1
     2     2     3   ar
     3     3     4   ar
     4     4     5    1
     5     5     6    1
     6     6     7   ar
     7     7     8   ar
     8     8     9    1
     9     9    10    1
    10    10    11    2
    11    10    12   am
    12    12    13    1
    13    13    14    1
    14    14    15    2
    15    14    16    1
    16    12    17    1
    17    17    18    1
    18    18    19   ar
    19    19    20   ar
    20    20    21   ar
    21    21    22    1
    22    22    23   ar
    23    23    24   ar
    24    24    25   ar
    25    25    26    1
    26    26    27    1
    27    26    28    1
    28    26    29    1
    29    25    30   ar
    30    30    31   ar
    31    21    32   ar
    32    32    33   ar
    33     8    34   ar
    34    34    35    1
    35    35    36    1
    36    36    37    1
    37    37    38   ar
    38    38    39   ar
    39    39    40   ar
    40    40    41    1
    41    40    42   ar
    42    42    43   ar
    43    34    44   ar
    44    44    45   ar
    45    45    46    2
    46     4    47   ar
    47    47    48   ar
    48    48     2   ar
    49    45     6   ar
    50    33    18   ar
    51    43    37   ar
    52    31    22   ar
    53     1    49    1
    54     1    50    1
    55     1    51    1
    56     3    52    1
    57     5    53    1
    58     5    54    1
    59     7    55    1
    60     9    56    1
    61     9    57    1
    62    13    58    1
    63    13    59    1
    64    16    60    1
    65    17    61    1
    66    17    62    1
    67    19    63    1
    68    20    64    1
    69    23    65    1
    70    24    66    1
    71    30    67    1
    72    31    68    1
    73    32    69    1
    74    33    70    1
    75    36    71    1
    76    36    72    1
    77    38    73    1
    78    39    74    1
    79    42    75    1
    80    43    76    1
    81    47    77    1
