
     RDKit          3D

 77 81  0  0  0  0  0  0  0  0999 V2000
   -7.3549    4.1581    1.4840 C   0  0  0  0  0  0  0  0  0  0  0  0
   -6.0439    3.5793    1.7995 N   0  0  0  0  0  0  0  0  0  0  0  0
   -5.8040    2.3753    2.3613 C   0  0  0  0  0  0  0  0  0  0  0  0
   -4.4521    2.1619    2.5091 C   0  0  0  0  0  0  0  0  0  0  0  0
   -3.7180    0.9878    3.0732 C   0  0  0  0  0  0  0  0  0  0  0  0
   -3.4285    0.0331    1.9626 C   0  0  0  0  0  0  0  0  0  0  0  0
   -2.1603   -0.0454    1.4015 C   0  0  0  0  0  0  0  0  0  0  0  0
   -1.9038   -0.8997    0.3973 N   0  0  0  0  0  0  0  0  0  0  0  0
   -0.5611   -0.9811   -0.2030 C   0  0  0  0  0  0  0  0  0  0  0  0
    0.1976   -2.0054    0.5367 C   0  0  0  0  0  0  0  0  0  0  0  0
   -0.0514   -3.2519    0.3064 O   0  0  0  0  0  0  0  0  0  0  0  0
    1.1824   -1.6908    1.4884 N   0  0  0  0  0  0  0  0  0  0  0  0
    1.8432   -2.7660    2.2421 C   0  0  0  0  0  0  0  0  0  0  0  0
    1.0846   -3.0281    3.4891 C   0  0  0  0  0  0  0  0  0  0  0  0
    0.0522   -2.3528    3.7484 O   0  0  0  0  0  0  0  0  0  0  0  0
    1.4719   -3.9959    4.3881 O   0  0  0  0  0  0  0  0  0  0  0  0
    1.6159   -0.3617    1.7438 C   0  0  0  0  0  0  0  0  0  0  0  0
    2.8862   -0.0759    1.0390 C   0  0  0  0  0  0  0  0  0  0  0  0
    2.9339    0.3550   -0.2518 C   0  0  0  0  0  0  0  0  0  0  0  0
    4.1480    0.6298   -0.8789 C   0  0  0  0  0  0  0  0  0  0  0  0
    5.3203    0.4656   -0.1906 C   0  0  0  0  0  0  0  0  0  0  0  0
    6.5844    0.7508   -0.8330 C   0  0  0  0  0  0  0  0  0  0  0  0
    6.8032    0.5710   -2.1795 C   0  0  0  0  0  0  0  0  0  0  0  0
    8.0444    0.8730   -2.6812 C   0  0  0  0  0  0  0  0  0  0  0  0
    9.0766    1.3461   -1.9004 C   0  0  0  0  0  0  0  0  0  0  0  0
   10.4033    1.6599   -2.4892 C   0  0  0  0  0  0  0  0  0  0  0  0
   10.2491    2.2594   -3.7295 F   0  0  0  0  0  0  0  0  0  0  0  0
   11.1007    0.4812   -2.6664 F   0  0  0  0  0  0  0  0  0  0  0  0
   11.1404    2.4636   -1.6503 F   0  0  0  0  0  0  0  0  0  0  0  0
    8.8244    1.5135   -0.5621 C   0  0  0  0  0  0  0  0  0  0  0  0
    7.5992    1.2256   -0.0118 C   0  0  0  0  0  0  0  0  0  0  0  0
    5.2807    0.0338    1.1043 C   0  0  0  0  0  0  0  0  0  0  0  0
    4.0908   -0.2354    1.7201 C   0  0  0  0  0  0  0  0  0  0  0  0
   -2.8370   -1.7176   -0.1204 C   0  0  0  0  0  0  0  0  0  0  0  0
   -2.5180   -2.8597   -1.4635 S   0  0  0  0  0  0  0  0  0  0  0  0
   -2.8628   -1.9645   -3.0139 C   0  0  0  0  0  0  0  0  0  0  0  0
   -4.3171   -1.6305   -3.1131 C   0  0  0  0  0  0  0  0  0  0  0  0
   -4.8365   -0.4647   -2.6209 C   0  0  0  0  0  0  0  0  0  0  0  0
   -6.1739   -0.2118   -2.7409 C   0  0  0  0  0  0  0  0  0  0  0  0
   -7.0638   -1.0869   -3.3467 C   0  0  0  0  0  0  0  0  0  0  0  0
   -8.3788   -0.7822   -3.4355 F   0  0  0  0  0  0  0  0  0  0  0  0
   -6.5254   -2.2628   -3.8403 C   0  0  0  0  0  0  0  0  0  0  0  0
   -5.1740   -2.5203   -3.7208 C   0  0  0  0  0  0  0  0  0  0  0  0
   -4.0763   -1.6471    0.4202 N   0  0  0  0  0  0  0  0  0  0  0  0
   -4.3792   -0.8081    1.4260 C   0  0  0  0  0  0  0  0  0  0  0  0
   -5.5498   -0.7560    1.9215 O   0  0  0  0  0  0  0  0  0  0  0  0
   -3.8633    3.3241    1.9969 C   0  0  0  0  0  0  0  0  0  0  0  0
   -4.8611    4.1256    1.5921 N   0  0  0  0  0  0  0  0  0  0  0  0
   -7.6885    3.7015    0.5267 H   0  0  0  0  0  0  0  0  0  0  0  0
   -7.2152    5.2352    1.2737 H   0  0  0  0  0  0  0  0  0  0  0  0
   -8.0986    3.9291    2.2467 H   0  0  0  0  0  0  0  0  0  0  0  0
   -6.5779    1.6735    2.6560 H   0  0  0  0  0  0  0  0  0  0  0  0
   -2.7647    1.3688    3.4692 H   0  0  0  0  0  0  0  0  0  0  0  0
   -4.3231    0.4431    3.8109 H   0  0  0  0  0  0  0  0  0  0  0  0
   -1.4200    0.6159    1.8234 H   0  0  0  0  0  0  0  0  0  0  0  0
   -0.6592   -1.3315   -1.2708 H   0  0  0  0  0  0  0  0  0  0  0  0
   -0.0720   -0.0161   -0.1942 H   0  0  0  0  0  0  0  0  0  0  0  0
    2.9078   -2.5830    2.3932 H   0  0  0  0  0  0  0  0  0  0  0  0
    1.7715   -3.6785    1.5926 H   0  0  0  0  0  0  0  0  0  0  0  0
    0.9981   -4.1266    5.2738 H   0  0  0  0  0  0  0  0  0  0  0  0
    0.9064    0.4332    1.4708 H   0  0  0  0  0  0  0  0  0  0  0  0
    1.7858   -0.1913    2.8587 H   0  0  0  0  0  0  0  0  0  0  0  0
    2.0681    0.5075   -0.8533 H   0  0  0  0  0  0  0  0  0  0  0  0
    4.1566    0.9718   -1.9032 H   0  0  0  0  0  0  0  0  0  0  0  0
    6.0060    0.1981   -2.8195 H   0  0  0  0  0  0  0  0  0  0  0  0
    8.2549    0.7418   -3.7502 H   0  0  0  0  0  0  0  0  0  0  0  0
    9.6219    1.8834    0.0700 H   0  0  0  0  0  0  0  0  0  0  0  0
    7.4722    1.3809    1.0341 H   0  0  0  0  0  0  0  0  0  0  0  0
    6.1983   -0.0958    1.6413 H   0  0  0  0  0  0  0  0  0  0  0  0
    4.0492   -0.5695    2.7580 H   0  0  0  0  0  0  0  0  0  0  0  0
   -2.3245   -0.9978   -2.9492 H   0  0  0  0  0  0  0  0  0  0  0  0
   -2.5084   -2.5171   -3.9002 H   0  0  0  0  0  0  0  0  0  0  0  0
   -4.2017    0.2494   -2.1428 H   0  0  0  0  0  0  0  0  0  0  0  0
   -6.5927    0.7206   -2.3486 H   0  0  0  0  0  0  0  0  0  0  0  0
   -7.2055   -2.9699   -4.3236 H   0  0  0  0  0  0  0  0  0  0  0  0
   -4.7837   -3.4606   -4.1224 H   0  0  0  0  0  0  0  0  0  0  0  0
   -2.7996    3.5127    1.9487 H   0  0  0  0  0  0  0  0  0  0  0  0
  1  2  1  0
  2  3  1  0
  3  4  2  0
  4  5  1  0
  5  6  1  0
  6  7  2  0
  7  8  1  0
  8  9  1  0
  9 10  1  0
 10 11  2  0
 10 12  1  0
 12 13  1  0
 13 14  1  0
 14 15  2  0
 14 16  1  0
 12 17  1  0
 17 18  1  0
 18 19  2  0
 19 20  1  0
 20 21  2  0
 21 22  1  0
 22 23  2  0
 23 24  1  0
 24 25  2  0
 25 26  1  0
 26 27  1  0
 26 28  1  0
 26 29  1  0
 25 30  1  0
 30 31  2  0
 21 32  1  0
 32 33  2  0
  8 34  1  0
 34 35  1  0
 35 36  1  0
 36 37  1  0
 37 38  2  0
 38 39  1  0
 39 40  2  0
 40 41  1  0
 40 42  1  0
 42 43  2  0
 34 44  2  0
 44 45  1  0
 45 46  2  0
  4 47  1  0
 47 48  2  0
 48  2  1  0
 45  6  1  0
 33 18  1  0
 43 37  1  0
 31 22  1  0
  1 49  1  0
  1 50  1  0
  1 51  1  0
  3 52  1  0
  5 53  1  0
  5 54  1  0
  7 55  1  0
  9 56  1  0
  9 57  1  0
 13 58  1  0
 13 59  1  0
 16 60  1  0
 17 61  1  0
 17 62  1  0
 19 63  1  0
 20 64  1  0
 23 65  1  0
 24 66  1  0
 30 67  1  0
 31 68  1  0
 32 69  1  0
 33 70  1  0
 36 71  1  0
 36 72  1  0
 38 73  1  0
 39 74  1  0
 42 75  1  0
 43 76  1  0
 47 77  1  0
M  END
$$$$
