
     RDKit          3D

 60 62  0  0  0  0  0  0  0  0999 V2000
   -4.0528    3.0844    3.1249 C   0  0  0  0  0  0  0  0  0  0  0  0
   -4.6828    3.3286    1.7795 C   0  0  0  0  0  0  0  0  0  0  0  0
   -4.5141    2.1478    0.8514 C   0  0  0  0  0  0  0  0  0  0  0  0
   -5.1232    0.8800    1.3572 C   0  0  0  0  0  0  0  0  0  0  0  0
   -4.8647   -0.1856    0.3220 C   0  0  0  0  0  0  0  0  0  0  0  0
   -3.7348   -0.9133    0.0204 C   0  0  0  0  0  0  0  0  0  0  0  0
   -2.5018   -0.7911    0.7161 C   0  0  0  0  0  0  0  0  0  0  0  0
   -2.5672   -0.2324    1.8627 O   0  0  0  0  0  0  0  0  0  0  0  0
   -1.1091   -1.1186    0.5218 C   0  0  0  0  0  0  0  0  0  0  0  0
   -0.2443   -1.4380    1.5384 C   0  0  0  0  0  0  0  0  0  0  0  0
    1.0970   -1.7105    1.2585 C   0  0  0  0  0  0  0  0  0  0  0  0
    2.2240   -2.1792    3.0028 I   0  0  0  0  0  0  0  0  0  0  0  0
    1.6216   -1.6755   -0.0315 C   0  0  0  0  0  0  0  0  0  0  0  0
    2.9497   -1.9833    0.0021 O   0  0  0  0  0  0  0  0  0  0  0  0
    4.0397   -1.1427    0.1903 C   0  0  0  0  0  0  0  0  0  0  0  0
    4.2537   -0.0579   -0.7987 C   0  0  0  0  0  0  0  0  0  0  0  0
    5.4021    0.7690   -0.5154 N   0  0  0  0  0  0  0  0  0  0  0  0
    5.3208    1.5846    0.6352 C   0  0  0  0  0  0  0  0  0  0  0  0
    6.5979    2.3827    0.7751 C   0  0  0  0  0  0  0  0  0  0  0  0
    6.6587    0.2304   -0.8766 C   0  0  0  0  0  0  0  0  0  0  0  0
    6.6935    0.1904   -2.4123 C   0  0  0  0  0  0  0  0  0  0  0  0
    0.7560   -1.3564   -1.0483 C   0  0  0  0  0  0  0  0  0  0  0  0
    1.5809   -1.3395   -2.9767 I   0  0  0  0  0  0  0  0  0  0  0  0
   -0.5521   -1.0961   -0.7249 C   0  0  0  0  0  0  0  0  0  0  0  0
   -4.1229   -1.7239   -1.0171 C   0  0  0  0  0  0  0  0  0  0  0  0
   -5.4418   -1.4908   -1.3295 C   0  0  0  0  0  0  0  0  0  0  0  0
   -5.8110   -0.5638   -0.4894 O   0  0  0  0  0  0  0  0  0  0  0  0
   -6.1566   -2.1399   -2.3308 C   0  0  0  0  0  0  0  0  0  0  0  0
   -5.4541   -3.0909   -3.0490 C   0  0  0  0  0  0  0  0  0  0  0  0
   -4.1315   -3.3620   -2.7729 C   0  0  0  0  0  0  0  0  0  0  0  0
   -3.4867   -2.6818   -1.7687 C   0  0  0  0  0  0  0  0  0  0  0  0
   -4.1520    4.0224    3.7156 H   0  0  0  0  0  0  0  0  0  0  0  0
   -4.5978    2.3126    3.7118 H   0  0  0  0  0  0  0  0  0  0  0  0
   -2.9931    2.8429    3.0389 H   0  0  0  0  0  0  0  0  0  0  0  0
   -4.1208    4.1666    1.3032 H   0  0  0  0  0  0  0  0  0  0  0  0
   -5.7243    3.6522    1.8737 H   0  0  0  0  0  0  0  0  0  0  0  0
   -3.4643    2.0130    0.6129 H   0  0  0  0  0  0  0  0  0  0  0  0
   -5.0369    2.4009   -0.0955 H   0  0  0  0  0  0  0  0  0  0  0  0
   -4.7026    0.5321    2.3252 H   0  0  0  0  0  0  0  0  0  0  0  0
   -6.2070    0.9594    1.5272 H   0  0  0  0  0  0  0  0  0  0  0  0
   -0.6651   -1.4635    2.5448 H   0  0  0  0  0  0  0  0  0  0  0  0
    3.9725   -0.6418    1.2045 H   0  0  0  0  0  0  0  0  0  0  0  0
    4.9590   -1.7712    0.2846 H   0  0  0  0  0  0  0  0  0  0  0  0
    3.3815    0.6047   -0.9235 H   0  0  0  0  0  0  0  0  0  0  0  0
    4.4680   -0.5074   -1.8022 H   0  0  0  0  0  0  0  0  0  0  0  0
    4.4824    2.3122    0.6284 H   0  0  0  0  0  0  0  0  0  0  0  0
    5.1929    0.9840    1.5712 H   0  0  0  0  0  0  0  0  0  0  0  0
    6.8920    2.8347   -0.2024 H   0  0  0  0  0  0  0  0  0  0  0  0
    7.4222    1.8267    1.2546 H   0  0  0  0  0  0  0  0  0  0  0  0
    6.3557    3.2596    1.4453 H   0  0  0  0  0  0  0  0  0  0  0  0
    6.8494   -0.7952   -0.5004 H   0  0  0  0  0  0  0  0  0  0  0  0
    7.4613    0.9214   -0.5645 H   0  0  0  0  0  0  0  0  0  0  0  0
    6.2630   -0.7645   -2.7552 H   0  0  0  0  0  0  0  0  0  0  0  0
    7.7030    0.3803   -2.8128 H   0  0  0  0  0  0  0  0  0  0  0  0
    6.0230    0.9941   -2.8110 H   0  0  0  0  0  0  0  0  0  0  0  0
   -1.2126   -0.8438   -1.5699 H   0  0  0  0  0  0  0  0  0  0  0  0
   -7.1782   -1.8993   -2.5097 H   0  0  0  0  0  0  0  0  0  0  0  0
   -5.9312   -3.6349   -3.8370 H   0  0  0  0  0  0  0  0  0  0  0  0
   -3.6194   -4.1144   -3.3594 H   0  0  0  0  0  0  0  0  0  0  0  0
   -2.4646   -2.9084   -1.5521 H   0  0  0  0  0  0  0  0  0  0  0  0
  1  2  1  0
  2  3  1  0
  3  4  1  0
  4  5  1  0
  5  6  2  0
  6  7  1  0
  7  8  2  0
  7  9  1  0
  9 10  2  0
 10 11  1  0
 11 12  1  0
 11 13  2  0
 13 14  1  0
 14 15  1  0
 15 16  1  0
 16 17  1  0
 17 18  1  0
 18 19  1  0
 17 20  1  0
 20 21  1  0
 13 22  1  0
 22 23  1  0
 22 24  2  0
  6 25  1  0
 25 26  2  0
 26 27  1  0
 26 28  1  0
 28 29  2  0
 29 30  1  0
 30 31  2  0
 27  5  1  0
 24  9  1  0
 31 25  1  0
  1 32  1  0
  1 33  1  0
  1 34  1  0
  2 35  1  0
  2 36  1  0
  3 37  1  0
  3 38  1  0
  4 39  1  0
  4 40  1  0
 10 41  1  0
 15 42  1  0
 15 43  1  0
 16 44  1  0
 16 45  1  0
 18 46  1  0
 18 47  1  0
 19 48  1  0
 19 49  1  0
 19 50  1  0
 20 51  1  0
 20 52  1  0
 21 53  1  0
 21 54  1  0
 21 55  1  0
 24 56  1  0
 28 57  1  0
 29 58  1  0
 30 59  1  0
 31 60  1  0
M  END
$$$$
