
     RDKit          3D

 15 14  0  0  0  0  0  0  0  0999 V2000
   -0.5263   -0.5126    0.4385 C   0  0  1  0  0  0  0  0  0  0  0  0
   -0.8626   -0.9469   -0.9067 N   0  0  0  0  0  0  0  0  0  0  0  0
    0.9684   -0.5894    0.6606 C   0  0  0  0  0  0  0  0  0  0  0  0
    1.7655    0.4746   -0.5283 S   0  0  0  0  0  0  0  0  0  0  0  0
    1.5686    0.0601   -1.9570 O   0  0  0  0  0  0  0  0  0  0  0  0
   -0.9944    0.8934    0.6021 C   0  0  0  0  0  0  0  0  0  0  0  0
   -1.6307    1.5653   -0.4302 O   0  0  0  0  0  0  0  0  0  0  0  0
   -0.8804    1.6064    1.6304 O   0  0  0  0  0  0  0  0  0  0  0  0
   -1.0138   -1.1542    1.1869 H   0  0  0  0  0  0  0  0  0  0  0  0
   -1.8533   -1.1911   -1.0167 H   0  0  0  0  0  0  0  0  0  0  0  0
   -0.2061   -1.6731   -1.2618 H   0  0  0  0  0  0  0  0  0  0  0  0
    1.2905   -1.6436    0.6071 H   0  0  0  0  0  0  0  0  0  0  0  0
    1.1797   -0.1628    1.6628 H   0  0  0  0  0  0  0  0  0  0  0  0
    3.0858    0.7390   -0.2586 H   0  0  0  0  0  0  0  0  0  0  0  0
   -1.8910    2.5350   -0.4291 H   0  0  0  0  0  0  0  0  0  0  0  0
  1  2  1  0
  1  3  1  0
  3  4  1  0
  4  5  2  0
  1  6  1  0
  6  7  1  0
  6  8  2  0
  1  9  1  1
  2 10  1  0
  2 11  1  0
  3 12  1  0
  3 13  1  0
  4 14  1  0
  7 15  1  0
M  END
$$$$
