@<TRIPOS>MOLECULE
*****
 62 64 0 0 0
SMALL
GASTEIGER

@<TRIPOS>ATOM
      1 C           7.3630    2.8732    0.1386 C.3     1  UNL1       -0.0524
      2 C           6.4984    1.6170    0.3648 C.3     1  UNL1       -0.0040
      3 N           6.9777    0.5489   -0.3935 N.3     1  UNL1       -0.3028
      4 C           8.2196   -0.0375   -0.0942 C.3     1  UNL1       -0.0040
      5 C           8.3404   -0.8059    1.1653 C.3     1  UNL1       -0.0524
      6 C           6.1455   -0.1220   -1.3029 C.3     1  UNL1       -0.0007
      7 C           5.0277   -0.9399   -0.8044 C.3     1  UNL1       -0.0332
      8 C           3.9443   -0.2382   -0.0334 C.3     1  UNL1        0.0116
      9 C           2.9453   -1.3201    0.3083 C.2     1  UNL1        0.1632
     10 O           3.3895   -2.4351    0.6804 O.2     1  UNL1       -0.2921
     11 C           1.5205   -1.0924    0.2043 C.ar    1  UNL1        0.0176
     12 C           0.9356    0.0947   -0.1607 C.ar    1  UNL1       -0.0478
     13 C          -0.4430    0.2185   -0.3010 C.ar    1  UNL1       -0.0192
     14 C          -1.2886   -0.8665   -0.0743 C.ar    1  UNL1        0.1216
     15 O          -2.6578   -0.7264   -0.2196 O.3     1  UNL1       -0.4807
     16 C          -3.5834   -1.7585   -0.1034 C.3     1  UNL1        0.1661
     17 C          -4.5607   -1.6935   -1.2644 C.3     1  UNL1        0.0177
     18 C          -5.6070   -0.7449   -0.7841 C.ar    1  UNL1       -0.0292
     19 C          -6.5504   -0.0049   -1.4679 C.ar    1  UNL1       -0.0123
     20 C          -7.4228    0.8263   -0.7960 C.ar    1  UNL1        0.1618
     21 O          -8.3734    1.5767   -1.4551 O.3     1  UNL1       -0.4914
     22 C          -8.5953    1.6144   -2.8229 C.3     1  UNL1        0.0790
     23 C          -7.3724    0.9380    0.5994 C.ar    1  UNL1        0.1622
     24 O          -8.2392    1.7643    1.2851 O.3     1  UNL1       -0.4914
     25 C          -8.1385    1.8396    2.6897 C.3     1  UNL1        0.0790
     26 C          -6.4276    0.1934    1.2612 C.ar    1  UNL1       -0.0054
     27 C          -5.5481   -0.6393    0.6112 C.ar    1  UNL1        0.0282
     28 C          -4.4811   -1.5004    1.0705 C.2     1  UNL1        0.2040
     29 O          -4.3263   -1.9501    2.2172 O.2     1  UNL1       -0.2881
     30 C          -0.7012   -2.0581    0.2950 C.ar    1  UNL1       -0.0192
     31 C           0.6652   -2.1524    0.4259 C.ar    1  UNL1       -0.0478
     32 H           8.3630    2.7643    0.5521 H       1  UNL1        0.0242
     33 H           7.4889    2.9158   -0.9795 H       1  UNL1        0.0242
     34 H           6.8827    3.7768    0.5276 H       1  UNL1        0.0242
     35 H           5.5066    1.9365   -0.0940 H       1  UNL1        0.0424
     36 H           6.3007    1.4371    1.4207 H       1  UNL1        0.0424
     37 H           8.9778    0.8029   -0.0328 H       1  UNL1        0.0424
     38 H           8.6186   -0.6635   -0.9369 H       1  UNL1        0.0424
     39 H           7.3477   -1.2524    1.4676 H       1  UNL1        0.0242
     40 H           8.9779   -1.7170    0.9680 H       1  UNL1        0.0242
     41 H           8.8431   -0.2894    1.9879 H       1  UNL1        0.0242
     42 H           5.7468    0.6214   -2.0395 H       1  UNL1        0.0427
     43 H           6.8063   -0.8163   -1.9106 H       1  UNL1        0.0427
     44 H           4.5033   -1.3678   -1.7143 H       1  UNL1        0.0282
     45 H           5.3542   -1.8518   -0.2309 H       1  UNL1        0.0282
     46 H           4.2747    0.2132    0.9211 H       1  UNL1        0.0345
     47 H           3.5118    0.5517   -0.6576 H       1  UNL1        0.0345
     48 H           1.5410    0.9535   -0.3483 H       1  UNL1        0.0626
     49 H          -0.8893    1.1717   -0.5970 H       1  UNL1        0.0654
     50 H          -3.1667   -2.7683   -0.0557 H       1  UNL1        0.0821
     51 H          -4.0798   -1.3452   -2.1962 H       1  UNL1        0.0354
     52 H          -5.0246   -2.6971   -1.4127 H       1  UNL1        0.0354
     53 H          -6.5698   -0.1177   -2.5525 H       1  UNL1        0.0658
     54 H          -7.7368    1.2356   -3.3832 H       1  UNL1        0.0660
     55 H          -8.8234    2.6748   -3.1343 H       1  UNL1        0.0660
     56 H          -9.4904    0.9866   -3.0895 H       1  UNL1        0.0660
     57 H          -7.0833    2.0323    3.0006 H       1  UNL1        0.0660
     58 H          -8.7560    2.7012    3.0065 H       1  UNL1        0.0660
     59 H          -8.4798    0.8974    3.1477 H       1  UNL1        0.0660
     60 H          -6.3688    0.2638    2.3369 H       1  UNL1        0.0662
     61 H          -1.3156   -2.9488    0.4968 H       1  UNL1        0.0654
     62 H           1.0833   -3.1204    0.7259 H       1  UNL1        0.0626
@<TRIPOS>BOND
     1     1     2    1
     2     2     3    1
     3     3     4    1
     4     4     5    1
     5     3     6    1
     6     6     7    1
     7     7     8    1
     8     8     9    1
     9     9    10    2
    10     9    11    1
    11    11    12   ar
    12    12    13   ar
    13    13    14   ar
    14    14    15    1
    15    15    16    1
    16    16    17    1
    17    17    18    1
    18    18    19   ar
    19    19    20   ar
    20    20    21    1
    21    21    22    1
    22    20    23   ar
    23    23    24    1
    24    24    25    1
    25    23    26   ar
    26    26    27   ar
    27    27    28    1
    28    28    29    2
    29    14    30   ar
    30    30    31   ar
    31    31    11   ar
    32    28    16    1
    33    27    18   ar
    34     1    32    1
    35     1    33    1
    36     1    34    1
    37     2    35    1
    38     2    36    1
    39     4    37    1
    40     4    38    1
    41     5    39    1
    42     5    40    1
    43     5    41    1
    44     6    42    1
    45     6    43    1
    46     7    44    1
    47     7    45    1
    48     8    46    1
    49     8    47    1
    50    12    48    1
    51    13    49    1
    52    16    50    1
    53    17    51    1
    54    17    52    1
    55    19    53    1
    56    22    54    1
    57    22    55    1
    58    22    56    1
    59    25    57    1
    60    25    58    1
    61    25    59    1
    62    26    60    1
    63    30    61    1
    64    31    62    1
