
     RDKit          3D

 22 22  0  0  0  0  0  0  0  0999 V2000
    2.0176   -0.8029   -0.3980 C   0  0  0  0  0  0  0  0  0  0  0  0
    0.6219   -0.7179   -0.0516 N   0  0  0  0  0  0  0  0  0  0  0  0
   -0.2384   -1.8098    0.2246 C   0  0  0  0  0  0  0  0  0  0  0  0
    0.1128   -2.9598    0.5850 O   0  0  0  0  0  0  0  0  0  0  0  0
   -1.6304   -1.3472    0.0105 C   0  0  0  0  0  0  0  0  0  0  0  0
   -1.5851    0.1579    0.0433 C   0  0  0  0  0  0  0  0  0  0  0  0
   -0.1213    0.5297    0.0670 C   0  0  0  0  0  0  0  0  0  0  0  0
    0.1207    1.4287   -1.1179 C   0  0  0  0  0  0  0  0  0  0  0  0
    0.2909    1.1990    1.3709 C   0  0  0  0  0  0  0  0  0  0  0  0
    2.4179   -1.8263   -0.1959 H   0  0  0  0  0  0  0  0  0  0  0  0
    2.6289   -0.0634    0.1952 H   0  0  0  0  0  0  0  0  0  0  0  0
    2.1315   -0.6464   -1.4709 H   0  0  0  0  0  0  0  0  0  0  0  0
   -2.2277   -1.6552    0.8932 H   0  0  0  0  0  0  0  0  0  0  0  0
   -2.0667   -1.7423   -0.9302 H   0  0  0  0  0  0  0  0  0  0  0  0
   -2.0741    0.6338    0.8872 H   0  0  0  0  0  0  0  0  0  0  0  0
   -2.1121    0.5207   -0.8817 H   0  0  0  0  0  0  0  0  0  0  0  0
   -0.7969    1.5637   -1.7623 H   0  0  0  0  0  0  0  0  0  0  0  0
    0.8630    0.9945   -1.7880 H   0  0  0  0  0  0  0  0  0  0  0  0
    0.3505    2.4582   -0.7712 H   0  0  0  0  0  0  0  0  0  0  0  0
    1.0035    2.0426    1.1900 H   0  0  0  0  0  0  0  0  0  0  0  0
    0.8880    0.4850    1.9987 H   0  0  0  0  0  0  0  0  0  0  0  0
   -0.5945    1.5574    1.9019 H   0  0  0  0  0  0  0  0  0  0  0  0
  1  2  1  0
  2  3  1  0
  3  4  2  0
  3  5  1  0
  5  6  1  0
  6  7  1  0
  7  8  1  0
  7  9  1  0
  7  2  1  0
  1 10  1  0
  1 11  1  0
  1 12  1  0
  5 13  1  0
  5 14  1  0
  6 15  1  0
  6 16  1  0
  8 17  1  0
  8 18  1  0
  8 19  1  0
  9 20  1  0
  9 21  1  0
  9 22  1  0
M  END
$$$$
