@<TRIPOS>MOLECULE
*****
 22 22 0 0 0
SMALL
GASTEIGER

@<TRIPOS>ATOM
      1 C           2.0176   -0.8029   -0.3980 C.3     1  UNL1        0.0037
      2 N           0.6219   -0.7179   -0.0516 N.am    1  UNL1       -0.2992
      3 C          -0.2384   -1.8098    0.2246 C.2     1  UNL1        0.2158
      4 O           0.1128   -2.9598    0.5850 O.2     1  UNL1       -0.2756
      5 C          -1.6304   -1.3472    0.0105 C.3     1  UNL1        0.0261
      6 C          -1.5851    0.1579    0.0433 C.3     1  UNL1       -0.0237
      7 C          -0.1213    0.5297    0.0670 C.3     1  UNL1        0.0319
      8 C           0.1207    1.4287   -1.1179 C.3     1  UNL1       -0.0438
      9 C           0.2909    1.1990    1.3709 C.3     1  UNL1       -0.0438
     10 H           2.4179   -1.8263   -0.1959 H       1  UNL1        0.0429
     11 H           2.6289   -0.0634    0.1952 H       1  UNL1        0.0429
     12 H           2.1315   -0.6464   -1.4709 H       1  UNL1        0.0429
     13 H          -2.2277   -1.6552    0.8932 H       1  UNL1        0.0359
     14 H          -2.0667   -1.7423   -0.9302 H       1  UNL1        0.0359
     15 H          -2.0741    0.6338    0.8872 H       1  UNL1        0.0290
     16 H          -2.1121    0.5207   -0.8817 H       1  UNL1        0.0290
     17 H          -0.7969    1.5637   -1.7623 H       1  UNL1        0.0250
     18 H           0.8630    0.9945   -1.7880 H       1  UNL1        0.0250
     19 H           0.3505    2.4582   -0.7712 H       1  UNL1        0.0250
     20 H           1.0035    2.0426    1.1900 H       1  UNL1        0.0250
     21 H           0.8880    0.4850    1.9987 H       1  UNL1        0.0250
     22 H          -0.5945    1.5574    1.9019 H       1  UNL1        0.0250
@<TRIPOS>BOND
     1     1     2    1
     2     2     3   am
     3     3     4    2
     4     3     5    1
     5     5     6    1
     6     6     7    1
     7     7     8    1
     8     7     9    1
     9     7     2    1
    10     1    10    1
    11     1    11    1
    12     1    12    1
    13     5    13    1
    14     5    14    1
    15     6    15    1
    16     6    16    1
    17     8    17    1
    18     8    18    1
    19     8    19    1
    20     9    20    1
    21     9    21    1
    22     9    22    1
