
     RDKit          3D

 41 44  0  0  0  0  0  0  0  0999 V2000
   -4.4776    1.7018   -0.8419 C   0  0  0  0  0  0  0  0  0  0  0  0
   -3.5147    1.3975    0.1867 N   0  0  0  0  0  0  0  0  0  0  0  0
   -3.3246    2.1622    1.3039 C   0  0  0  0  0  0  0  0  0  0  0  0
   -2.3365    1.6073    2.0486 C   0  0  0  0  0  0  0  0  0  0  0  0
   -1.9416    0.5195    1.3791 N   0  0  0  0  0  0  0  0  0  0  0  0
   -2.6617    0.3755    0.2246 C   0  0  0  0  0  0  0  0  0  0  0  0
   -2.4120   -0.7681   -0.6635 C   0  0  2  0  0  0  0  0  0  0  0  0
   -1.3688   -0.4916   -1.6669 C   0  0  0  0  0  0  0  0  0  0  0  0
   -0.0489   -0.1615   -1.2444 N   0  0  0  0  0  0  0  0  0  0  0  0
    0.8763   -0.9811   -0.5667 C   0  0  0  0  0  0  0  0  0  0  0  0
    0.5646   -2.1574   -0.2894 O   0  0  0  0  0  0  0  0  0  0  0  0
    2.2099   -0.4916   -0.1716 C   0  0  0  0  0  0  0  0  0  0  0  0
    3.1802   -1.2097    0.4887 C   0  0  0  0  0  0  0  0  0  0  0  0
    4.2696   -0.3829    0.6633 C   0  0  0  0  0  0  0  0  0  0  0  0
    5.5127   -0.4859    1.2257 C   0  0  0  0  0  0  0  0  0  0  0  0
    6.3909    0.5869    1.2255 C   0  0  0  0  0  0  0  0  0  0  0  0
    7.9709    0.3938    1.9619 Cl  0  0  0  0  0  0  0  0  0  0  0  0
    6.0314    1.7938    0.6543 C   0  0  0  0  0  0  0  0  0  0  0  0
    4.7698    1.9001    0.0829 C   0  0  0  0  0  0  0  0  0  0  0  0
    3.9102    0.8187    0.0940 C   0  0  0  0  0  0  0  0  0  0  0  0
    2.7044    0.6985   -0.3751 O   0  0  0  0  0  0  0  0  0  0  0  0
   -3.6030   -1.2351   -1.3919 N   0  0  0  0  0  0  0  0  0  0  0  0
   -3.3432   -2.6292   -1.6992 C   0  0  0  0  0  0  0  0  0  0  0  0
   -3.8117   -3.3102   -2.6388 O   0  0  0  0  0  0  0  0  0  0  0  0
   -2.4171   -3.0763   -0.6802 N   0  0  0  0  0  0  0  0  0  0  0  0
   -2.1611   -1.9655    0.1813 C   0  0  0  0  0  0  0  0  0  0  0  0
   -1.8117   -1.9523    1.3720 O   0  0  0  0  0  0  0  0  0  0  0  0
   -5.4197    1.1430   -0.6945 H   0  0  0  0  0  0  0  0  0  0  0  0
   -4.0603    1.5301   -1.8601 H   0  0  0  0  0  0  0  0  0  0  0  0
   -4.7297    2.8066   -0.7530 H   0  0  0  0  0  0  0  0  0  0  0  0
   -3.8661    3.0608    1.5603 H   0  0  0  0  0  0  0  0  0  0  0  0
   -1.8948    1.9064    2.9925 H   0  0  0  0  0  0  0  0  0  0  0  0
   -1.7512    0.3805   -2.2886 H   0  0  0  0  0  0  0  0  0  0  0  0
   -1.3050   -1.3167   -2.4379 H   0  0  0  0  0  0  0  0  0  0  0  0
    0.2943    0.8351   -1.4637 H   0  0  0  0  0  0  0  0  0  0  0  0
    3.1496   -2.2379    0.8326 H   0  0  0  0  0  0  0  0  0  0  0  0
    5.7814   -1.4470    1.6731 H   0  0  0  0  0  0  0  0  0  0  0  0
    6.6874    2.6492    0.6353 H   0  0  0  0  0  0  0  0  0  0  0  0
    4.4313    2.8244   -0.3813 H   0  0  0  0  0  0  0  0  0  0  0  0
   -4.4435   -0.7495   -1.6504 H   0  0  0  0  0  0  0  0  0  0  0  0
   -2.0301   -4.0424   -0.6184 H   0  0  0  0  0  0  0  0  0  0  0  0
  1  2  1  0
  2  3  1  0
  3  4  2  0
  4  5  1  0
  5  6  2  0
  6  7  1  0
  7  8  1  6
  8  9  1  0
  9 10  1  0
 10 11  2  0
 10 12  1  0
 12 13  2  0
 13 14  1  0
 14 15  2  0
 15 16  1  0
 16 17  1  0
 16 18  2  0
 18 19  1  0
 19 20  2  0
 20 21  1  0
  7 22  1  0
 22 23  1  0
 23 24  2  0
 23 25  1  0
 25 26  1  0
 26 27  2  0
  6  2  1  0
 26  7  1  0
 21 12  1  0
 20 14  1  0
  1 28  1  0
  1 29  1  0
  1 30  1  0
  3 31  1  0
  4 32  1  0
  8 33  1  0
  8 34  1  0
  9 35  1  0
 13 36  1  0
 15 37  1  0
 18 38  1  0
 19 39  1  0
 22 40  1  0
 25 41  1  0
M  END
$$$$
