@<TRIPOS>MOLECULE
*****
 41 44 0 0 0
SMALL
GASTEIGER

@<TRIPOS>ATOM
      1 C          -4.4776    1.7018   -0.8419 C.3     1  UNL1        0.0130
      2 N          -3.5147    1.3975    0.1867 N.ar    1  UNL1       -0.3352
      3 C          -3.3246    2.1622    1.3039 C.ar    1  UNL1        0.0240
      4 C          -2.3365    1.6073    2.0486 C.ar    1  UNL1        0.0458
      5 N          -1.9416    0.5195    1.3791 N.ar    1  UNL1       -0.2378
      6 C          -2.6617    0.3755    0.2246 C.ar    1  UNL1        0.1438
      7 C          -2.4120   -0.7681   -0.6635 C.3     1  UNL1        0.1860
      8 C          -1.3688   -0.4916   -1.6669 C.3     1  UNL1        0.0491
      9 N          -0.0489   -0.1615   -1.2444 N.am    1  UNL1       -0.3059
     10 C           0.8763   -0.9811   -0.5667 C.2     1  UNL1        0.2795
     11 O           0.5646   -2.1574   -0.2894 O.2     1  UNL1       -0.2668
     12 C           2.2099   -0.4916   -0.1716 C.ar    1  UNL1        0.1905
     13 C           3.1802   -1.2097    0.4887 C.ar    1  UNL1       -0.0034
     14 C           4.2696   -0.3829    0.6633 C.ar    1  UNL1        0.0223
     15 C           5.5127   -0.4859    1.2257 C.ar    1  UNL1       -0.0326
     16 C           6.3909    0.5869    1.2255 C.ar    1  UNL1        0.0418
     17 CL          7.9709    0.3938    1.9619 Cl      1  UNL1       -0.0835
     18 C           6.0314    1.7938    0.6543 C.ar    1  UNL1       -0.0399
     19 C           4.7698    1.9001    0.0829 C.ar    1  UNL1       -0.0174
     20 C           3.9102    0.8187    0.0940 C.ar    1  UNL1        0.1360
     21 O           2.7044    0.6985   -0.3751 O.2     1  UNL1       -0.4502
     22 N          -3.6030   -1.2351   -1.3919 N.am    1  UNL1       -0.2777
     23 C          -3.3432   -2.6292   -1.6992 C.2     1  UNL1        0.3071
     24 O          -3.8117   -3.3102   -2.6388 O.2     1  UNL1       -0.2524
     25 N          -2.4171   -3.0763   -0.6802 N.am    1  UNL1       -0.2380
     26 C          -2.1611   -1.9655    0.1813 C.2     1  UNL1        0.2531
     27 O          -1.8117   -1.9523    1.3720 O.2     1  UNL1       -0.2724
     28 H          -5.4197    1.1430   -0.6945 H       1  UNL1        0.0456
     29 H          -4.0603    1.5301   -1.8601 H       1  UNL1        0.0456
     30 H          -4.7297    2.8066   -0.7530 H       1  UNL1        0.0456
     31 H          -3.8661    3.0608    1.5603 H       1  UNL1        0.0825
     32 H          -1.8948    1.9064    2.9925 H       1  UNL1        0.0845
     33 H          -1.7512    0.3805   -2.2886 H       1  UNL1        0.0492
     34 H          -1.3050   -1.3167   -2.4379 H       1  UNL1        0.0492
     35 H           0.2943    0.8351   -1.4637 H       1  UNL1        0.1492
     36 H           3.1496   -2.2379    0.8326 H       1  UNL1        0.0663
     37 H           5.7814   -1.4470    1.6731 H       1  UNL1        0.0639
     38 H           6.6874    2.6492    0.6353 H       1  UNL1        0.0633
     39 H           4.4313    2.8244   -0.3813 H       1  UNL1        0.0655
     40 H          -4.4435   -0.7495   -1.6504 H       1  UNL1        0.1517
     41 H          -2.0301   -4.0424   -0.6184 H       1  UNL1        0.1591
@<TRIPOS>BOND
     1     1     2    1
     2     2     3   ar
     3     3     4   ar
     4     4     5   ar
     5     5     6   ar
     6     6     7    1
     7     7     8    1
     8     8     9    1
     9     9    10   am
    10    10    11    2
    11    10    12    1
    12    12    13   ar
    13    13    14   ar
    14    14    15   ar
    15    15    16   ar
    16    16    17    1
    17    16    18   ar
    18    18    19   ar
    19    19    20   ar
    20    20    21   ar
    21     7    22    1
    22    22    23   am
    23    23    24    2
    24    23    25   am
    25    25    26   am
    26    26    27    2
    27     6     2   ar
    28    26     7    1
    29    21    12   ar
    30    20    14   ar
    31     1    28    1
    32     1    29    1
    33     1    30    1
    34     3    31    1
    35     4    32    1
    36     8    33    1
    37     8    34    1
    38     9    35    1
    39    13    36    1
    40    15    37    1
    41    18    38    1
    42    19    39    1
    43    22    40    1
    44    25    41    1
