@<TRIPOS>MOLECULE
*****
 56 59 0 0 0
SMALL
GASTEIGER

@<TRIPOS>ATOM
      1 C          -1.6517   -2.0053   -2.3236 C.3     1  UNL1        0.0762
      2 C          -2.0826   -1.9965   -0.8915 C.3     1  UNL1        0.0433
      3 N          -2.6575   -0.6868   -0.6467 N.am    1  UNL1       -0.2713
      4 C          -3.9182   -0.4362   -0.0080 C.2     1  UNL1        0.3071
      5 O          -4.4399   -1.5558    0.3039 O.2     1  UNL1       -0.2523
      6 N          -4.3718    0.8884    0.1739 N.am    1  UNL1       -0.2693
      7 C          -5.6499    0.9470    0.8290 C.ar    1  UNL1        0.0349
      8 C          -5.6342    1.0156    2.2208 C.ar    1  UNL1       -0.0391
      9 C          -6.8416    1.0752    2.9244 C.ar    1  UNL1       -0.0416
     10 C          -8.0270    1.0639    2.2040 C.ar    1  UNL1        0.0411
     11 CL         -9.5814    1.1358    3.0129 Cl      1  UNL1       -0.0835
     12 C          -8.0091    0.9951    0.8216 C.ar    1  UNL1       -0.0416
     13 C          -6.8260    0.9355    0.1077 C.ar    1  UNL1       -0.0391
     14 C          -1.5840    0.0802   -1.2286 C.3     1  UNL1        0.1064
     15 C          -1.2824   -0.5577   -2.5698 C.3     1  UNL1        0.0022
     16 C          -0.3844   -0.0537   -0.3614 C.2     1  UNL1        0.2379
     17 O           0.1085   -0.5603    0.6864 O.2     1  UNL1       -0.2734
     18 N           0.6789    0.7172   -0.9545 N.am    1  UNL1       -0.2816
     19 C           2.0122    0.8521   -0.4250 C.ar    1  UNL1        0.0692
     20 C           2.9431   -0.0911   -0.8525 C.ar    1  UNL1       -0.0357
     21 C           4.2757   -0.1190   -0.4484 C.ar    1  UNL1       -0.0358
     22 C           4.6494    0.8724    0.4327 C.ar    1  UNL1        0.0523
     23 C           3.7580    1.8151    0.8725 C.ar    1  UNL1       -0.0006
     24 C           2.4437    1.8207    0.4571 C.ar    1  UNL1        0.1464
     25 F           1.5124    2.7056    0.8397 F       1  UNL1       -0.2035
     26 N           6.0221    0.8588    0.8607 N.ar    1  UNL1       -0.2841
     27 C           6.3171    0.0558    1.8971 C.ar    1  UNL1        0.0132
     28 C           7.6179   -0.0155    2.3717 C.ar    1  UNL1       -0.0449
     29 C           8.6417    0.7200    1.8107 C.ar    1  UNL1       -0.0552
     30 C           8.2986    1.5380    0.7422 C.ar    1  UNL1        0.0033
     31 C           6.9964    1.6015    0.2765 C.ar    1  UNL1        0.2557
     32 O           6.6513    2.3291   -0.6860 O.2     1  UNL1       -0.2673
     33 O          -0.5065   -2.7768   -2.5272 O.3     1  UNL1       -0.3781
     34 C          -0.6437   -3.7394   -3.5022 C.3     1  UNL1        0.0369
     35 H          -2.4457   -2.3481   -3.0139 H       1  UNL1        0.0612
     36 H          -1.2651   -2.2426   -0.1780 H       1  UNL1        0.0491
     37 H          -2.9090   -2.7612   -0.8093 H       1  UNL1        0.0491
     38 H          -3.7413    1.6476   -0.1800 H       1  UNL1        0.1564
     39 H          -4.7027    1.0249    2.7952 H       1  UNL1        0.0636
     40 H          -6.8801    1.1295    4.0063 H       1  UNL1        0.0633
     41 H          -8.9434    0.9854    0.2384 H       1  UNL1        0.0633
     42 H          -6.7579    0.8805   -0.9740 H       1  UNL1        0.0636
     43 H          -1.8312    1.1579   -1.3183 H       1  UNL1        0.0598
     44 H          -1.8837   -0.1078   -3.3852 H       1  UNL1        0.0313
     45 H          -0.1901   -0.4428   -2.7427 H       1  UNL1        0.0313
     46 H           0.8325    1.3200   -1.7925 H       1  UNL1        0.1549
     47 H           2.6499   -0.8781   -1.5509 H       1  UNL1        0.0638
     48 H           4.9426   -0.8805   -0.8206 H       1  UNL1        0.0639
     49 H           4.0669    2.5890    1.5658 H       1  UNL1        0.0668
     50 H           5.5713   -0.5535    2.3925 H       1  UNL1        0.0814
     51 H           7.8784   -0.6554    3.2052 H       1  UNL1        0.0632
     52 H           9.6679    0.6915    2.1523 H       1  UNL1        0.0620
     53 H           9.0007    2.1616    0.2168 H       1  UNL1        0.0672
     54 H           0.3456   -4.2805   -3.5594 H       1  UNL1        0.0524
     55 H          -0.8489   -3.3702   -4.5132 H       1  UNL1        0.0524
     56 H          -1.3923   -4.4965   -3.1629 H       1  UNL1        0.0524
@<TRIPOS>BOND
     1     1     2    1
     2     2     3    1
     3     3     4   am
     4     4     5    2
     5     4     6   am
     6     6     7    1
     7     7     8   ar
     8     8     9   ar
     9     9    10   ar
    10    10    11    1
    11    10    12   ar
    12    12    13   ar
    13     3    14    1
    14    14    15    1
    15    14    16    1
    16    16    17    2
    17    16    18   am
    18    18    19    1
    19    19    20   ar
    20    20    21   ar
    21    21    22   ar
    22    22    23   ar
    23    23    24   ar
    24    24    25    1
    25    22    26    1
    26    26    27   ar
    27    27    28   ar
    28    28    29   ar
    29    29    30   ar
    30    30    31   ar
    31    31    32    2
    32     1    33    1
    33    33    34    1
    34    15     1    1
    35    24    19   ar
    36    31    26   ar
    37    13     7   ar
    38     1    35    1
    39     2    36    1
    40     2    37    1
    41     6    38    1
    42     8    39    1
    43     9    40    1
    44    12    41    1
    45    13    42    1
    46    14    43    1
    47    15    44    1
    48    15    45    1
    49    18    46    1
    50    20    47    1
    51    21    48    1
    52    23    49    1
    53    27    50    1
    54    28    51    1
    55    29    52    1
    56    30    53    1
    57    34    54    1
    58    34    55    1
    59    34    56    1
