
     RDKit          3D

 56 59  0  0  0  0  0  0  0  0999 V2000
   -1.6517   -2.0053   -2.3236 C   0  0  1  0  0  0  0  0  0  0  0  0
   -2.0826   -1.9965   -0.8915 C   0  0  0  0  0  0  0  0  0  0  0  0
   -2.6575   -0.6868   -0.6467 N   0  0  0  0  0  0  0  0  0  0  0  0
   -3.9182   -0.4362   -0.0080 C   0  0  0  0  0  0  0  0  0  0  0  0
   -4.4399   -1.5558    0.3039 O   0  0  0  0  0  0  0  0  0  0  0  0
   -4.3718    0.8884    0.1739 N   0  0  0  0  0  0  0  0  0  0  0  0
   -5.6499    0.9470    0.8290 C   0  0  0  0  0  0  0  0  0  0  0  0
   -5.6342    1.0156    2.2208 C   0  0  0  0  0  0  0  0  0  0  0  0
   -6.8416    1.0752    2.9244 C   0  0  0  0  0  0  0  0  0  0  0  0
   -8.0270    1.0639    2.2040 C   0  0  0  0  0  0  0  0  0  0  0  0
   -9.5814    1.1358    3.0129 Cl  0  0  0  0  0  0  0  0  0  0  0  0
   -8.0091    0.9951    0.8216 C   0  0  0  0  0  0  0  0  0  0  0  0
   -6.8260    0.9355    0.1077 C   0  0  0  0  0  0  0  0  0  0  0  0
   -1.5840    0.0802   -1.2286 C   0  0  2  0  0  0  0  0  0  0  0  0
   -1.2824   -0.5577   -2.5698 C   0  0  0  0  0  0  0  0  0  0  0  0
   -0.3844   -0.0537   -0.3614 C   0  0  0  0  0  0  0  0  0  0  0  0
    0.1085   -0.5603    0.6864 O   0  0  0  0  0  0  0  0  0  0  0  0
    0.6789    0.7172   -0.9545 N   0  0  0  0  0  0  0  0  0  0  0  0
    2.0122    0.8521   -0.4250 C   0  0  0  0  0  0  0  0  0  0  0  0
    2.9431   -0.0911   -0.8525 C   0  0  0  0  0  0  0  0  0  0  0  0
    4.2757   -0.1190   -0.4484 C   0  0  0  0  0  0  0  0  0  0  0  0
    4.6494    0.8724    0.4327 C   0  0  0  0  0  0  0  0  0  0  0  0
    3.7580    1.8151    0.8725 C   0  0  0  0  0  0  0  0  0  0  0  0
    2.4437    1.8207    0.4571 C   0  0  0  0  0  0  0  0  0  0  0  0
    1.5124    2.7056    0.8397 F   0  0  0  0  0  0  0  0  0  0  0  0
    6.0221    0.8588    0.8607 N   0  0  0  0  0  0  0  0  0  0  0  0
    6.3171    0.0558    1.8971 C   0  0  0  0  0  0  0  0  0  0  0  0
    7.6179   -0.0155    2.3717 C   0  0  0  0  0  0  0  0  0  0  0  0
    8.6417    0.7200    1.8107 C   0  0  0  0  0  0  0  0  0  0  0  0
    8.2986    1.5380    0.7422 C   0  0  0  0  0  0  0  0  0  0  0  0
    6.9964    1.6015    0.2765 C   0  0  0  0  0  0  0  0  0  0  0  0
    6.6513    2.3291   -0.6860 O   0  0  0  0  0  0  0  0  0  0  0  0
   -0.5065   -2.7768   -2.5272 O   0  0  0  0  0  0  0  0  0  0  0  0
   -0.6437   -3.7394   -3.5022 C   0  0  0  0  0  0  0  0  0  0  0  0
   -2.4457   -2.3481   -3.0139 H   0  0  0  0  0  0  0  0  0  0  0  0
   -1.2651   -2.2426   -0.1780 H   0  0  0  0  0  0  0  0  0  0  0  0
   -2.9090   -2.7612   -0.8093 H   0  0  0  0  0  0  0  0  0  0  0  0
   -3.7413    1.6476   -0.1800 H   0  0  0  0  0  0  0  0  0  0  0  0
   -4.7027    1.0249    2.7952 H   0  0  0  0  0  0  0  0  0  0  0  0
   -6.8801    1.1295    4.0063 H   0  0  0  0  0  0  0  0  0  0  0  0
   -8.9434    0.9854    0.2384 H   0  0  0  0  0  0  0  0  0  0  0  0
   -6.7579    0.8805   -0.9740 H   0  0  0  0  0  0  0  0  0  0  0  0
   -1.8312    1.1579   -1.3183 H   0  0  0  0  0  0  0  0  0  0  0  0
   -1.8837   -0.1078   -3.3852 H   0  0  0  0  0  0  0  0  0  0  0  0
   -0.1901   -0.4428   -2.7427 H   0  0  0  0  0  0  0  0  0  0  0  0
    0.8325    1.3200   -1.7925 H   0  0  0  0  0  0  0  0  0  0  0  0
    2.6499   -0.8781   -1.5509 H   0  0  0  0  0  0  0  0  0  0  0  0
    4.9426   -0.8805   -0.8206 H   0  0  0  0  0  0  0  0  0  0  0  0
    4.0669    2.5890    1.5658 H   0  0  0  0  0  0  0  0  0  0  0  0
    5.5713   -0.5535    2.3925 H   0  0  0  0  0  0  0  0  0  0  0  0
    7.8784   -0.6554    3.2052 H   0  0  0  0  0  0  0  0  0  0  0  0
    9.6679    0.6915    2.1523 H   0  0  0  0  0  0  0  0  0  0  0  0
    9.0007    2.1616    0.2168 H   0  0  0  0  0  0  0  0  0  0  0  0
    0.3456   -4.2805   -3.5594 H   0  0  0  0  0  0  0  0  0  0  0  0
   -0.8489   -3.3702   -4.5132 H   0  0  0  0  0  0  0  0  0  0  0  0
   -1.3923   -4.4965   -3.1629 H   0  0  0  0  0  0  0  0  0  0  0  0
  1  2  1  0
  2  3  1  0
  3  4  1  0
  4  5  2  0
  4  6  1  0
  6  7  1  0
  7  8  2  0
  8  9  1  0
  9 10  2  0
 10 11  1  0
 10 12  1  0
 12 13  2  0
  3 14  1  0
 14 15  1  0
 14 16  1  0
 16 17  2  0
 16 18  1  0
 18 19  1  0
 19 20  2  0
 20 21  1  0
 21 22  2  0
 22 23  1  0
 23 24  2  0
 24 25  1  0
 22 26  1  0
 26 27  1  0
 27 28  2  0
 28 29  1  0
 29 30  2  0
 30 31  1  0
 31 32  2  0
  1 33  1  0
 33 34  1  0
 15  1  1  0
 24 19  1  0
 31 26  1  0
 13  7  1  0
  1 35  1  6
  2 36  1  0
  2 37  1  0
  6 38  1  0
  8 39  1  0
  9 40  1  0
 12 41  1  0
 13 42  1  0
 14 43  1  6
 15 44  1  0
 15 45  1  0
 18 46  1  0
 20 47  1  0
 21 48  1  0
 23 49  1  0
 27 50  1  0
 28 51  1  0
 29 52  1  0
 30 53  1  0
 34 54  1  0
 34 55  1  0
 34 56  1  0
M  END
$$$$
