@<TRIPOS>MOLECULE
*****
 67 71 0 0 0
SMALL
GASTEIGER

@<TRIPOS>ATOM
      1 C           9.4395    1.4565   -3.2090 C.3     1  UNL1        0.0804
      2 O           8.3189    2.1083   -2.6516 O.3     1  UNL1       -0.4796
      3 C           7.4775    1.3539   -1.8121 C.ar    1  UNL1        0.2144
      4 C           6.3646    1.9204   -1.2317 C.ar    1  UNL1        0.0003
      5 C           5.5613    1.1379   -0.4096 C.ar    1  UNL1       -0.0494
      6 C           5.8285   -0.1846   -0.1467 C.ar    1  UNL1        0.0022
      7 C           4.9652   -1.0040    0.7307 C.3     1  UNL1        0.0924
      8 O           5.7418   -2.0525    1.2750 O.3     1  UNL1       -0.3839
      9 C           3.8742   -1.6845   -0.0649 C.3     1  UNL1       -0.0184
     10 C           2.5339   -1.4324    0.5725 C.3     1  UNL1       -0.0344
     11 C           2.5087   -1.8671    2.0052 C.3     1  UNL1        0.0107
     12 N           1.2676   -1.6100    2.6453 N.3     1  UNL1       -0.2958
     13 C           0.0784   -2.2217    2.1470 C.3     1  UNL1        0.0189
     14 C          -0.4187   -0.8656    1.7204 C.3     1  UNL1        0.0486
     15 N          -1.7556   -0.5286    2.0890 N.am    1  UNL1       -0.3087
     16 C          -2.7717   -0.2490    1.1393 C.2     1  UNL1        0.2304
     17 O          -2.4308   -0.3184   -0.0823 O.2     1  UNL1       -0.2741
     18 C          -4.1534    0.1043    1.5516 C.3     1  UNL1        0.0870
     19 N          -4.9986    0.3258    0.3892 N.pl3   1  UNL1       -0.3199
     20 C          -6.3271    0.7234    0.6228 C.ar    1  UNL1        0.1301
     21 N          -6.7650    0.9025    1.8858 N.ar    1  UNL1       -0.2203
     22 C          -8.0121    1.2906    2.1700 C.ar    1  UNL1        0.1187
     23 N          -8.8731    1.5138    1.1771 N.ar    1  UNL1       -0.2353
     24 C          -8.5287    1.3607   -0.1253 C.ar    1  UNL1        0.0760
     25 C          -9.4285    1.5915   -1.1381 C.ar    1  UNL1       -0.0350
     26 C          -9.0129    1.4141   -2.4335 C.ar    1  UNL1       -0.0481
     27 C          -7.7415    1.0176   -2.7567 C.ar    1  UNL1        0.0556
     28 C          -7.2494    0.8105   -4.1317 C.3     1  UNL1        0.4174
     29 F          -8.2336    1.2018   -5.0218 F       1  UNL1       -0.1659
     30 F          -6.0602    1.4899   -4.3243 F       1  UNL1       -0.1659
     31 F          -7.0242   -0.5357   -4.3528 F       1  UNL1       -0.1659
     32 C          -6.8463    0.7898   -1.7112 C.ar    1  UNL1       -0.0376
     33 C          -7.2093    0.9518   -0.3980 C.ar    1  UNL1        0.0406
     34 C           0.6977   -0.3110    2.5145 C.3     1  UNL1        0.0189
     35 C           3.6070   -1.1660    2.7626 C.3     1  UNL1       -0.0344
     36 C           4.4237   -0.2326    1.8913 C.3     1  UNL1       -0.0184
     37 C           6.9652   -0.6957   -0.7621 C.ar    1  UNL1        0.0373
     38 N           7.7396    0.0608   -1.5557 N.ar    1  UNL1       -0.2210
     39 H          10.1811    2.1739   -3.6089 H       1  UNL1        0.0660
     40 H           9.8458    0.7655   -2.4541 H       1  UNL1        0.0660
     41 H           9.0349    0.7996   -4.0334 H       1  UNL1        0.0660
     42 H           6.1327    2.9555   -1.4208 H       1  UNL1        0.0671
     43 H           4.6833    1.5997    0.0411 H       1  UNL1        0.0623
     44 H           6.5493   -1.6436    1.6963 H       1  UNL1        0.2106
     45 H           3.8367   -1.2094   -1.0766 H       1  UNL1        0.0297
     46 H           4.0736   -2.7574   -0.2374 H       1  UNL1        0.0297
     47 H           1.7796   -1.9502   -0.0548 H       1  UNL1        0.0281
     48 H           2.3550   -0.3302    0.4678 H       1  UNL1        0.0281
     49 H           2.7118   -2.9736    2.0192 H       1  UNL1        0.0462
     50 H           0.2576   -2.9245    1.3069 H       1  UNL1        0.0445
     51 H          -0.5895   -2.7172    2.8834 H       1  UNL1        0.0445
     52 H          -0.2899   -0.7732    0.6232 H       1  UNL1        0.0523
     53 H          -2.0583   -0.4703    3.1076 H       1  UNL1        0.1491
     54 H          -4.1702    0.9582    2.2496 H       1  UNL1        0.0557
     55 H          -4.6261   -0.7540    2.1046 H       1  UNL1        0.0557
     56 H          -4.5558    0.1740   -0.5378 H       1  UNL1        0.1480
     57 H          -8.3170    1.4226    3.1881 H       1  UNL1        0.1048
     58 H         -10.4270    1.9057   -0.8731 H       1  UNL1        0.0639
     59 H          -9.7011    1.5888   -3.2486 H       1  UNL1        0.0624
     60 H          -5.8274    0.4728   -1.9606 H       1  UNL1        0.0631
     61 H           1.2438    0.4664    1.9674 H       1  UNL1        0.0445
     62 H           0.4542    0.0851    3.5257 H       1  UNL1        0.0445
     63 H           4.3107   -1.8704    3.2474 H       1  UNL1        0.0281
     64 H           3.1861   -0.5548    3.6147 H       1  UNL1        0.0281
     65 H           5.3124    0.0598    2.5252 H       1  UNL1        0.0297
     66 H           3.8840    0.6787    1.6328 H       1  UNL1        0.0297
     67 H           7.1767   -1.7442   -0.5521 H       1  UNL1        0.0834
@<TRIPOS>BOND
     1     1     2    1
     2     2     3    1
     3     3     4   ar
     4     4     5   ar
     5     5     6   ar
     6     6     7    1
     7     7     8    1
     8     7     9    1
     9     9    10    1
    10    10    11    1
    11    11    12    1
    12    12    13    1
    13    13    14    1
    14    14    15    1
    15    15    16   am
    16    16    17    2
    17    16    18    1
    18    18    19    1
    19    19    20    1
    20    20    21   ar
    21    21    22   ar
    22    22    23   ar
    23    23    24   ar
    24    24    25   ar
    25    25    26   ar
    26    26    27   ar
    27    27    28    1
    28    28    29    1
    29    28    30    1
    30    28    31    1
    31    27    32   ar
    32    32    33   ar
    33    14    34    1
    34    11    35    1
    35    35    36    1
    36     6    37   ar
    37    37    38   ar
    38    38     3   ar
    39    36     7    1
    40    34    12    1
    41    33    20   ar
    42    33    24   ar
    43     1    39    1
    44     1    40    1
    45     1    41    1
    46     4    42    1
    47     5    43    1
    48     8    44    1
    49     9    45    1
    50     9    46    1
    51    10    47    1
    52    10    48    1
    53    11    49    1
    54    13    50    1
    55    13    51    1
    56    14    52    1
    57    15    53    1
    58    18    54    1
    59    18    55    1
    60    19    56    1
    61    22    57    1
    62    25    58    1
    63    26    59    1
    64    32    60    1
    65    34    61    1
    66    34    62    1
    67    35    63    1
    68    35    64    1
    69    36    65    1
    70    36    66    1
    71    37    67    1
