
     RDKit          3D

 66 68  0  0  0  0  0  0  0  0999 V2000
    8.3803    0.4464    1.7367 C   0  0  0  0  0  0  0  0  0  0  0  0
    8.6324    0.0250    0.3180 C   0  0  0  0  0  0  0  0  0  0  0  0
    7.6742   -1.0300   -0.1598 C   0  0  0  0  0  0  0  0  0  0  0  0
    6.2418   -0.5881   -0.1174 C   0  0  0  0  0  0  0  0  0  0  0  0
    5.9897    0.6259   -0.9810 C   0  0  0  0  0  0  0  0  0  0  0  0
    4.5668    1.0784   -0.9492 C   0  0  0  0  0  0  0  0  0  0  0  0
    4.0861    1.4562    0.4117 C   0  0  0  0  0  0  0  0  0  0  0  0
    2.6515    1.8969    0.3511 C   0  0  0  0  0  0  0  0  0  0  0  0
    1.7302    0.8248   -0.1683 C   0  0  0  0  0  0  0  0  0  0  0  0
    1.7601   -0.4121    0.6987 C   0  0  0  0  0  0  0  0  0  0  0  0
    0.8271   -1.4572    0.1435 C   0  0  0  0  0  0  0  0  0  0  0  0
   -0.5973   -1.0079    0.0708 C   0  0  0  0  0  0  0  0  0  0  0  0
   -1.3682   -2.0505   -0.4545 O   0  0  0  0  0  0  0  0  0  0  0  0
   -2.7524   -1.9415   -0.6489 C   0  0  0  0  0  0  0  0  0  0  0  0
   -3.4881   -2.9836   -1.1681 C   0  0  0  0  0  0  0  0  0  0  0  0
   -4.8491   -2.9018   -1.3685 C   0  0  0  0  0  0  0  0  0  0  0  0
   -5.5953   -3.9458   -1.8899 O   0  0  0  0  0  0  0  0  0  0  0  0
   -5.5230   -1.7309   -1.0403 C   0  0  0  0  0  0  0  0  0  0  0  0
   -4.7956   -0.6707   -0.5167 C   0  0  0  0  0  0  0  0  0  0  0  0
   -3.4408   -0.7908   -0.3311 C   0  0  0  0  0  0  0  0  0  0  0  0
   -5.5523    0.5602   -0.1906 C   0  0  0  0  0  0  0  0  0  0  0  0
   -4.8924    1.6919   -0.0769 C   0  0  0  0  0  0  0  0  0  0  0  0
   -5.5203    2.9777    0.2417 C   0  0  0  0  0  0  0  0  0  0  0  0
   -4.8990    4.0412    0.3504 O   0  0  0  0  0  0  0  0  0  0  0  0
   -6.9608    2.9490    0.4324 C   0  0  0  0  0  0  0  0  0  0  0  0
   -7.5990    3.7768    1.0929 O   0  0  0  0  0  0  0  0  0  0  0  0
   -7.6818    1.8213   -0.2353 C   0  0  0  0  0  0  0  0  0  0  0  0
   -7.0118    0.5092    0.0050 C   0  0  0  0  0  0  0  0  0  0  0  0
   -7.3364    0.0435    1.4113 C   0  0  0  0  0  0  0  0  0  0  0  0
   -7.6085   -0.4465   -0.8669 O   0  0  0  0  0  0  0  0  0  0  0  0
   -6.9517   -1.6123   -1.2169 C   0  0  0  0  0  0  0  0  0  0  0  0
   -7.5569   -2.6116   -1.6990 O   0  0  0  0  0  0  0  0  0  0  0  0
    8.6716   -0.3428    2.4605 H   0  0  0  0  0  0  0  0  0  0  0  0
    7.3593    0.8343    1.9013 H   0  0  0  0  0  0  0  0  0  0  0  0
    9.0712    1.3053    1.9430 H   0  0  0  0  0  0  0  0  0  0  0  0
    8.6675    0.8920   -0.3563 H   0  0  0  0  0  0  0  0  0  0  0  0
    9.6526   -0.4320    0.2907 H   0  0  0  0  0  0  0  0  0  0  0  0
    7.7856   -1.9525    0.4123 H   0  0  0  0  0  0  0  0  0  0  0  0
    7.9612   -1.2702   -1.2136 H   0  0  0  0  0  0  0  0  0  0  0  0
    5.6266   -1.4244   -0.5133 H   0  0  0  0  0  0  0  0  0  0  0  0
    5.9521   -0.4397    0.9292 H   0  0  0  0  0  0  0  0  0  0  0  0
    6.7083    1.4079   -0.6599 H   0  0  0  0  0  0  0  0  0  0  0  0
    6.2835    0.3468   -2.0139 H   0  0  0  0  0  0  0  0  0  0  0  0
    4.4871    1.9763   -1.5982 H   0  0  0  0  0  0  0  0  0  0  0  0
    3.9448    0.2981   -1.4330 H   0  0  0  0  0  0  0  0  0  0  0  0
    4.1869    0.6050    1.1120 H   0  0  0  0  0  0  0  0  0  0  0  0
    4.6806    2.3412    0.7434 H   0  0  0  0  0  0  0  0  0  0  0  0
    2.5334    2.8024   -0.2446 H   0  0  0  0  0  0  0  0  0  0  0  0
    2.3255    2.1031    1.4077 H   0  0  0  0  0  0  0  0  0  0  0  0
    1.8724    0.6085   -1.2300 H   0  0  0  0  0  0  0  0  0  0  0  0
    0.6876    1.2493   -0.0677 H   0  0  0  0  0  0  0  0  0  0  0  0
    1.3574   -0.1191    1.6930 H   0  0  0  0  0  0  0  0  0  0  0  0
    2.7552   -0.8252    0.8556 H   0  0  0  0  0  0  0  0  0  0  0  0
    1.1324   -1.7496   -0.8899 H   0  0  0  0  0  0  0  0  0  0  0  0
    0.8570   -2.3885    0.7373 H   0  0  0  0  0  0  0  0  0  0  0  0
   -0.9965   -0.6742    1.0505 H   0  0  0  0  0  0  0  0  0  0  0  0
   -0.6483   -0.1645   -0.6697 H   0  0  0  0  0  0  0  0  0  0  0  0
   -2.9908   -3.8926   -1.4273 H   0  0  0  0  0  0  0  0  0  0  0  0
   -5.2512   -4.8950   -1.9568 H   0  0  0  0  0  0  0  0  0  0  0  0
   -2.8683    0.0201    0.0812 H   0  0  0  0  0  0  0  0  0  0  0  0
   -3.8066    1.6535   -0.2435 H   0  0  0  0  0  0  0  0  0  0  0  0
   -8.7292    1.8062    0.1073 H   0  0  0  0  0  0  0  0  0  0  0  0
   -7.6369    2.0179   -1.3381 H   0  0  0  0  0  0  0  0  0  0  0  0
   -6.8883   -0.9546    1.5329 H   0  0  0  0  0  0  0  0  0  0  0  0
   -6.8788    0.7313    2.1484 H   0  0  0  0  0  0  0  0  0  0  0  0
   -8.4247   -0.0175    1.5191 H   0  0  0  0  0  0  0  0  0  0  0  0
  1  2  1  0
  2  3  1  0
  3  4  1  0
  4  5  1  0
  5  6  1  0
  6  7  1  0
  7  8  1  0
  8  9  1  0
  9 10  1  0
 10 11  1  0
 11 12  1  0
 12 13  1  0
 13 14  1  0
 14 15  2  0
 15 16  1  0
 16 17  1  0
 16 18  2  0
 18 19  1  0
 19 20  2  0
 19 21  1  0
 21 22  2  0
 22 23  1  0
 23 24  2  0
 23 25  1  0
 25 26  2  0
 25 27  1  0
 27 28  1  0
 28 29  1  0
 28 30  1  0
 30 31  1  0
 31 32  2  0
 20 14  1  0
 28 21  1  0
 31 18  1  0
  1 33  1  0
  1 34  1  0
  1 35  1  0
  2 36  1  0
  2 37  1  0
  3 38  1  0
  3 39  1  0
  4 40  1  0
  4 41  1  0
  5 42  1  0
  5 43  1  0
  6 44  1  0
  6 45  1  0
  7 46  1  0
  7 47  1  0
  8 48  1  0
  8 49  1  0
  9 50  1  0
  9 51  1  0
 10 52  1  0
 10 53  1  0
 11 54  1  0
 11 55  1  0
 12 56  1  0
 12 57  1  0
 15 58  1  0
 17 59  1  0
 20 60  1  0
 22 61  1  0
 27 62  1  0
 27 63  1  0
 29 64  1  0
 29 65  1  0
 29 66  1  0
M  END
$$$$
