@<TRIPOS>MOLECULE
*****
 66 68 0 0 0
SMALL
GASTEIGER

@<TRIPOS>ATOM
      1 C           8.3803    0.4464    1.7367 C.3     1  UNL1       -0.0653
      2 C           8.6324    0.0250    0.3180 C.3     1  UNL1       -0.0559
      3 C           7.6742   -1.0300   -0.1598 C.3     1  UNL1       -0.0533
      4 C           6.2418   -0.5881   -0.1174 C.3     1  UNL1       -0.0531
      5 C           5.9897    0.6259   -0.9810 C.3     1  UNL1       -0.0531
      6 C           4.5668    1.0784   -0.9492 C.3     1  UNL1       -0.0531
      7 C           4.0861    1.4562    0.4117 C.3     1  UNL1       -0.0531
      8 C           2.6515    1.8969    0.3511 C.3     1  UNL1       -0.0531
      9 C           1.7302    0.8248   -0.1683 C.3     1  UNL1       -0.0530
     10 C           1.7601   -0.4121    0.6987 C.3     1  UNL1       -0.0500
     11 C           0.8271   -1.4572    0.1435 C.3     1  UNL1       -0.0186
     12 C          -0.5973   -1.0079    0.0708 C.3     1  UNL1        0.0896
     13 O          -1.3682   -2.0505   -0.4545 O.3     1  UNL1       -0.4918
     14 C          -2.7524   -1.9415   -0.6489 C.ar    1  UNL1        0.1246
     15 C          -3.4881   -2.9836   -1.1681 C.ar    1  UNL1        0.0224
     16 C          -4.8491   -2.9018   -1.3685 C.ar    1  UNL1        0.1349
     17 O          -5.5953   -3.9458   -1.8899 O.3     1  UNL1       -0.5058
     18 C          -5.5230   -1.7309   -1.0403 C.ar    1  UNL1        0.1080
     19 C          -4.7956   -0.6707   -0.5167 C.ar    1  UNL1        0.0030
     20 C          -3.4408   -0.7908   -0.3311 C.ar    1  UNL1       -0.0114
     21 C          -5.5523    0.5602   -0.1906 C.2     1  UNL1        0.0078
     22 C          -4.8924    1.6919   -0.0769 C.2     1  UNL1       -0.0039
     23 C          -5.5203    2.9777    0.2417 C.2     1  UNL1        0.2216
     24 O          -4.8990    4.0412    0.3504 O.2     1  UNL1       -0.2842
     25 C          -6.9608    2.9490    0.4324 C.2     1  UNL1        0.2064
     26 O          -7.5990    3.7768    1.0929 O.2     1  UNL1       -0.2885
     27 C          -7.6818    1.8213   -0.2353 C.3     1  UNL1        0.0577
     28 C          -7.0118    0.5092    0.0050 C.3     1  UNL1        0.1437
     29 C          -7.3364    0.0435    1.4113 C.3     1  UNL1       -0.0201
     30 O          -7.6085   -0.4465   -0.8669 O.3     1  UNL1       -0.4495
     31 C          -6.9517   -1.6123   -1.2169 C.2     1  UNL1        0.3442
     32 O          -7.5569   -2.6116   -1.6990 O.2     1  UNL1       -0.2448
     33 H           8.6716   -0.3428    2.4605 H       1  UNL1        0.0230
     34 H           7.3593    0.8343    1.9013 H       1  UNL1        0.0230
     35 H           9.0712    1.3053    1.9430 H       1  UNL1        0.0230
     36 H           8.6675    0.8920   -0.3563 H       1  UNL1        0.0263
     37 H           9.6526   -0.4320    0.2907 H       1  UNL1        0.0263
     38 H           7.7856   -1.9525    0.4123 H       1  UNL1        0.0265
     39 H           7.9612   -1.2702   -1.2136 H       1  UNL1        0.0265
     40 H           5.6266   -1.4244   -0.5133 H       1  UNL1        0.0265
     41 H           5.9521   -0.4397    0.9292 H       1  UNL1        0.0265
     42 H           6.7083    1.4079   -0.6599 H       1  UNL1        0.0265
     43 H           6.2835    0.3468   -2.0139 H       1  UNL1        0.0265
     44 H           4.4871    1.9763   -1.5982 H       1  UNL1        0.0265
     45 H           3.9448    0.2981   -1.4330 H       1  UNL1        0.0265
     46 H           4.1869    0.6050    1.1120 H       1  UNL1        0.0265
     47 H           4.6806    2.3412    0.7434 H       1  UNL1        0.0265
     48 H           2.5334    2.8024   -0.2446 H       1  UNL1        0.0265
     49 H           2.3255    2.1031    1.4077 H       1  UNL1        0.0265
     50 H           1.8724    0.6085   -1.2300 H       1  UNL1        0.0265
     51 H           0.6876    1.2493   -0.0677 H       1  UNL1        0.0265
     52 H           1.3574   -0.1191    1.6930 H       1  UNL1        0.0266
     53 H           2.7552   -0.8252    0.8556 H       1  UNL1        0.0266
     54 H           1.1324   -1.7496   -0.8899 H       1  UNL1        0.0298
     55 H           0.8570   -2.3885    0.7373 H       1  UNL1        0.0298
     56 H          -0.9965   -0.6742    1.0505 H       1  UNL1        0.0696
     57 H          -0.6483   -0.1645   -0.6697 H       1  UNL1        0.0696
     58 H          -2.9908   -3.8926   -1.4273 H       1  UNL1        0.0691
     59 H          -5.2512   -4.8950   -1.9568 H       1  UNL1        0.2922
     60 H          -2.8683    0.0201    0.0812 H       1  UNL1        0.0660
     61 H          -3.8066    1.6535   -0.2435 H       1  UNL1        0.0661
     62 H          -8.7292    1.8062    0.1073 H       1  UNL1        0.0389
     63 H          -7.6369    2.0179   -1.3381 H       1  UNL1        0.0389
     64 H          -6.8883   -0.9546    1.5329 H       1  UNL1        0.0272
     65 H          -6.8788    0.7313    2.1484 H       1  UNL1        0.0272
     66 H          -8.4247   -0.0175    1.5191 H       1  UNL1        0.0272
@<TRIPOS>BOND
     1     1     2    1
     2     2     3    1
     3     3     4    1
     4     4     5    1
     5     5     6    1
     6     6     7    1
     7     7     8    1
     8     8     9    1
     9     9    10    1
    10    10    11    1
    11    11    12    1
    12    12    13    1
    13    13    14    1
    14    14    15   ar
    15    15    16   ar
    16    16    17    1
    17    16    18   ar
    18    18    19   ar
    19    19    20   ar
    20    19    21    1
    21    21    22    2
    22    22    23    1
    23    23    24    2
    24    23    25    1
    25    25    26    2
    26    25    27    1
    27    27    28    1
    28    28    29    1
    29    28    30    1
    30    30    31    1
    31    31    32    2
    32    20    14   ar
    33    28    21    1
    34    31    18    1
    35     1    33    1
    36     1    34    1
    37     1    35    1
    38     2    36    1
    39     2    37    1
    40     3    38    1
    41     3    39    1
    42     4    40    1
    43     4    41    1
    44     5    42    1
    45     5    43    1
    46     6    44    1
    47     6    45    1
    48     7    46    1
    49     7    47    1
    50     8    48    1
    51     8    49    1
    52     9    50    1
    53     9    51    1
    54    10    52    1
    55    10    53    1
    56    11    54    1
    57    11    55    1
    58    12    56    1
    59    12    57    1
    60    15    58    1
    61    17    59    1
    62    20    60    1
    63    22    61    1
    64    27    62    1
    65    27    63    1
    66    29    64    1
    67    29    65    1
    68    29    66    1
