
     RDKit          3D

 42 45  0  0  0  0  0  0  0  0999 V2000
   -5.7883    0.2150    1.4247 C   0  0  0  0  0  0  0  0  0  0  0  0
   -5.2115    0.4611    0.0581 C   0  0  0  0  0  0  0  0  0  0  0  0
   -6.0407   -0.3274   -0.9336 C   0  0  0  0  0  0  0  0  0  0  0  0
   -5.2459    1.8174   -0.1873 O   0  0  0  0  0  0  0  0  0  0  0  0
   -3.8086   -0.1002    0.0023 C   0  0  0  0  0  0  0  0  0  0  0  0
   -3.0904    0.2867   -1.2680 C   0  0  0  0  0  0  0  0  0  0  0  0
   -1.6652    0.2090   -0.8587 C   0  0  0  0  0  0  0  0  0  0  0  0
   -0.4812    0.0275   -1.5628 C   0  0  0  0  0  0  0  0  0  0  0  0
    0.7401   -0.0058   -0.9245 C   0  0  0  0  0  0  0  0  0  0  0  0
    2.0615   -0.1656   -1.3313 C   0  0  0  0  0  0  0  0  0  0  0  0
    2.8144   -0.1010   -0.1822 C   0  0  0  0  0  0  0  0  0  0  0  0
    4.2633   -0.2155   -0.0901 C   0  0  0  0  0  0  0  0  0  0  0  0
    5.0638   -0.4107   -1.2096 C   0  0  0  0  0  0  0  0  0  0  0  0
    6.4230   -0.5200   -1.1394 C   0  0  0  0  0  0  0  0  0  0  0  0
    7.2387   -0.7149   -2.2454 O   0  0  0  0  0  0  0  0  0  0  0  0
    7.0283   -0.4330    0.0953 C   0  0  0  0  0  0  0  0  0  0  0  0
    6.2808   -0.2397    1.2393 C   0  0  0  0  0  0  0  0  0  0  0  0
    6.9197   -0.1588    2.4456 O   0  0  0  0  0  0  0  0  0  0  0  0
    4.9123   -0.1349    1.1223 C   0  0  0  0  0  0  0  0  0  0  0  0
    2.0162    0.0805    0.8175 O   0  0  0  0  0  0  0  0  0  0  0  0
    0.7696    0.1462    0.4468 C   0  0  0  0  0  0  0  0  0  0  0  0
   -0.4207    0.3274    1.1442 C   0  0  0  0  0  0  0  0  0  0  0  0
   -1.6455    0.3617    0.5111 C   0  0  0  0  0  0  0  0  0  0  0  0
   -2.9639    0.5280    0.9797 O   0  0  0  0  0  0  0  0  0  0  0  0
   -5.2269   -0.6347    1.8896 H   0  0  0  0  0  0  0  0  0  0  0  0
   -5.7446    1.1078    2.0814 H   0  0  0  0  0  0  0  0  0  0  0  0
   -6.8714   -0.0776    1.3713 H   0  0  0  0  0  0  0  0  0  0  0  0
   -6.9705    0.2289   -1.2251 H   0  0  0  0  0  0  0  0  0  0  0  0
   -5.4031   -0.5104   -1.8409 H   0  0  0  0  0  0  0  0  0  0  0  0
   -6.2815   -1.3296   -0.5255 H   0  0  0  0  0  0  0  0  0  0  0  0
   -5.9784    2.0089   -0.8466 H   0  0  0  0  0  0  0  0  0  0  0  0
   -3.8030   -1.1950    0.0957 H   0  0  0  0  0  0  0  0  0  0  0  0
   -3.2796    1.3430   -1.5532 H   0  0  0  0  0  0  0  0  0  0  0  0
   -3.3337   -0.3729   -2.1188 H   0  0  0  0  0  0  0  0  0  0  0  0
   -0.4832   -0.0933   -2.6368 H   0  0  0  0  0  0  0  0  0  0  0  0
    2.3804   -0.3086   -2.3558 H   0  0  0  0  0  0  0  0  0  0  0  0
    4.5829   -0.4781   -2.1760 H   0  0  0  0  0  0  0  0  0  0  0  0
    7.4896    0.1110   -2.7755 H   0  0  0  0  0  0  0  0  0  0  0  0
    8.1222   -0.5161    0.1949 H   0  0  0  0  0  0  0  0  0  0  0  0
    6.7119   -0.6803    3.2703 H   0  0  0  0  0  0  0  0  0  0  0  0
    4.3354    0.0162    2.0218 H   0  0  0  0  0  0  0  0  0  0  0  0
   -0.4166    0.4482    2.2184 H   0  0  0  0  0  0  0  0  0  0  0  0
  1  2  1  0
  2  3  1  0
  2  4  1  0
  2  5  1  0
  5  6  1  0
  6  7  1  0
  7  8  2  0
  8  9  1  0
  9 10  1  0
 10 11  2  0
 11 12  1  0
 12 13  2  0
 13 14  1  0
 14 15  1  0
 14 16  2  0
 16 17  1  0
 17 18  1  0
 17 19  2  0
 11 20  1  0
 20 21  1  0
 21 22  1  0
 22 23  2  0
 23 24  1  0
 24  5  1  0
 23  7  1  0
 21  9  2  0
 19 12  1  0
  1 25  1  0
  1 26  1  0
  1 27  1  0
  3 28  1  0
  3 29  1  0
  3 30  1  0
  4 31  1  0
  5 32  1  0
  6 33  1  0
  6 34  1  0
  8 35  1  0
 10 36  1  0
 13 37  1  0
 15 38  1  0
 16 39  1  0
 18 40  1  0
 19 41  1  0
 22 42  1  0
M  END
$$$$
