@<TRIPOS>MOLECULE
*****
 42 45 0 0 0
SMALL
GASTEIGER

@<TRIPOS>ATOM
      1 C          -5.7883    0.2150    1.4247 C.3     1  UNL1       -0.0328
      2 C          -5.2115    0.4611    0.0581 C.3     1  UNL1        0.0974
      3 C          -6.0407   -0.3274   -0.9336 C.3     1  UNL1       -0.0328
      4 O          -5.2459    1.8174   -0.1873 O.3     1  UNL1       -0.3855
      5 C          -3.8086   -0.1002    0.0023 C.3     1  UNL1        0.1322
      6 C          -3.0904    0.2867   -1.2680 C.3     1  UNL1        0.0157
      7 C          -1.6652    0.2090   -0.8587 C.ar    1  UNL1       -0.0013
      8 C          -0.4812    0.0275   -1.5628 C.ar    1  UNL1       -0.0442
      9 C           0.7401   -0.0058   -0.9245 C.ar    1  UNL1        0.0213
     10 C           2.0615   -0.1656   -1.3313 C.ar    1  UNL1       -0.0081
     11 C           2.8144   -0.1010   -0.1822 C.ar    1  UNL1        0.1365
     12 C           4.2633   -0.2155   -0.0901 C.ar    1  UNL1        0.0242
     13 C           5.0638   -0.4107   -1.2096 C.ar    1  UNL1       -0.0093
     14 C           6.4230   -0.5200   -1.1394 C.ar    1  UNL1        0.1210
     15 O           7.2387   -0.7149   -2.2454 O.3     1  UNL1       -0.5066
     16 C           7.0283   -0.4330    0.0953 C.ar    1  UNL1        0.0213
     17 C           6.2808   -0.2397    1.2393 C.ar    1  UNL1        0.1210
     18 O           6.9197   -0.1588    2.4456 O.3     1  UNL1       -0.5066
     19 C           4.9123   -0.1349    1.1223 C.ar    1  UNL1       -0.0093
     20 O           2.0162    0.0805    0.8175 O.2     1  UNL1       -0.4547
     21 C           0.7696    0.1462    0.4468 C.ar    1  UNL1        0.1392
     22 C          -0.4207    0.3274    1.1442 C.ar    1  UNL1        0.0233
     23 C          -1.6455    0.3617    0.5111 C.ar    1  UNL1        0.1279
     24 O          -2.9639    0.5280    0.9797 O.3     1  UNL1       -0.4853
     25 H          -5.2269   -0.6347    1.8896 H       1  UNL1        0.0258
     26 H          -5.7446    1.1078    2.0814 H       1  UNL1        0.0258
     27 H          -6.8714   -0.0776    1.3713 H       1  UNL1        0.0258
     28 H          -6.9705    0.2289   -1.2251 H       1  UNL1        0.0258
     29 H          -5.4031   -0.5104   -1.8409 H       1  UNL1        0.0258
     30 H          -6.2815   -1.3296   -0.5255 H       1  UNL1        0.0258
     31 H          -5.9784    2.0089   -0.8466 H       1  UNL1        0.2103
     32 H          -3.8030   -1.1950    0.0957 H       1  UNL1        0.0765
     33 H          -3.2796    1.3430   -1.5532 H       1  UNL1        0.0351
     34 H          -3.3337   -0.3729   -2.1188 H       1  UNL1        0.0351
     35 H          -0.4832   -0.0933   -2.6368 H       1  UNL1        0.0628
     36 H           2.3804   -0.3086   -2.3558 H       1  UNL1        0.0661
     37 H           4.5829   -0.4781   -2.1760 H       1  UNL1        0.0661
     38 H           7.4896    0.1110   -2.7755 H       1  UNL1        0.2921
     39 H           8.1222   -0.5161    0.1949 H       1  UNL1        0.0691
     40 H           6.7119   -0.6803    3.2703 H       1  UNL1        0.2921
     41 H           4.3354    0.0162    2.0218 H       1  UNL1        0.0661
     42 H          -0.4166    0.4482    2.2184 H       1  UNL1        0.0691
@<TRIPOS>BOND
     1     1     2    1
     2     2     3    1
     3     2     4    1
     4     2     5    1
     5     5     6    1
     6     6     7    1
     7     7     8   ar
     8     8     9   ar
     9     9    10   ar
    10    10    11   ar
    11    11    12    1
    12    12    13   ar
    13    13    14   ar
    14    14    15    1
    15    14    16   ar
    16    16    17   ar
    17    17    18    1
    18    17    19   ar
    19    11    20   ar
    20    20    21   ar
    21    21    22   ar
    22    22    23   ar
    23    23    24    1
    24    24     5    1
    25    23     7   ar
    26    21     9   ar
    27    19    12   ar
    28     1    25    1
    29     1    26    1
    30     1    27    1
    31     3    28    1
    32     3    29    1
    33     3    30    1
    34     4    31    1
    35     5    32    1
    36     6    33    1
    37     6    34    1
    38     8    35    1
    39    10    36    1
    40    13    37    1
    41    15    38    1
    42    16    39    1
    43    18    40    1
    44    19    41    1
    45    22    42    1
