
     RDKit          3D

 40 43  0  0  0  0  0  0  0  0999 V2000
    7.2185    1.4546   -0.0193 C   0  0  0  0  0  0  0  0  0  0  0  0
    5.8669    0.9770    0.5235 C   0  0  0  0  0  0  0  0  0  0  0  0
    5.8718    0.1738    1.5989 N   0  0  0  0  0  0  0  0  0  0  0  0
    4.0525   -0.1063    1.8459 S   0  0  0  0  0  0  0  0  0  0  0  0
    3.6042    0.8804    0.4942 C   0  0  0  0  0  0  0  0  0  0  0  0
    2.1954    1.1505    0.0399 C   0  0  0  0  0  0  0  0  0  0  0  0
    1.6222    2.3456   -0.1420 N   0  0  0  0  0  0  0  0  0  0  0  0
    0.3565    2.1322   -0.5513 N   0  0  0  0  0  0  0  0  0  0  0  0
    0.1300    0.8122   -0.6275 C   0  0  0  0  0  0  0  0  0  0  0  0
    1.2984    0.2021   -0.2523 N   0  0  0  0  0  0  0  0  0  0  0  0
    1.4005   -1.2225   -0.2273 C   0  0  0  0  0  0  0  0  0  0  0  0
    0.1751   -1.7884    0.4587 C   0  0  0  0  0  0  0  0  0  0  0  0
   -1.0310   -1.0758    0.1065 N   0  0  0  0  0  0  0  0  0  0  0  0
   -2.2447   -1.2762    0.7671 C   0  0  0  0  0  0  0  0  0  0  0  0
   -2.2904   -2.1188    1.7119 O   0  0  0  0  0  0  0  0  0  0  0  0
   -3.4841   -0.5829    0.4532 C   0  0  0  0  0  0  0  0  0  0  0  0
   -4.0189   -0.7310   -0.8110 C   0  0  0  0  0  0  0  0  0  0  0  0
   -5.1913   -0.0654   -1.0914 C   0  0  0  0  0  0  0  0  0  0  0  0
   -5.8191    0.7314   -0.1330 C   0  0  0  0  0  0  0  0  0  0  0  0
   -6.9732    1.3800   -0.4307 F   0  0  0  0  0  0  0  0  0  0  0  0
   -5.2895    0.8829    1.1322 C   0  0  0  0  0  0  0  0  0  0  0  0
   -4.1151    0.2172    1.4145 C   0  0  0  0  0  0  0  0  0  0  0  0
   -0.9985   -0.0912   -0.9886 C   0  0  2  0  0  0  0  0  0  0  0  0
   -0.8125   -0.7495   -2.3104 C   0  0  0  0  0  0  0  0  0  0  0  0
    4.7027    1.2908    0.0219 N   0  0  0  0  0  0  0  0  0  0  0  0
    7.4105    2.4544    0.4149 H   0  0  0  0  0  0  0  0  0  0  0  0
    8.0127    0.7662    0.2463 H   0  0  0  0  0  0  0  0  0  0  0  0
    7.0729    1.6028   -1.1121 H   0  0  0  0  0  0  0  0  0  0  0  0
    2.2738   -1.5984    0.3291 H   0  0  0  0  0  0  0  0  0  0  0  0
    1.4628   -1.6835   -1.2352 H   0  0  0  0  0  0  0  0  0  0  0  0
    0.3368   -1.5895    1.5577 H   0  0  0  0  0  0  0  0  0  0  0  0
    0.0785   -2.8851    0.3086 H   0  0  0  0  0  0  0  0  0  0  0  0
   -3.5597   -1.3441   -1.5851 H   0  0  0  0  0  0  0  0  0  0  0  0
   -5.6286   -0.1743   -2.0944 H   0  0  0  0  0  0  0  0  0  0  0  0
   -5.7759    1.5013    1.8794 H   0  0  0  0  0  0  0  0  0  0  0  0
   -3.6797    0.3229    2.4106 H   0  0  0  0  0  0  0  0  0  0  0  0
   -1.9116    0.5237   -1.0096 H   0  0  0  0  0  0  0  0  0  0  0  0
   -1.7013   -0.5634   -2.9450 H   0  0  0  0  0  0  0  0  0  0  0  0
    0.0839   -0.3054   -2.8162 H   0  0  0  0  0  0  0  0  0  0  0  0
   -0.7016   -1.8500   -2.2574 H   0  0  0  0  0  0  0  0  0  0  0  0
  1  2  1  0
  2  3  2  0
  3  4  1  0
  4  5  1  0
  5  6  1  0
  6  7  2  0
  7  8  1  0
  8  9  2  0
  9 10  1  0
 10 11  1  0
 11 12  1  0
 12 13  1  0
 13 14  1  0
 14 15  2  0
 14 16  1  0
 16 17  2  0
 17 18  1  0
 18 19  2  0
 19 20  1  0
 19 21  1  0
 21 22  2  0
 13 23  1  0
 23 24  1  0
  5 25  2  0
 25  2  1  0
 10  6  1  0
 22 16  1  0
 23  9  1  0
  1 26  1  0
  1 27  1  0
  1 28  1  0
 11 29  1  0
 11 30  1  0
 12 31  1  0
 12 32  1  0
 17 33  1  0
 18 34  1  0
 21 35  1  0
 22 36  1  0
 23 37  1  6
 24 38  1  0
 24 39  1  0
 24 40  1  0
M  END
$$$$
