@<TRIPOS>MOLECULE
*****
 40 43 0 0 0
SMALL
GASTEIGER

@<TRIPOS>ATOM
      1 C           7.2185    1.4546   -0.0193 C.3     1  UNL1       -0.0039
      2 C           5.8669    0.9770    0.5235 C.ar    1  UNL1        0.1359
      3 N           5.8718    0.1738    1.5989 N.ar    1  UNL1       -0.1939
      4 S           4.0525   -0.1063    1.8459 S.2     1  UNL1        0.0369
      5 C           3.6042    0.8804    0.4942 C.ar    1  UNL1        0.1652
      6 C           2.1954    1.1505    0.0399 C.ar    1  UNL1        0.1910
      7 N           1.6222    2.3456   -0.1420 N.ar    1  UNL1       -0.1269
      8 N           0.3565    2.1322   -0.5513 N.ar    1  UNL1       -0.1320
      9 C           0.1300    0.8122   -0.6275 C.ar    1  UNL1        0.1542
     10 N           1.2984    0.2021   -0.2523 N.ar    1  UNL1       -0.3062
     11 C           1.4005   -1.2225   -0.2273 C.3     1  UNL1        0.0423
     12 C           0.1751   -1.7884    0.4587 C.3     1  UNL1        0.0338
     13 N          -1.0310   -1.0758    0.1065 N.am    1  UNL1       -0.2860
     14 C          -2.2447   -1.2762    0.7671 C.2     1  UNL1        0.2472
     15 O          -2.2904   -2.1188    1.7119 O.2     1  UNL1       -0.2700
     16 C          -3.4841   -0.5829    0.4532 C.ar    1  UNL1        0.0371
     17 C          -4.0189   -0.7310   -0.8110 C.ar    1  UNL1       -0.0469
     18 C          -5.1913   -0.0654   -1.0914 C.ar    1  UNL1       -0.0257
     19 C          -5.8191    0.7314   -0.1330 C.ar    1  UNL1        0.1234
     20 F          -6.9732    1.3800   -0.4307 F       1  UNL1       -0.2055
     21 C          -5.2895    0.8829    1.1322 C.ar    1  UNL1       -0.0257
     22 C          -4.1151    0.2172    1.4145 C.ar    1  UNL1       -0.0469
     23 C          -0.9985   -0.0912   -0.9886 C.3     1  UNL1        0.0834
     24 C          -0.8125   -0.7495   -2.3104 C.3     1  UNL1       -0.0393
     25 N           4.7027    1.2908    0.0219 N.ar    1  UNL1       -0.2199
     26 H           7.4105    2.4544    0.4149 H       1  UNL1        0.0308
     27 H           8.0127    0.7662    0.2463 H       1  UNL1        0.0308
     28 H           7.0729    1.6028   -1.1121 H       1  UNL1        0.0308
     29 H           2.2738   -1.5984    0.3291 H       1  UNL1        0.0508
     30 H           1.4628   -1.6835   -1.2352 H       1  UNL1        0.0508
     31 H           0.3368   -1.5895    1.5577 H       1  UNL1        0.0482
     32 H           0.0785   -2.8851    0.3086 H       1  UNL1        0.0482
     33 H          -3.5597   -1.3441   -1.5851 H       1  UNL1        0.0626
     34 H          -5.6286   -0.1743   -2.0944 H       1  UNL1        0.0646
     35 H          -5.7759    1.5013    1.8794 H       1  UNL1        0.0646
     36 H          -3.6797    0.3229    2.4106 H       1  UNL1        0.0626
     37 H          -1.9116    0.5237   -1.0096 H       1  UNL1        0.0579
     38 H          -1.7013   -0.5634   -2.9450 H       1  UNL1        0.0252
     39 H           0.0839   -0.3054   -2.8162 H       1  UNL1        0.0252
     40 H          -0.7016   -1.8500   -2.2574 H       1  UNL1        0.0252
@<TRIPOS>BOND
     1     1     2    1
     2     2     3   ar
     3     3     4   ar
     4     4     5   ar
     5     5     6    1
     6     6     7   ar
     7     7     8   ar
     8     8     9   ar
     9     9    10   ar
    10    10    11    1
    11    11    12    1
    12    12    13    1
    13    13    14   am
    14    14    15    2
    15    14    16    1
    16    16    17   ar
    17    17    18   ar
    18    18    19   ar
    19    19    20    1
    20    19    21   ar
    21    21    22   ar
    22    13    23    1
    23    23    24    1
    24     5    25   ar
    25    25     2   ar
    26    10     6   ar
    27    22    16   ar
    28    23     9    1
    29     1    26    1
    30     1    27    1
    31     1    28    1
    32    11    29    1
    33    11    30    1
    34    12    31    1
    35    12    32    1
    36    17    33    1
    37    18    34    1
    38    21    35    1
    39    22    36    1
    40    23    37    1
    41    24    38    1
    42    24    39    1
    43    24    40    1
