@<TRIPOS>MOLECULE
*****
 49 53 0 0 0
SMALL
GASTEIGER

@<TRIPOS>ATOM
      1 C          -2.4140   -4.2703   -1.8278 C.3     1  UNL1       -0.0376
      2 C          -2.6313   -2.8964   -1.3181 C.ar    1  UNL1       -0.0205
      3 C          -3.8113   -2.2312   -1.0726 C.ar    1  UNL1        0.0082
      4 N          -3.5686   -0.9973   -0.6143 N.ar    1  UNL1       -0.3508
      5 C          -4.5429    0.0086   -0.2418 C.3     1  UNL1        0.0117
      6 C          -2.2036   -0.8732   -0.5662 C.ar    1  UNL1        0.0564
      7 C          -1.5930   -2.0105   -0.9881 C.ar    1  UNL1        0.0630
      8 C          -0.1515   -1.8299   -0.9272 C.2     1  UNL1        0.2538
      9 O           0.7032   -2.7241   -1.2592 O.2     1  UNL1       -0.2695
     10 N           0.0784   -0.5261   -0.4487 N.am    1  UNL1       -0.2530
     11 C           1.4340   -0.0536   -0.3089 C.ar    1  UNL1        0.0545
     12 C           2.1230   -0.2467    0.8646 C.ar    1  UNL1       -0.0324
     13 C           3.4346    0.2096    1.0058 C.ar    1  UNL1       -0.0041
     14 C           4.1861    0.0048    2.2710 C.3     1  UNL1       -0.0361
     15 C           4.0247    0.8594   -0.0597 C.ar    1  UNL1        0.1641
     16 N           5.2508    1.3949   -0.2047 N.ar    1  UNL1       -0.1292
     17 N           5.3698    1.9219   -1.4253 N.ar    1  UNL1       -0.1340
     18 C           4.1966    1.7012   -2.0279 C.ar    1  UNL1        0.1347
     19 C           3.8881    2.1278   -3.4173 C.3     1  UNL1       -0.0041
     20 N           3.3534    1.0495   -1.2081 N.ar    1  UNL1       -0.2846
     21 C           2.0799    0.6025   -1.3353 C.ar    1  UNL1        0.0344
     22 C          -1.1454    0.0916   -0.1953 C.3     1  UNL1        0.0972
     23 C          -1.3690    0.7326    1.0723 C.ar    1  UNL1       -0.0208
     24 C          -1.9270    1.9848    1.1113 C.ar    1  UNL1       -0.0550
     25 C          -2.1709    2.6518    2.2930 C.ar    1  UNL1       -0.0431
     26 C          -1.8468    2.0489    3.4820 C.ar    1  UNL1        0.0410
     27 CL         -2.1393    2.8621    5.0284 Cl      1  UNL1       -0.0835
     28 C          -1.2901    0.8023    3.4714 C.ar    1  UNL1       -0.0431
     29 C          -1.0544    0.1509    2.2633 C.ar    1  UNL1       -0.0550
     30 H          -2.4514   -4.2240   -2.9361 H       1  UNL1        0.0278
     31 H          -1.4039   -4.6185   -1.5170 H       1  UNL1        0.0278
     32 H          -3.1812   -4.9753   -1.4180 H       1  UNL1        0.0278
     33 H          -4.8175   -2.6498   -1.2293 H       1  UNL1        0.0812
     34 H          -5.5676   -0.4153   -0.1892 H       1  UNL1        0.0456
     35 H          -4.5890    0.8151   -1.0162 H       1  UNL1        0.0456
     36 H          -4.3307    0.4049    0.7690 H       1  UNL1        0.0456
     37 H           1.6840   -0.7538    1.7142 H       1  UNL1        0.0640
     38 H           4.1709    0.9694    2.8254 H       1  UNL1        0.0279
     39 H           5.2488   -0.2832    2.0786 H       1  UNL1        0.0279
     40 H           3.7273   -0.8192    2.8551 H       1  UNL1        0.0279
     41 H           3.0794    1.4642   -3.8129 H       1  UNL1        0.0308
     42 H           3.5690    3.1989   -3.4681 H       1  UNL1        0.0308
     43 H           4.7852    2.0275   -4.0583 H       1  UNL1        0.0308
     44 H           1.5241    0.7479   -2.2556 H       1  UNL1        0.0833
     45 H          -1.2413    0.9104   -0.9988 H       1  UNL1        0.0619
     46 H          -2.1985    2.4982    0.1967 H       1  UNL1        0.0621
     47 H          -2.6086    3.6337    2.3192 H       1  UNL1        0.0632
     48 H          -1.0364    0.3318    4.4167 H       1  UNL1        0.0632
     49 H          -0.6262   -0.8088    2.3080 H       1  UNL1        0.0621
@<TRIPOS>BOND
     1     1     2    1
     2     2     3   ar
     3     3     4   ar
     4     4     5    1
     5     4     6   ar
     6     6     7   ar
     7     7     8    1
     8     8     9    2
     9     8    10   am
    10    10    11    1
    11    11    12   ar
    12    12    13   ar
    13    13    14    1
    14    13    15   ar
    15    15    16   ar
    16    16    17   ar
    17    17    18   ar
    18    18    19    1
    19    18    20   ar
    20    20    21   ar
    21    10    22    1
    22    22    23    1
    23    23    24   ar
    24    24    25   ar
    25    25    26   ar
    26    26    27    1
    27    26    28   ar
    28    28    29   ar
    29     7     2   ar
    30    21    11   ar
    31    29    23   ar
    32    22     6    1
    33    20    15   ar
    34     1    30    1
    35     1    31    1
    36     1    32    1
    37     3    33    1
    38     5    34    1
    39     5    35    1
    40     5    36    1
    41    12    37    1
    42    14    38    1
    43    14    39    1
    44    14    40    1
    45    19    41    1
    46    19    42    1
    47    19    43    1
    48    21    44    1
    49    22    45    1
    50    24    46    1
    51    25    47    1
    52    28    48    1
    53    29    49    1
