
     RDKit          3D

 49 53  0  0  0  0  0  0  0  0999 V2000
   -2.4140   -4.2703   -1.8278 C   0  0  0  0  0  0  0  0  0  0  0  0
   -2.6313   -2.8964   -1.3181 C   0  0  0  0  0  0  0  0  0  0  0  0
   -3.8113   -2.2312   -1.0726 C   0  0  0  0  0  0  0  0  0  0  0  0
   -3.5686   -0.9973   -0.6143 N   0  0  0  0  0  0  0  0  0  0  0  0
   -4.5429    0.0086   -0.2418 C   0  0  0  0  0  0  0  0  0  0  0  0
   -2.2036   -0.8732   -0.5662 C   0  0  0  0  0  0  0  0  0  0  0  0
   -1.5930   -2.0105   -0.9881 C   0  0  0  0  0  0  0  0  0  0  0  0
   -0.1515   -1.8299   -0.9272 C   0  0  0  0  0  0  0  0  0  0  0  0
    0.7032   -2.7241   -1.2592 O   0  0  0  0  0  0  0  0  0  0  0  0
    0.0784   -0.5261   -0.4487 N   0  0  0  0  0  0  0  0  0  0  0  0
    1.4340   -0.0536   -0.3089 C   0  0  0  0  0  0  0  0  0  0  0  0
    2.1230   -0.2467    0.8646 C   0  0  0  0  0  0  0  0  0  0  0  0
    3.4346    0.2096    1.0058 C   0  0  0  0  0  0  0  0  0  0  0  0
    4.1861    0.0048    2.2710 C   0  0  0  0  0  0  0  0  0  0  0  0
    4.0247    0.8594   -0.0597 C   0  0  0  0  0  0  0  0  0  0  0  0
    5.2508    1.3949   -0.2047 N   0  0  0  0  0  0  0  0  0  0  0  0
    5.3698    1.9219   -1.4253 N   0  0  0  0  0  0  0  0  0  0  0  0
    4.1966    1.7012   -2.0279 C   0  0  0  0  0  0  0  0  0  0  0  0
    3.8881    2.1278   -3.4173 C   0  0  0  0  0  0  0  0  0  0  0  0
    3.3534    1.0495   -1.2081 N   0  0  0  0  0  0  0  0  0  0  0  0
    2.0799    0.6025   -1.3353 C   0  0  0  0  0  0  0  0  0  0  0  0
   -1.1454    0.0916   -0.1953 C   0  0  0  0  0  0  0  0  0  0  0  0
   -1.3690    0.7326    1.0723 C   0  0  0  0  0  0  0  0  0  0  0  0
   -1.9270    1.9848    1.1113 C   0  0  0  0  0  0  0  0  0  0  0  0
   -2.1709    2.6518    2.2930 C   0  0  0  0  0  0  0  0  0  0  0  0
   -1.8468    2.0489    3.4820 C   0  0  0  0  0  0  0  0  0  0  0  0
   -2.1393    2.8621    5.0284 Cl  0  0  0  0  0  0  0  0  0  0  0  0
   -1.2901    0.8023    3.4714 C   0  0  0  0  0  0  0  0  0  0  0  0
   -1.0544    0.1509    2.2633 C   0  0  0  0  0  0  0  0  0  0  0  0
   -2.4514   -4.2240   -2.9361 H   0  0  0  0  0  0  0  0  0  0  0  0
   -1.4039   -4.6185   -1.5170 H   0  0  0  0  0  0  0  0  0  0  0  0
   -3.1812   -4.9753   -1.4180 H   0  0  0  0  0  0  0  0  0  0  0  0
   -4.8175   -2.6498   -1.2293 H   0  0  0  0  0  0  0  0  0  0  0  0
   -5.5676   -0.4153   -0.1892 H   0  0  0  0  0  0  0  0  0  0  0  0
   -4.5890    0.8151   -1.0162 H   0  0  0  0  0  0  0  0  0  0  0  0
   -4.3307    0.4049    0.7690 H   0  0  0  0  0  0  0  0  0  0  0  0
    1.6840   -0.7538    1.7142 H   0  0  0  0  0  0  0  0  0  0  0  0
    4.1709    0.9694    2.8254 H   0  0  0  0  0  0  0  0  0  0  0  0
    5.2488   -0.2832    2.0786 H   0  0  0  0  0  0  0  0  0  0  0  0
    3.7273   -0.8192    2.8551 H   0  0  0  0  0  0  0  0  0  0  0  0
    3.0794    1.4642   -3.8129 H   0  0  0  0  0  0  0  0  0  0  0  0
    3.5690    3.1989   -3.4681 H   0  0  0  0  0  0  0  0  0  0  0  0
    4.7852    2.0275   -4.0583 H   0  0  0  0  0  0  0  0  0  0  0  0
    1.5241    0.7479   -2.2556 H   0  0  0  0  0  0  0  0  0  0  0  0
   -1.2413    0.9104   -0.9988 H   0  0  0  0  0  0  0  0  0  0  0  0
   -2.1985    2.4982    0.1967 H   0  0  0  0  0  0  0  0  0  0  0  0
   -2.6086    3.6337    2.3192 H   0  0  0  0  0  0  0  0  0  0  0  0
   -1.0364    0.3318    4.4167 H   0  0  0  0  0  0  0  0  0  0  0  0
   -0.6262   -0.8088    2.3080 H   0  0  0  0  0  0  0  0  0  0  0  0
  1  2  1  0
  2  3  2  0
  3  4  1  0
  4  5  1  0
  4  6  1  0
  6  7  2  0
  7  8  1  0
  8  9  2  0
  8 10  1  0
 10 11  1  0
 11 12  1  0
 12 13  2  0
 13 14  1  0
 13 15  1  0
 15 16  2  0
 16 17  1  0
 17 18  2  0
 18 19  1  0
 18 20  1  0
 20 21  1  0
 10 22  1  0
 22 23  1  0
 23 24  2  0
 24 25  1  0
 25 26  2  0
 26 27  1  0
 26 28  1  0
 28 29  2  0
  7  2  1  0
 21 11  2  0
 29 23  1  0
 22  6  1  0
 20 15  1  0
  1 30  1  0
  1 31  1  0
  1 32  1  0
  3 33  1  0
  5 34  1  0
  5 35  1  0
  5 36  1  0
 12 37  1  0
 14 38  1  0
 14 39  1  0
 14 40  1  0
 19 41  1  0
 19 42  1  0
 19 43  1  0
 21 44  1  0
 22 45  1  0
 24 46  1  0
 25 47  1  0
 28 48  1  0
 29 49  1  0
M  END
$$$$
