@<TRIPOS>MOLECULE
*****
 71 74 0 0 0
SMALL
GASTEIGER

@<TRIPOS>ATOM
      1 C          11.9198    2.7150   -1.0586 C.3     1  UNL1       -0.0524
      2 C          11.4120    1.5214   -0.2580 C.3     1  UNL1       -0.0039
      3 N           9.9970    1.4885   -0.1946 N.3     1  UNL1       -0.3023
      4 C           9.2831    1.2123   -1.3819 C.3     1  UNL1        0.0022
      5 C           8.7206   -0.1946   -1.4107 C.3     1  UNL1       -0.0029
      6 C           7.8815   -0.4653   -0.1878 C.3     1  UNL1        0.1026
      7 O           6.6285    0.1246   -0.2311 O.3     1  UNL1       -0.4872
      8 C           5.3917   -0.4459   -0.2019 C.ar    1  UNL1        0.1390
      9 C           5.1219   -1.7812   -0.1178 C.ar    1  UNL1       -0.0162
     10 C           3.8122   -2.2012   -0.0991 C.ar    1  UNL1       -0.0277
     11 C           2.7659   -1.3139   -0.1627 C.ar    1  UNL1        0.1259
     12 C           1.3812   -1.7887   -0.1489 C.2     1  UNL1        0.2666
     13 O           1.1469   -3.0352   -0.0331 O.2     1  UNL1       -0.2682
     14 N           0.3042   -0.8993   -0.2610 N.am    1  UNL1       -0.2802
     15 C          -1.0505   -1.3235   -0.2474 C.ar    1  UNL1        0.0338
     16 C          -1.7456   -1.3658    0.9432 C.ar    1  UNL1       -0.0387
     17 C          -3.0582   -1.7679    1.0477 C.ar    1  UNL1       -0.0387
     18 C          -3.7274   -2.1558   -0.1199 C.ar    1  UNL1        0.0349
     19 N          -5.1060   -2.5698   -0.0165 N.am    1  UNL1       -0.2692
     20 C          -6.1708   -1.6697   -0.1731 C.2     1  UNL1        0.3093
     21 O          -5.9091   -0.4640   -0.4226 O.2     1  UNL1       -0.2521
     22 N          -7.5478   -2.0144   -0.0708 N.am    1  UNL1       -0.2512
     23 C          -8.5777   -1.0481   -0.2560 C.ar    1  UNL1        0.1691
     24 C          -9.1596   -0.2082    0.6677 C.ar    1  UNL1        0.0230
     25 C         -10.1138    0.5444    0.0205 C.ar    1  UNL1        0.1445
     26 C         -11.0261    1.5921    0.5258 C.3     1  UNL1        0.0230
     27 C         -12.3007    0.9626    1.0367 C.3     1  UNL1       -0.0531
     28 C         -10.3134    2.3477    1.6267 C.3     1  UNL1       -0.0531
     29 C         -11.3280    2.5616   -0.6207 C.3     1  UNL1       -0.0531
     30 O         -10.0902    0.1544   -1.2479 O.2     1  UNL1       -0.3573
     31 N          -9.1993   -0.7737   -1.4273 N.ar    1  UNL1       -0.0627
     32 C          -3.0628   -2.1237   -1.3123 C.ar    1  UNL1       -0.0387
     33 C          -1.7379   -1.7122   -1.3798 C.ar    1  UNL1       -0.0387
     34 N           3.0511   -0.0077   -0.2448 N.ar    1  UNL1       -0.2467
     35 C           4.3123    0.4365   -0.2653 C.ar    1  UNL1        0.0701
     36 C           8.5598   -0.0760    1.0813 C.3     1  UNL1       -0.0029
     37 C           9.3865    1.1612    1.0314 C.3     1  UNL1        0.0022
     38 H          11.3514    2.8187   -2.0019 H       1  UNL1        0.0242
     39 H          12.9782    2.6196   -1.3124 H       1  UNL1        0.0242
     40 H          11.7735    3.6645   -0.4949 H       1  UNL1        0.0242
     41 H          11.8289    1.6209    0.7637 H       1  UNL1        0.0424
     42 H          11.8664    0.6050   -0.7022 H       1  UNL1        0.0424
     43 H           8.4293    1.9129   -1.4689 H       1  UNL1        0.0428
     44 H           9.9172    1.4114   -2.2740 H       1  UNL1        0.0428
     45 H           9.5913   -0.8908   -1.4039 H       1  UNL1        0.0313
     46 H           8.1956   -0.3303   -2.3556 H       1  UNL1        0.0313
     47 H           7.7458   -1.5827   -0.1478 H       1  UNL1        0.0733
     48 H           5.9486   -2.4895   -0.0670 H       1  UNL1        0.0655
     49 H           3.6092   -3.2667   -0.0316 H       1  UNL1        0.0641
     50 H           0.5124    0.1404   -0.3607 H       1  UNL1        0.1552
     51 H          -1.2189   -1.0619    1.8510 H       1  UNL1        0.0637
     52 H          -3.6210   -1.8082    1.9664 H       1  UNL1        0.0637
     53 H          -5.3117   -3.5736    0.1830 H       1  UNL1        0.1564
     54 H          -7.8005   -3.0051    0.1374 H       1  UNL1        0.1579
     55 H          -8.9295   -0.1321    1.7126 H       1  UNL1        0.0688
     56 H         -13.1985    1.3975    0.5476 H       1  UNL1        0.0239
     57 H         -12.2867   -0.1412    0.9161 H       1  UNL1        0.0239
     58 H         -12.3764    1.1642    2.1233 H       1  UNL1        0.0239
     59 H          -9.2660    2.4925    1.2924 H       1  UNL1        0.0239
     60 H         -10.8236    3.2972    1.8817 H       1  UNL1        0.0239
     61 H         -10.2759    1.7127    2.5181 H       1  UNL1        0.0239
     62 H         -10.5292    3.2987   -0.7233 H       1  UNL1        0.0239
     63 H         -11.4037    1.9811   -1.5787 H       1  UNL1        0.0239
     64 H         -12.2660    3.0987   -0.4053 H       1  UNL1        0.0239
     65 H          -3.5960   -2.4280   -2.2113 H       1  UNL1        0.0637
     66 H          -1.2318   -1.6959   -2.3471 H       1  UNL1        0.0637
     67 H           4.4804    1.5193   -0.3331 H       1  UNL1        0.0867
     68 H           9.2242   -0.9283    1.3980 H       1  UNL1        0.0313
     69 H           7.8335    0.0221    1.9397 H       1  UNL1        0.0313
     70 H          10.2113    1.0905    1.8047 H       1  UNL1        0.0428
     71 H           8.7875    2.0498    1.4077 H       1  UNL1        0.0428
@<TRIPOS>BOND
     1     1     2    1
     2     2     3    1
     3     3     4    1
     4     4     5    1
     5     5     6    1
     6     6     7    1
     7     7     8    1
     8     8     9   ar
     9     9    10   ar
    10    10    11   ar
    11    11    12    1
    12    12    13    2
    13    12    14   am
    14    14    15    1
    15    15    16   ar
    16    16    17   ar
    17    17    18   ar
    18    18    19    1
    19    19    20   am
    20    20    21    2
    21    20    22   am
    22    22    23    1
    23    23    24   ar
    24    24    25   ar
    25    25    26    1
    26    26    27    1
    27    26    28    1
    28    26    29    1
    29    25    30   ar
    30    30    31   ar
    31    18    32   ar
    32    32    33   ar
    33    11    34   ar
    34    34    35   ar
    35     6    36    1
    36    36    37    1
    37    37     3    1
    38    35     8   ar
    39    33    15   ar
    40    31    23   ar
    41     1    38    1
    42     1    39    1
    43     1    40    1
    44     2    41    1
    45     2    42    1
    46     4    43    1
    47     4    44    1
    48     5    45    1
    49     5    46    1
    50     6    47    1
    51     9    48    1
    52    10    49    1
    53    14    50    1
    54    16    51    1
    55    17    52    1
    56    19    53    1
    57    22    54    1
    58    24    55    1
    59    27    56    1
    60    27    57    1
    61    27    58    1
    62    28    59    1
    63    28    60    1
    64    28    61    1
    65    29    62    1
    66    29    63    1
    67    29    64    1
    68    32    65    1
    69    33    66    1
    70    35    67    1
    71    36    68    1
    72    36    69    1
    73    37    70    1
    74    37    71    1
