
     RDKit          3D

 71 74  0  0  0  0  0  0  0  0999 V2000
   11.9198    2.7150   -1.0586 C   0  0  0  0  0  0  0  0  0  0  0  0
   11.4120    1.5214   -0.2580 C   0  0  0  0  0  0  0  0  0  0  0  0
    9.9970    1.4885   -0.1946 N   0  0  0  0  0  0  0  0  0  0  0  0
    9.2831    1.2123   -1.3819 C   0  0  0  0  0  0  0  0  0  0  0  0
    8.7206   -0.1946   -1.4107 C   0  0  0  0  0  0  0  0  0  0  0  0
    7.8815   -0.4653   -0.1878 C   0  0  0  0  0  0  0  0  0  0  0  0
    6.6285    0.1246   -0.2311 O   0  0  0  0  0  0  0  0  0  0  0  0
    5.3917   -0.4459   -0.2019 C   0  0  0  0  0  0  0  0  0  0  0  0
    5.1219   -1.7812   -0.1178 C   0  0  0  0  0  0  0  0  0  0  0  0
    3.8122   -2.2012   -0.0991 C   0  0  0  0  0  0  0  0  0  0  0  0
    2.7659   -1.3139   -0.1627 C   0  0  0  0  0  0  0  0  0  0  0  0
    1.3812   -1.7887   -0.1489 C   0  0  0  0  0  0  0  0  0  0  0  0
    1.1469   -3.0352   -0.0331 O   0  0  0  0  0  0  0  0  0  0  0  0
    0.3042   -0.8993   -0.2610 N   0  0  0  0  0  0  0  0  0  0  0  0
   -1.0505   -1.3235   -0.2474 C   0  0  0  0  0  0  0  0  0  0  0  0
   -1.7456   -1.3658    0.9432 C   0  0  0  0  0  0  0  0  0  0  0  0
   -3.0582   -1.7679    1.0477 C   0  0  0  0  0  0  0  0  0  0  0  0
   -3.7274   -2.1558   -0.1199 C   0  0  0  0  0  0  0  0  0  0  0  0
   -5.1060   -2.5698   -0.0165 N   0  0  0  0  0  0  0  0  0  0  0  0
   -6.1708   -1.6697   -0.1731 C   0  0  0  0  0  0  0  0  0  0  0  0
   -5.9091   -0.4640   -0.4226 O   0  0  0  0  0  0  0  0  0  0  0  0
   -7.5478   -2.0144   -0.0708 N   0  0  0  0  0  0  0  0  0  0  0  0
   -8.5777   -1.0481   -0.2560 C   0  0  0  0  0  0  0  0  0  0  0  0
   -9.1596   -0.2082    0.6677 C   0  0  0  0  0  0  0  0  0  0  0  0
  -10.1138    0.5444    0.0205 C   0  0  0  0  0  0  0  0  0  0  0  0
  -11.0261    1.5921    0.5258 C   0  0  0  0  0  0  0  0  0  0  0  0
  -12.3007    0.9626    1.0367 C   0  0  0  0  0  0  0  0  0  0  0  0
  -10.3134    2.3477    1.6267 C   0  0  0  0  0  0  0  0  0  0  0  0
  -11.3280    2.5616   -0.6207 C   0  0  0  0  0  0  0  0  0  0  0  0
  -10.0902    0.1544   -1.2479 O   0  0  0  0  0  0  0  0  0  0  0  0
   -9.1993   -0.7737   -1.4273 N   0  0  0  0  0  0  0  0  0  0  0  0
   -3.0628   -2.1237   -1.3123 C   0  0  0  0  0  0  0  0  0  0  0  0
   -1.7379   -1.7122   -1.3798 C   0  0  0  0  0  0  0  0  0  0  0  0
    3.0511   -0.0077   -0.2448 N   0  0  0  0  0  0  0  0  0  0  0  0
    4.3123    0.4365   -0.2653 C   0  0  0  0  0  0  0  0  0  0  0  0
    8.5598   -0.0760    1.0813 C   0  0  0  0  0  0  0  0  0  0  0  0
    9.3865    1.1612    1.0314 C   0  0  0  0  0  0  0  0  0  0  0  0
   11.3514    2.8187   -2.0019 H   0  0  0  0  0  0  0  0  0  0  0  0
   12.9782    2.6196   -1.3124 H   0  0  0  0  0  0  0  0  0  0  0  0
   11.7735    3.6645   -0.4949 H   0  0  0  0  0  0  0  0  0  0  0  0
   11.8289    1.6209    0.7637 H   0  0  0  0  0  0  0  0  0  0  0  0
   11.8664    0.6050   -0.7022 H   0  0  0  0  0  0  0  0  0  0  0  0
    8.4293    1.9129   -1.4689 H   0  0  0  0  0  0  0  0  0  0  0  0
    9.9172    1.4114   -2.2740 H   0  0  0  0  0  0  0  0  0  0  0  0
    9.5913   -0.8908   -1.4039 H   0  0  0  0  0  0  0  0  0  0  0  0
    8.1956   -0.3303   -2.3556 H   0  0  0  0  0  0  0  0  0  0  0  0
    7.7458   -1.5827   -0.1478 H   0  0  0  0  0  0  0  0  0  0  0  0
    5.9486   -2.4895   -0.0670 H   0  0  0  0  0  0  0  0  0  0  0  0
    3.6092   -3.2667   -0.0316 H   0  0  0  0  0  0  0  0  0  0  0  0
    0.5124    0.1404   -0.3607 H   0  0  0  0  0  0  0  0  0  0  0  0
   -1.2189   -1.0619    1.8510 H   0  0  0  0  0  0  0  0  0  0  0  0
   -3.6210   -1.8082    1.9664 H   0  0  0  0  0  0  0  0  0  0  0  0
   -5.3117   -3.5736    0.1830 H   0  0  0  0  0  0  0  0  0  0  0  0
   -7.8005   -3.0051    0.1374 H   0  0  0  0  0  0  0  0  0  0  0  0
   -8.9295   -0.1321    1.7126 H   0  0  0  0  0  0  0  0  0  0  0  0
  -13.1985    1.3975    0.5476 H   0  0  0  0  0  0  0  0  0  0  0  0
  -12.2867   -0.1412    0.9161 H   0  0  0  0  0  0  0  0  0  0  0  0
  -12.3764    1.1642    2.1233 H   0  0  0  0  0  0  0  0  0  0  0  0
   -9.2660    2.4925    1.2924 H   0  0  0  0  0  0  0  0  0  0  0  0
  -10.8236    3.2972    1.8817 H   0  0  0  0  0  0  0  0  0  0  0  0
  -10.2759    1.7127    2.5181 H   0  0  0  0  0  0  0  0  0  0  0  0
  -10.5292    3.2987   -0.7233 H   0  0  0  0  0  0  0  0  0  0  0  0
  -11.4037    1.9811   -1.5787 H   0  0  0  0  0  0  0  0  0  0  0  0
  -12.2660    3.0987   -0.4053 H   0  0  0  0  0  0  0  0  0  0  0  0
   -3.5960   -2.4280   -2.2113 H   0  0  0  0  0  0  0  0  0  0  0  0
   -1.2318   -1.6959   -2.3471 H   0  0  0  0  0  0  0  0  0  0  0  0
    4.4804    1.5193   -0.3331 H   0  0  0  0  0  0  0  0  0  0  0  0
    9.2242   -0.9283    1.3980 H   0  0  0  0  0  0  0  0  0  0  0  0
    7.8335    0.0221    1.9397 H   0  0  0  0  0  0  0  0  0  0  0  0
   10.2113    1.0905    1.8047 H   0  0  0  0  0  0  0  0  0  0  0  0
    8.7875    2.0498    1.4077 H   0  0  0  0  0  0  0  0  0  0  0  0
  1  2  1  0
  2  3  1  0
  3  4  1  0
  4  5  1  0
  5  6  1  0
  6  7  1  0
  7  8  1  0
  8  9  2  0
  9 10  1  0
 10 11  2  0
 11 12  1  0
 12 13  2  0
 12 14  1  0
 14 15  1  0
 15 16  2  0
 16 17  1  0
 17 18  2  0
 18 19  1  0
 19 20  1  0
 20 21  2  0
 20 22  1  0
 22 23  1  0
 23 24  1  0
 24 25  2  0
 25 26  1  0
 26 27  1  0
 26 28  1  0
 26 29  1  0
 25 30  1  0
 30 31  1  0
 18 32  1  0
 32 33  2  0
 11 34  1  0
 34 35  2  0
  6 36  1  0
 36 37  1  0
 37  3  1  0
 35  8  1  0
 33 15  1  0
 31 23  2  0
  1 38  1  0
  1 39  1  0
  1 40  1  0
  2 41  1  0
  2 42  1  0
  4 43  1  0
  4 44  1  0
  5 45  1  0
  5 46  1  0
  6 47  1  0
  9 48  1  0
 10 49  1  0
 14 50  1  0
 16 51  1  0
 17 52  1  0
 19 53  1  0
 22 54  1  0
 24 55  1  0
 27 56  1  0
 27 57  1  0
 27 58  1  0
 28 59  1  0
 28 60  1  0
 28 61  1  0
 29 62  1  0
 29 63  1  0
 29 64  1  0
 32 65  1  0
 33 66  1  0
 35 67  1  0
 36 68  1  0
 36 69  1  0
 37 70  1  0
 37 71  1  0
M  END
$$$$
