@<TRIPOS>MOLECULE
*****
 68 72 0 0 0
SMALL
GASTEIGER

@<TRIPOS>ATOM
      1 C          -2.5769    5.1302    1.7314 C.3     1  UNL1       -0.0653
      2 C          -3.8091    4.5262    1.1315 C.3     1  UNL1       -0.0556
      3 C          -3.5712    3.0798    0.8166 C.3     1  UNL1       -0.0478
      4 C          -2.4379    2.8745   -0.2011 C.3     1  UNL1       -0.0084
      5 C          -2.3294    1.4266   -0.3892 C.ar    1  UNL1        0.0677
      6 N          -2.9128    0.7444   -1.3954 N.ar    1  UNL1       -0.1703
      7 N          -2.7267   -0.5457   -1.2782 N.ar    1  UNL1       -0.2237
      8 C          -3.1759   -1.5881   -2.1311 C.ar    1  UNL1        0.0860
      9 C          -2.5409   -1.8763   -3.3344 C.ar    1  UNL1       -0.0347
     10 C          -2.9291   -2.8611   -4.1840 C.ar    1  UNL1       -0.0583
     11 C          -4.0332   -3.6123   -3.8020 C.ar    1  UNL1       -0.0418
     12 C          -4.6772   -3.3429   -2.6135 C.ar    1  UNL1        0.0613
     13 CL         -6.0716   -4.2857   -2.1236 Cl      1  UNL1       -0.0820
     14 C          -4.2646   -2.3457   -1.7781 C.ar    1  UNL1        0.0846
     15 CL         -5.0922   -2.0003   -0.2515 Cl      1  UNL1       -0.0798
     16 C          -1.9928   -0.7349   -0.1544 C.ar    1  UNL1        0.1549
     17 C          -1.5896   -2.0497    0.3171 C.2     1  UNL1        0.3581
     18 O          -0.9269   -2.2644    1.3541 O.2     1  UNL1       -0.2432
     19 O          -1.9384   -3.2132   -0.3998 O.3     1  UNL1       -0.4604
     20 C          -1.5410   -4.4989    0.0666 C.3     1  UNL1        0.0900
     21 C          -2.1192   -4.7523    1.4516 C.3     1  UNL1       -0.0306
     22 C          -1.7128    0.5006    0.4445 C.ar    1  UNL1        0.0123
     23 C          -0.8662    0.7271    1.6366 C.3     1  UNL1        0.0016
     24 C           0.5739    0.8759    1.3753 C.ar    1  UNL1       -0.0429
     25 C           1.1335    1.9005    0.6773 C.ar    1  UNL1       -0.0577
     26 C           2.5100    1.9950    0.4737 C.ar    1  UNL1       -0.0537
     27 C           3.3675    1.0451    0.9759 C.ar    1  UNL1       -0.0172
     28 C           4.7980    1.1810    0.7451 C.ar    1  UNL1       -0.0072
     29 C           5.5245    2.2213    1.3376 C.ar    1  UNL1       -0.0534
     30 C           6.8660    2.3952    1.1726 C.ar    1  UNL1       -0.0611
     31 C           7.5482    1.4922    0.3742 C.ar    1  UNL1       -0.0611
     32 C           6.8467    0.4712   -0.2097 C.ar    1  UNL1       -0.0504
     33 C           5.4848    0.2987   -0.0398 C.ar    1  UNL1        0.0282
     34 C           4.8297   -0.7913   -0.7080 C.ar    1  UNL1        0.1799
     35 N           3.5353   -1.1011   -0.7237 N.ar    1  UNL1       -0.1084
     36 N           3.3345   -2.1723   -1.4607 N.ar    1  UNL1       -0.0229
     37 N           4.5094   -2.5449   -1.9162 N.ar    1  UNL1       -0.0464
     38 N           5.4501   -1.7312   -1.4820 N.ar    1  UNL1       -0.2388
     39 C           2.8344    0.0102    1.6781 C.ar    1  UNL1       -0.0537
     40 C           1.4847   -0.0740    1.8735 C.ar    1  UNL1       -0.0577
     41 H          -2.8026    5.4566    2.7744 H       1  UNL1        0.0230
     42 H          -2.2058    5.9992    1.1374 H       1  UNL1        0.0230
     43 H          -1.7816    4.3928    1.7970 H       1  UNL1        0.0230
     44 H          -4.6680    4.6564    1.8390 H       1  UNL1        0.0263
     45 H          -4.0902    5.0813    0.2039 H       1  UNL1        0.0263
     46 H          -4.5271    2.7008    0.3481 H       1  UNL1        0.0269
     47 H          -3.4265    2.4736    1.7231 H       1  UNL1        0.0269
     48 H          -2.8498    3.3126   -1.1654 H       1  UNL1        0.0329
     49 H          -1.5529    3.4185    0.0702 H       1  UNL1        0.0329
     50 H          -1.6716   -1.2686   -3.6136 H       1  UNL1        0.0639
     51 H          -2.4276   -3.0741   -5.1145 H       1  UNL1        0.0619
     52 H          -4.3548   -4.4061   -4.4759 H       1  UNL1        0.0633
     53 H          -0.4299   -4.5460    0.1708 H       1  UNL1        0.0695
     54 H          -1.8183   -5.2667   -0.6606 H       1  UNL1        0.0695
     55 H          -3.0288   -4.1756    1.6336 H       1  UNL1        0.0262
     56 H          -1.3481   -4.5522    2.2438 H       1  UNL1        0.0262
     57 H          -2.3720   -5.8271    1.5350 H       1  UNL1        0.0262
     58 H          -1.0174   -0.1700    2.3074 H       1  UNL1        0.0363
     59 H          -1.2745    1.6245    2.1740 H       1  UNL1        0.0363
     60 H           0.5085    2.6719    0.2609 H       1  UNL1        0.0621
     61 H           2.8732    2.8371   -0.0884 H       1  UNL1        0.0624
     62 H           4.9776    2.9127    1.9532 H       1  UNL1        0.0624
     63 H           7.3943    3.2247    1.6550 H       1  UNL1        0.0618
     64 H           8.6170    1.6435    0.2516 H       1  UNL1        0.0618
     65 H           7.4142   -0.2174   -0.8295 H       1  UNL1        0.0625
     66 H           6.4796   -1.7997   -1.6968 H       1  UNL1        0.1923
     67 H           3.5316   -0.7291    2.0682 H       1  UNL1        0.0624
     68 H           1.0558   -0.8829    2.4411 H       1  UNL1        0.0621
@<TRIPOS>BOND
     1     1     2    1
     2     2     3    1
     3     3     4    1
     4     4     5    1
     5     5     6   ar
     6     6     7   ar
     7     7     8    1
     8     8     9   ar
     9     9    10   ar
    10    10    11   ar
    11    11    12   ar
    12    12    13    1
    13    12    14   ar
    14    14    15    1
    15     7    16   ar
    16    16    17    1
    17    17    18    2
    18    17    19    1
    19    19    20    1
    20    20    21    1
    21    16    22   ar
    22    22    23    1
    23    23    24    1
    24    24    25   ar
    25    25    26   ar
    26    26    27   ar
    27    27    28    1
    28    28    29   ar
    29    29    30   ar
    30    30    31   ar
    31    31    32   ar
    32    32    33   ar
    33    33    34    1
    34    34    35   ar
    35    35    36   ar
    36    36    37   ar
    37    37    38   ar
    38    27    39   ar
    39    39    40   ar
    40    22     5   ar
    41    40    24   ar
    42    14     8   ar
    43    33    28   ar
    44    38    34   ar
    45     1    41    1
    46     1    42    1
    47     1    43    1
    48     2    44    1
    49     2    45    1
    50     3    46    1
    51     3    47    1
    52     4    48    1
    53     4    49    1
    54     9    50    1
    55    10    51    1
    56    11    52    1
    57    20    53    1
    58    20    54    1
    59    21    55    1
    60    21    56    1
    61    21    57    1
    62    23    58    1
    63    23    59    1
    64    25    60    1
    65    26    61    1
    66    29    62    1
    67    30    63    1
    68    31    64    1
    69    32    65    1
    70    38    66    1
    71    39    67    1
    72    40    68    1
