@<TRIPOS>MOLECULE
*****
 66 69 0 0 0
SMALL
GASTEIGER

@<TRIPOS>ATOM
      1 C           0.2527    0.5844   -2.3435 C.3     1  UNL1       -0.0421
      2 C           0.3586   -0.7015   -1.5217 C.3     1  UNL1        0.0515
      3 C           1.6716   -0.7413   -0.9012 C.ar    1  UNL1       -0.0271
      4 C           2.3406    0.3197   -0.3153 C.ar    1  UNL1       -0.0562
      5 C           3.6009    0.1348    0.2352 C.ar    1  UNL1       -0.0537
      6 C           4.2483   -1.0569    0.2409 C.ar    1  UNL1       -0.0165
      7 C           5.5627   -1.2719    0.8148 C.ar    1  UNL1       -0.0015
      8 C           5.8999   -2.4950    1.3651 C.ar    1  UNL1       -0.0475
      9 C           7.1491   -2.7154    1.9228 C.ar    1  UNL1        0.0036
     10 C           8.0989   -1.7190    1.9479 C.ar    1  UNL1        0.2511
     11 O           9.2377   -1.8875    2.4468 O.2     1  UNL1       -0.2677
     12 N           7.7517   -0.5161    1.4009 N.ar    1  UNL1       -0.3177
     13 C           8.7596    0.5217    1.4399 C.3     1  UNL1        0.0147
     14 C           6.5412   -0.3071    0.8618 C.ar    1  UNL1        0.0153
     15 C           3.5921   -2.1295   -0.3422 C.ar    1  UNL1       -0.0537
     16 C           2.3602   -1.9562   -0.8830 C.ar    1  UNL1       -0.0562
     17 N          -0.7837   -0.9167   -0.7089 N.am    1  UNL1       -0.2605
     18 C          -1.7933   -1.9473   -1.0164 C.3     1  UNL1        0.0224
     19 C          -3.0327   -1.1427   -1.3407 C.3     1  UNL1        0.0075
     20 C          -3.3766   -0.0810   -0.3303 C.3     1  UNL1        0.1428
     21 C          -4.7393   -0.3819    0.2309 C.3     1  UNL1        0.0095
     22 C          -5.2283    0.5593    1.2769 C.3     1  UNL1        0.0557
     23 C          -6.6089    0.0915    1.6990 C.3     1  UNL1       -0.0468
     24 C          -4.3888    0.5168    2.5381 C.3     1  UNL1       -0.0468
     25 C          -5.3831    1.9432    0.8304 C.1     1  UNL1        0.0688
     26 N          -5.4977    3.0245    0.4629 N.1     1  UNL1       -0.1960
     27 C          -3.3944    1.2082   -1.1207 C.ar    1  UNL1       -0.0039
     28 C          -2.4620    2.1861   -0.9457 C.ar    1  UNL1       -0.0521
     29 C          -2.5195    3.3163   -1.7166 C.ar    1  UNL1       -0.0261
     30 C          -3.4861    3.5214   -2.6762 C.ar    1  UNL1        0.1234
     31 F          -3.5424    4.6467   -3.4417 F       1  UNL1       -0.2055
     32 C          -4.4175    2.5055   -2.8272 C.ar    1  UNL1       -0.0261
     33 C          -4.3666    1.3733   -2.0608 C.ar    1  UNL1       -0.0521
     34 O          -2.4515    0.0552    0.7249 O.3     1  UNL1       -0.4388
     35 C          -1.0894   -0.1557    0.4344 C.2     1  UNL1        0.4042
     36 O          -0.1737    0.3022    1.1447 O.2     1  UNL1       -0.2262
     37 H           0.9292    0.5518   -3.2211 H       1  UNL1        0.0251
     38 H           0.4360    1.4412   -1.6812 H       1  UNL1        0.0251
     39 H          -0.7830    0.6728   -2.7297 H       1  UNL1        0.0251
     40 H           0.3385   -1.5019   -2.3370 H       1  UNL1        0.0549
     41 H           1.8633    1.2782   -0.3088 H       1  UNL1        0.0621
     42 H           4.1025    0.9956    0.6894 H       1  UNL1        0.0624
     43 H           5.1811   -3.3137    1.3686 H       1  UNL1        0.0626
     44 H           7.4230   -3.6833    2.3612 H       1  UNL1        0.0672
     45 H           9.3903    0.4998    0.5092 H       1  UNL1        0.0457
     46 H           8.2919    1.5512    1.4173 H       1  UNL1        0.0457
     47 H           9.4057    0.4542    2.3460 H       1  UNL1        0.0457
     48 H           6.2647    0.6618    0.4258 H       1  UNL1        0.0816
     49 H           4.0775   -3.0839   -0.3554 H       1  UNL1        0.0624
     50 H           1.8619   -2.8159   -1.3384 H       1  UNL1        0.0621
     51 H          -1.5114   -2.4843   -1.9488 H       1  UNL1        0.0467
     52 H          -1.9247   -2.6236   -0.1682 H       1  UNL1        0.0467
     53 H          -3.8800   -1.8588   -1.4704 H       1  UNL1        0.0322
     54 H          -2.8113   -0.7056   -2.3630 H       1  UNL1        0.0322
     55 H          -4.6990   -1.3908    0.6984 H       1  UNL1        0.0322
     56 H          -5.5240   -0.4579   -0.5515 H       1  UNL1        0.0322
     57 H          -7.3004    0.4379    0.8915 H       1  UNL1        0.0245
     58 H          -6.9321    0.5479    2.6622 H       1  UNL1        0.0245
     59 H          -6.5853   -0.9977    1.7210 H       1  UNL1        0.0245
     60 H          -4.0217   -0.4848    2.7643 H       1  UNL1        0.0245
     61 H          -4.9444    0.8807    3.4234 H       1  UNL1        0.0245
     62 H          -3.5622    1.2612    2.3833 H       1  UNL1        0.0245
     63 H          -1.6709    2.1191   -0.2160 H       1  UNL1        0.0622
     64 H          -1.7738    4.1237   -1.5978 H       1  UNL1        0.0646
     65 H          -5.1933    2.6355   -3.5765 H       1  UNL1        0.0646
     66 H          -5.1385    0.6012   -2.2350 H       1  UNL1        0.0622
@<TRIPOS>BOND
     1     1     2    1
     2     2     3    1
     3     3     4   ar
     4     4     5   ar
     5     5     6   ar
     6     6     7    1
     7     7     8   ar
     8     8     9   ar
     9     9    10   ar
    10    10    11    2
    11    10    12   ar
    12    12    13    1
    13    12    14   ar
    14     6    15   ar
    15    15    16   ar
    16     2    17    1
    17    17    18    1
    18    18    19    1
    19    19    20    1
    20    20    21    1
    21    21    22    1
    22    22    23    1
    23    22    24    1
    24    22    25    1
    25    25    26    3
    26    20    27    1
    27    27    28   ar
    28    28    29   ar
    29    29    30   ar
    30    30    31    1
    31    30    32   ar
    32    32    33   ar
    33    20    34    1
    34    34    35    1
    35    35    36    2
    36    16     3   ar
    37    35    17   am
    38    14     7   ar
    39    33    27   ar
    40     1    37    1
    41     1    38    1
    42     1    39    1
    43     2    40    1
    44     4    41    1
    45     5    42    1
    46     8    43    1
    47     9    44    1
    48    13    45    1
    49    13    46    1
    50    13    47    1
    51    14    48    1
    52    15    49    1
    53    16    50    1
    54    18    51    1
    55    18    52    1
    56    19    53    1
    57    19    54    1
    58    21    55    1
    59    21    56    1
    60    23    57    1
    61    23    58    1
    62    23    59    1
    63    24    60    1
    64    24    61    1
    65    24    62    1
    66    28    63    1
    67    29    64    1
    68    32    65    1
    69    33    66    1
