
     RDKit          3D

 66 69  0  0  0  0  0  0  0  0999 V2000
    0.2527    0.5844   -2.3435 C   0  0  0  0  0  0  0  0  0  0  0  0
    0.3586   -0.7015   -1.5217 C   0  0  1  0  0  0  0  0  0  0  0  0
    1.6716   -0.7413   -0.9012 C   0  0  0  0  0  0  0  0  0  0  0  0
    2.3406    0.3197   -0.3153 C   0  0  0  0  0  0  0  0  0  0  0  0
    3.6009    0.1348    0.2352 C   0  0  0  0  0  0  0  0  0  0  0  0
    4.2483   -1.0569    0.2409 C   0  0  0  0  0  0  0  0  0  0  0  0
    5.5627   -1.2719    0.8148 C   0  0  0  0  0  0  0  0  0  0  0  0
    5.8999   -2.4950    1.3651 C   0  0  0  0  0  0  0  0  0  0  0  0
    7.1491   -2.7154    1.9228 C   0  0  0  0  0  0  0  0  0  0  0  0
    8.0989   -1.7190    1.9479 C   0  0  0  0  0  0  0  0  0  0  0  0
    9.2377   -1.8875    2.4468 O   0  0  0  0  0  0  0  0  0  0  0  0
    7.7517   -0.5161    1.4009 N   0  0  0  0  0  0  0  0  0  0  0  0
    8.7596    0.5217    1.4399 C   0  0  0  0  0  0  0  0  0  0  0  0
    6.5412   -0.3071    0.8618 C   0  0  0  0  0  0  0  0  0  0  0  0
    3.5921   -2.1295   -0.3422 C   0  0  0  0  0  0  0  0  0  0  0  0
    2.3602   -1.9562   -0.8830 C   0  0  0  0  0  0  0  0  0  0  0  0
   -0.7837   -0.9167   -0.7089 N   0  0  0  0  0  0  0  0  0  0  0  0
   -1.7933   -1.9473   -1.0164 C   0  0  0  0  0  0  0  0  0  0  0  0
   -3.0327   -1.1427   -1.3407 C   0  0  0  0  0  0  0  0  0  0  0  0
   -3.3766   -0.0810   -0.3303 C   0  0  2  0  0  0  0  0  0  0  0  0
   -4.7393   -0.3819    0.2309 C   0  0  0  0  0  0  0  0  0  0  0  0
   -5.2283    0.5593    1.2769 C   0  0  0  0  0  0  0  0  0  0  0  0
   -6.6089    0.0915    1.6990 C   0  0  0  0  0  0  0  0  0  0  0  0
   -4.3888    0.5168    2.5381 C   0  0  0  0  0  0  0  0  0  0  0  0
   -5.3831    1.9432    0.8304 C   0  0  0  0  0  0  0  0  0  0  0  0
   -5.4977    3.0245    0.4629 N   0  0  0  0  0  0  0  0  0  0  0  0
   -3.3944    1.2082   -1.1207 C   0  0  0  0  0  0  0  0  0  0  0  0
   -2.4620    2.1861   -0.9457 C   0  0  0  0  0  0  0  0  0  0  0  0
   -2.5195    3.3163   -1.7166 C   0  0  0  0  0  0  0  0  0  0  0  0
   -3.4861    3.5214   -2.6762 C   0  0  0  0  0  0  0  0  0  0  0  0
   -3.5424    4.6467   -3.4417 F   0  0  0  0  0  0  0  0  0  0  0  0
   -4.4175    2.5055   -2.8272 C   0  0  0  0  0  0  0  0  0  0  0  0
   -4.3666    1.3733   -2.0608 C   0  0  0  0  0  0  0  0  0  0  0  0
   -2.4515    0.0552    0.7249 O   0  0  0  0  0  0  0  0  0  0  0  0
   -1.0894   -0.1557    0.4344 C   0  0  0  0  0  0  0  0  0  0  0  0
   -0.1737    0.3022    1.1447 O   0  0  0  0  0  0  0  0  0  0  0  0
    0.9292    0.5518   -3.2211 H   0  0  0  0  0  0  0  0  0  0  0  0
    0.4360    1.4412   -1.6812 H   0  0  0  0  0  0  0  0  0  0  0  0
   -0.7830    0.6728   -2.7297 H   0  0  0  0  0  0  0  0  0  0  0  0
    0.3385   -1.5019   -2.3370 H   0  0  0  0  0  0  0  0  0  0  0  0
    1.8633    1.2782   -0.3088 H   0  0  0  0  0  0  0  0  0  0  0  0
    4.1025    0.9956    0.6894 H   0  0  0  0  0  0  0  0  0  0  0  0
    5.1811   -3.3137    1.3686 H   0  0  0  0  0  0  0  0  0  0  0  0
    7.4230   -3.6833    2.3612 H   0  0  0  0  0  0  0  0  0  0  0  0
    9.3903    0.4998    0.5092 H   0  0  0  0  0  0  0  0  0  0  0  0
    8.2919    1.5512    1.4173 H   0  0  0  0  0  0  0  0  0  0  0  0
    9.4057    0.4542    2.3460 H   0  0  0  0  0  0  0  0  0  0  0  0
    6.2647    0.6618    0.4258 H   0  0  0  0  0  0  0  0  0  0  0  0
    4.0775   -3.0839   -0.3554 H   0  0  0  0  0  0  0  0  0  0  0  0
    1.8619   -2.8159   -1.3384 H   0  0  0  0  0  0  0  0  0  0  0  0
   -1.5114   -2.4843   -1.9488 H   0  0  0  0  0  0  0  0  0  0  0  0
   -1.9247   -2.6236   -0.1682 H   0  0  0  0  0  0  0  0  0  0  0  0
   -3.8800   -1.8588   -1.4704 H   0  0  0  0  0  0  0  0  0  0  0  0
   -2.8113   -0.7056   -2.3630 H   0  0  0  0  0  0  0  0  0  0  0  0
   -4.6990   -1.3908    0.6984 H   0  0  0  0  0  0  0  0  0  0  0  0
   -5.5240   -0.4579   -0.5515 H   0  0  0  0  0  0  0  0  0  0  0  0
   -7.3004    0.4379    0.8915 H   0  0  0  0  0  0  0  0  0  0  0  0
   -6.9321    0.5479    2.6622 H   0  0  0  0  0  0  0  0  0  0  0  0
   -6.5853   -0.9977    1.7210 H   0  0  0  0  0  0  0  0  0  0  0  0
   -4.0217   -0.4848    2.7643 H   0  0  0  0  0  0  0  0  0  0  0  0
   -4.9444    0.8807    3.4234 H   0  0  0  0  0  0  0  0  0  0  0  0
   -3.5622    1.2612    2.3833 H   0  0  0  0  0  0  0  0  0  0  0  0
   -1.6709    2.1191   -0.2160 H   0  0  0  0  0  0  0  0  0  0  0  0
   -1.7738    4.1237   -1.5978 H   0  0  0  0  0  0  0  0  0  0  0  0
   -5.1933    2.6355   -3.5765 H   0  0  0  0  0  0  0  0  0  0  0  0
   -5.1385    0.6012   -2.2350 H   0  0  0  0  0  0  0  0  0  0  0  0
  1  2  1  0
  2  3  1  0
  3  4  2  0
  4  5  1  0
  5  6  2  0
  6  7  1  0
  7  8  1  0
  8  9  2  0
  9 10  1  0
 10 11  2  0
 10 12  1  0
 12 13  1  0
 12 14  1  0
  6 15  1  0
 15 16  2  0
  2 17  1  0
 17 18  1  0
 18 19  1  0
 19 20  1  0
 20 21  1  1
 21 22  1  0
 22 23  1  0
 22 24  1  0
 22 25  1  0
 25 26  3  0
 20 27  1  0
 27 28  2  0
 28 29  1  0
 29 30  2  0
 30 31  1  0
 30 32  1  0
 32 33  2  0
 20 34  1  0
 34 35  1  0
 35 36  2  0
 16  3  1  0
 35 17  1  0
 14  7  2  0
 33 27  1  0
  1 37  1  0
  1 38  1  0
  1 39  1  0
  2 40  1  6
  4 41  1  0
  5 42  1  0
  8 43  1  0
  9 44  1  0
 13 45  1  0
 13 46  1  0
 13 47  1  0
 14 48  1  0
 15 49  1  0
 16 50  1  0
 18 51  1  0
 18 52  1  0
 19 53  1  0
 19 54  1  0
 21 55  1  0
 21 56  1  0
 23 57  1  0
 23 58  1  0
 23 59  1  0
 24 60  1  0
 24 61  1  0
 24 62  1  0
 28 63  1  0
 29 64  1  0
 32 65  1  0
 33 66  1  0
M  END
$$$$
