
     RDKit          3D

 43 46  0  0  0  0  0  0  0  0999 V2000
   -1.1174    2.0881    1.6280 O   0  0  0  0  0  0  0  0  0  0  0  0
   -0.2492    1.9093    0.7508 C   0  0  0  0  0  0  0  0  0  0  0  0
    0.5788    3.0043    0.4657 O   0  0  0  0  0  0  0  0  0  0  0  0
   -0.1261    0.6444    0.0838 C   0  0  0  0  0  0  0  0  0  0  0  0
    0.8460    0.3768   -0.8602 C   0  0  0  0  0  0  0  0  0  0  0  0
    2.1340    1.4662   -1.4113 S   0  0  0  0  0  0  0  0  0  0  0  0
    3.6460    1.3007   -0.4917 C   0  0  0  0  0  0  0  0  0  0  0  0
    4.6060    0.3913   -0.8786 C   0  0  0  0  0  0  0  0  0  0  0  0
    5.7927    0.2228   -0.2104 C   0  0  0  0  0  0  0  0  0  0  0  0
    6.0552    1.0006    0.9152 C   0  0  0  0  0  0  0  0  0  0  0  0
    5.1079    1.9159    1.3185 C   0  0  0  0  0  0  0  0  0  0  0  0
    3.9037    2.0671    0.6165 C   0  0  0  0  0  0  0  0  0  0  0  0
    0.6304   -0.9142   -1.2648 C   0  0  0  0  0  0  0  0  0  0  0  0
    1.2884   -1.7229   -2.1705 C   0  0  0  0  0  0  0  0  0  0  0  0
    0.8778   -3.0157   -2.3894 C   0  0  0  0  0  0  0  0  0  0  0  0
    1.7640   -3.9741   -3.5526 Cl  0  0  0  0  0  0  0  0  0  0  0  0
   -0.2029   -3.5020   -1.6932 C   0  0  0  0  0  0  0  0  0  0  0  0
   -0.8693   -2.6986   -0.7836 C   0  0  0  0  0  0  0  0  0  0  0  0
   -0.4693   -1.4016   -0.5555 C   0  0  0  0  0  0  0  0  0  0  0  0
   -0.9218   -0.4290    0.2676 N   0  0  0  0  0  0  0  0  0  0  0  0
   -2.0715   -0.6189    1.1213 C   0  0  0  0  0  0  0  0  0  0  0  0
   -3.3629   -0.2018    0.5580 C   0  0  0  0  0  0  0  0  0  0  0  0
   -3.9669   -0.8672   -0.4796 C   0  0  0  0  0  0  0  0  0  0  0  0
   -5.2178   -0.4634   -0.9824 C   0  0  0  0  0  0  0  0  0  0  0  0
   -5.8667    0.6189   -0.4362 C   0  0  0  0  0  0  0  0  0  0  0  0
   -7.4260    1.0757   -1.1067 Cl  0  0  0  0  0  0  0  0  0  0  0  0
   -5.2828    1.3056    0.6078 C   0  0  0  0  0  0  0  0  0  0  0  0
   -4.0605    0.8904    1.0803 C   0  0  0  0  0  0  0  0  0  0  0  0
    0.1630    3.9191    0.5909 H   0  0  0  0  0  0  0  0  0  0  0  0
    4.4246   -0.2232   -1.7488 H   0  0  0  0  0  0  0  0  0  0  0  0
    6.5593   -0.4951   -0.5093 H   0  0  0  0  0  0  0  0  0  0  0  0
    6.9864    0.8948    1.4715 H   0  0  0  0  0  0  0  0  0  0  0  0
    5.3172    2.5158    2.1917 H   0  0  0  0  0  0  0  0  0  0  0  0
    3.2139    2.8042    0.9900 H   0  0  0  0  0  0  0  0  0  0  0  0
    2.1255   -1.3309   -2.7029 H   0  0  0  0  0  0  0  0  0  0  0  0
   -0.5338   -4.5101   -1.8540 H   0  0  0  0  0  0  0  0  0  0  0  0
   -1.7064   -3.1270   -0.2569 H   0  0  0  0  0  0  0  0  0  0  0  0
   -1.8549   -0.0753    2.0801 H   0  0  0  0  0  0  0  0  0  0  0  0
   -2.0812   -1.7162    1.4085 H   0  0  0  0  0  0  0  0  0  0  0  0
   -3.4776   -1.7169   -0.9185 H   0  0  0  0  0  0  0  0  0  0  0  0
   -5.6793   -0.9974   -1.7991 H   0  0  0  0  0  0  0  0  0  0  0  0
   -5.8251    2.1499    1.0087 H   0  0  0  0  0  0  0  0  0  0  0  0
   -3.6513    1.4394    1.9006 H   0  0  0  0  0  0  0  0  0  0  0  0
  1  2  2  0
  2  3  1  0
  2  4  1  0
  4  5  2  0
  5  6  1  0
  6  7  1  0
  7  8  2  0
  8  9  1  0
  9 10  2  0
 10 11  1  0
 11 12  2  0
  5 13  1  0
 13 14  2  0
 14 15  1  0
 15 16  1  0
 15 17  2  0
 17 18  1  0
 18 19  2  0
 19 20  1  0
 20 21  1  0
 21 22  1  0
 22 23  2  0
 23 24  1  0
 24 25  2  0
 25 26  1  0
 25 27  1  0
 27 28  2  0
 20  4  1  0
 28 22  1  0
 12  7  1  0
 19 13  1  0
  3 29  1  0
  8 30  1  0
  9 31  1  0
 10 32  1  0
 11 33  1  0
 12 34  1  0
 14 35  1  0
 17 36  1  0
 18 37  1  0
 21 38  1  0
 21 39  1  0
 23 40  1  0
 24 41  1  0
 27 42  1  0
 28 43  1  0
M  END
$$$$
