@<TRIPOS>MOLECULE
*****
 43 46 0 0 0
SMALL
GASTEIGER

@<TRIPOS>ATOM
      1 O          -1.1174    2.0881    1.6280 O.2     1  UNL1       -0.2434
      2 C          -0.2492    1.9093    0.7508 C.2     1  UNL1        0.3546
      3 O           0.5788    3.0043    0.4657 O.3     1  UNL1       -0.4761
      4 C          -0.1261    0.6444    0.0838 C.ar    1  UNL1        0.1420
      5 C           0.8460    0.3768   -0.8602 C.ar    1  UNL1        0.0524
      6 S           2.1340    1.4662   -1.4113 S.3     1  UNL1       -0.0865
      7 C           3.6460    1.3007   -0.4917 C.ar    1  UNL1        0.0128
      8 C           4.6060    0.3913   -0.8786 C.ar    1  UNL1       -0.0480
      9 C           5.7927    0.2228   -0.2104 C.ar    1  UNL1       -0.0607
     10 C           6.0552    1.0006    0.9152 C.ar    1  UNL1       -0.0617
     11 C           5.1079    1.9159    1.3185 C.ar    1  UNL1       -0.0607
     12 C           3.9037    2.0671    0.6165 C.ar    1  UNL1       -0.0480
     13 C           0.6304   -0.9142   -1.2648 C.ar    1  UNL1        0.0158
     14 C           1.2884   -1.7229   -2.1705 C.ar    1  UNL1       -0.0331
     15 C           0.8778   -3.0157   -2.3894 C.ar    1  UNL1        0.0417
     16 CL          1.7640   -3.9741   -3.5526 Cl      1  UNL1       -0.0835
     17 C          -0.2029   -3.5020   -1.6932 C.ar    1  UNL1       -0.0414
     18 C          -0.8693   -2.6986   -0.7836 C.ar    1  UNL1       -0.0362
     19 C          -0.4693   -1.4016   -0.5555 C.ar    1  UNL1        0.0511
     20 N          -0.9218   -0.4290    0.2676 N.ar    1  UNL1       -0.3294
     21 C          -2.0715   -0.6189    1.1213 C.3     1  UNL1        0.0491
     22 C          -3.3629   -0.2018    0.5580 C.ar    1  UNL1       -0.0277
     23 C          -3.9669   -0.8672   -0.4796 C.ar    1  UNL1       -0.0555
     24 C          -5.2178   -0.4634   -0.9824 C.ar    1  UNL1       -0.0431
     25 C          -5.8667    0.6189   -0.4362 C.ar    1  UNL1        0.0410
     26 CL         -7.4260    1.0757   -1.1067 Cl      1  UNL1       -0.0835
     27 C          -5.2828    1.3056    0.6078 C.ar    1  UNL1       -0.0431
     28 C          -4.0605    0.8904    1.0803 C.ar    1  UNL1       -0.0555
     29 H           0.1630    3.9191    0.5909 H       1  UNL1        0.2955
     30 H           4.4246   -0.2232   -1.7488 H       1  UNL1        0.0629
     31 H           6.5593   -0.4951   -0.5093 H       1  UNL1        0.0618
     32 H           6.9864    0.8948    1.4715 H       1  UNL1        0.0618
     33 H           5.3172    2.5158    2.1917 H       1  UNL1        0.0618
     34 H           3.2139    2.8042    0.9900 H       1  UNL1        0.0629
     35 H           2.1255   -1.3309   -2.7029 H       1  UNL1        0.0639
     36 H          -0.5338   -4.5101   -1.8540 H       1  UNL1        0.0633
     37 H          -1.7064   -3.1270   -0.2569 H       1  UNL1        0.0639
     38 H          -1.8549   -0.0753    2.0801 H       1  UNL1        0.0541
     39 H          -2.0812   -1.7162    1.4085 H       1  UNL1        0.0541
     40 H          -3.4776   -1.7169   -0.9185 H       1  UNL1        0.0621
     41 H          -5.6793   -0.9974   -1.7991 H       1  UNL1        0.0632
     42 H          -5.8251    2.1499    1.0087 H       1  UNL1        0.0632
     43 H          -3.6513    1.4394    1.9006 H       1  UNL1        0.0621
@<TRIPOS>BOND
     1     1     2    2
     2     2     3    1
     3     2     4    1
     4     4     5   ar
     5     5     6    1
     6     6     7    1
     7     7     8   ar
     8     8     9   ar
     9     9    10   ar
    10    10    11   ar
    11    11    12   ar
    12     5    13   ar
    13    13    14   ar
    14    14    15   ar
    15    15    16    1
    16    15    17   ar
    17    17    18   ar
    18    18    19   ar
    19    19    20   ar
    20    20    21    1
    21    21    22    1
    22    22    23   ar
    23    23    24   ar
    24    24    25   ar
    25    25    26    1
    26    25    27   ar
    27    27    28   ar
    28    20     4   ar
    29    28    22   ar
    30    12     7   ar
    31    19    13   ar
    32     3    29    1
    33     8    30    1
    34     9    31    1
    35    10    32    1
    36    11    33    1
    37    12    34    1
    38    14    35    1
    39    17    36    1
    40    18    37    1
    41    21    38    1
    42    21    39    1
    43    23    40    1
    44    24    41    1
    45    27    42    1
    46    28    43    1
