@<TRIPOS>MOLECULE
*****
 49 52 0 0 0
SMALL
GASTEIGER

@<TRIPOS>ATOM
      1 N           7.0401    2.7364    0.7267 N.3     1  UNL1       -0.3261
      2 C           7.1563    1.2571    0.7302 C.3     1  UNL1        0.0185
      3 C           5.8061    0.7267    0.3220 C.ar    1  UNL1       -0.0337
      4 C           4.9630    0.4345    1.3678 C.ar    1  UNL1       -0.0566
      5 C           3.7073    0.0026    0.9985 C.ar    1  UNL1       -0.0493
      6 C           3.3681   -0.1114   -0.3520 C.ar    1  UNL1        0.0369
      7 C           4.2266    0.1839   -1.3851 C.ar    1  UNL1       -0.0493
      8 C           5.4650    0.6096   -1.0023 C.ar    1  UNL1       -0.0566
      9 C           2.0235   -0.5493   -0.5507 C.2     1  UNL1        0.2466
     10 O           1.5807   -0.3740   -1.7292 O.2     1  UNL1       -0.2700
     11 N           0.7390   -1.0392   -0.4899 N.am    1  UNL1       -0.2971
     12 C          -0.1400   -1.0457   -1.6314 C.3     1  UNL1        0.0208
     13 C          -1.4316   -1.6967   -1.2069 C.3     1  UNL1        0.0281
     14 C          -2.0353   -0.9337   -0.0777 C.3     1  UNL1        0.2198
     15 C          -1.0814   -0.8482    1.1091 C.3     1  UNL1        0.0281
     16 C           0.2164   -1.5521    0.7677 C.3     1  UNL1        0.0208
     17 N          -3.2625   -1.5798    0.3406 N.pl3   1  UNL1       -0.2997
     18 C          -4.4707   -0.8657    0.3451 C.ar    1  UNL1        0.0482
     19 C          -5.6065   -1.5120    0.8167 C.ar    1  UNL1       -0.0397
     20 C          -6.8101   -0.8135    0.8464 C.ar    1  UNL1       -0.0573
     21 C          -6.9468    0.4950    0.4319 C.ar    1  UNL1       -0.0255
     22 C          -5.8120    1.1331   -0.0372 C.ar    1  UNL1        0.1400
     23 F          -5.8281    2.4159   -0.4780 F       1  UNL1       -0.2045
     24 C          -4.6368    0.4407   -0.0620 C.ar    1  UNL1        0.1208
     25 C          -3.3798    1.0424   -0.5134 C.2     1  UNL1        0.3178
     26 N          -3.3836    2.4023   -0.9909 N.pl3   1  UNL1       -0.2463
     27 N          -2.2664    0.4220   -0.5106 N.2     1  UNL1       -0.0561
     28 H           6.1495    3.0398    1.1970 H       1  UNL1        0.1185
     29 H           7.0909    3.0877   -0.2582 H       1  UNL1        0.1185
     30 H           7.4303    0.9260    1.7428 H       1  UNL1        0.0471
     31 H           7.8587    0.9837   -0.0622 H       1  UNL1        0.0471
     32 H           5.2485    0.5278    2.4019 H       1  UNL1        0.0621
     33 H           3.0384   -0.2309    1.8227 H       1  UNL1        0.0625
     34 H           3.8682    0.0604   -2.3887 H       1  UNL1        0.0625
     35 H           6.1832    0.8593   -1.7987 H       1  UNL1        0.0621
     36 H           0.3144   -1.5667   -2.5046 H       1  UNL1        0.0467
     37 H          -0.3757    0.0121   -1.8731 H       1  UNL1        0.0467
     38 H          -2.1340   -1.6982   -2.0589 H       1  UNL1        0.0343
     39 H          -1.2002   -2.7542   -0.8934 H       1  UNL1        0.0343
     40 H          -1.5444   -1.3897    1.9481 H       1  UNL1        0.0343
     41 H          -0.8709    0.1826    1.4216 H       1  UNL1        0.0343
     42 H           0.9487   -1.3462    1.5533 H       1  UNL1        0.0467
     43 H           0.0457   -2.6439    0.7297 H       1  UNL1        0.0467
     44 H          -3.1988   -2.5883    0.6339 H       1  UNL1        0.1504
     45 H          -5.6490   -2.5201    1.1678 H       1  UNL1        0.0636
     46 H          -7.7219   -1.2819    1.2135 H       1  UNL1        0.0619
     47 H          -7.8859    1.0416    0.4550 H       1  UNL1        0.0646
     48 H          -3.5783    3.1404   -0.2634 H       1  UNL1        0.2884
     49 H          -3.2177    2.7775   -1.9717 H       1  UNL1        0.2884
@<TRIPOS>BOND
     1     1     2    1
     2     2     3    1
     3     3     4   ar
     4     4     5   ar
     5     5     6   ar
     6     6     7   ar
     7     7     8   ar
     8     6     9    1
     9     9    10    2
    10     9    11   am
    11    11    12    1
    12    12    13    1
    13    13    14    1
    14    14    15    1
    15    15    16    1
    16    14    17    1
    17    17    18    1
    18    18    19   ar
    19    19    20   ar
    20    20    21   ar
    21    21    22   ar
    22    22    23    1
    23    22    24   ar
    24    24    25    1
    25    25    26    1
    26    25    27    2
    27     8     3   ar
    28    16    11    1
    29    24    18   ar
    30    27    14    1
    31     1    28    1
    32     1    29    1
    33     2    30    1
    34     2    31    1
    35     4    32    1
    36     5    33    1
    37     7    34    1
    38     8    35    1
    39    12    36    1
    40    12    37    1
    41    13    38    1
    42    13    39    1
    43    15    40    1
    44    15    41    1
    45    16    42    1
    46    16    43    1
    47    17    44    1
    48    19    45    1
    49    20    46    1
    50    21    47    1
    51    26    48    1
    52    26    49    1
