
     RDKit          3D

 49 52  0  0  0  0  0  0  0  0999 V2000
    7.0401    2.7364    0.7267 N   0  0  0  0  0  0  0  0  0  0  0  0
    7.1563    1.2571    0.7302 C   0  0  0  0  0  0  0  0  0  0  0  0
    5.8061    0.7267    0.3220 C   0  0  0  0  0  0  0  0  0  0  0  0
    4.9630    0.4345    1.3678 C   0  0  0  0  0  0  0  0  0  0  0  0
    3.7073    0.0026    0.9985 C   0  0  0  0  0  0  0  0  0  0  0  0
    3.3681   -0.1114   -0.3520 C   0  0  0  0  0  0  0  0  0  0  0  0
    4.2266    0.1839   -1.3851 C   0  0  0  0  0  0  0  0  0  0  0  0
    5.4650    0.6096   -1.0023 C   0  0  0  0  0  0  0  0  0  0  0  0
    2.0235   -0.5493   -0.5507 C   0  0  0  0  0  0  0  0  0  0  0  0
    1.5807   -0.3740   -1.7292 O   0  0  0  0  0  0  0  0  0  0  0  0
    0.7390   -1.0392   -0.4899 N   0  0  0  0  0  0  0  0  0  0  0  0
   -0.1400   -1.0457   -1.6314 C   0  0  0  0  0  0  0  0  0  0  0  0
   -1.4316   -1.6967   -1.2069 C   0  0  0  0  0  0  0  0  0  0  0  0
   -2.0353   -0.9337   -0.0777 C   0  0  0  0  0  0  0  0  0  0  0  0
   -1.0814   -0.8482    1.1091 C   0  0  0  0  0  0  0  0  0  0  0  0
    0.2164   -1.5521    0.7677 C   0  0  0  0  0  0  0  0  0  0  0  0
   -3.2625   -1.5798    0.3406 N   0  0  0  0  0  0  0  0  0  0  0  0
   -4.4707   -0.8657    0.3451 C   0  0  0  0  0  0  0  0  0  0  0  0
   -5.6065   -1.5120    0.8167 C   0  0  0  0  0  0  0  0  0  0  0  0
   -6.8101   -0.8135    0.8464 C   0  0  0  0  0  0  0  0  0  0  0  0
   -6.9468    0.4950    0.4319 C   0  0  0  0  0  0  0  0  0  0  0  0
   -5.8120    1.1331   -0.0372 C   0  0  0  0  0  0  0  0  0  0  0  0
   -5.8281    2.4159   -0.4780 F   0  0  0  0  0  0  0  0  0  0  0  0
   -4.6368    0.4407   -0.0620 C   0  0  0  0  0  0  0  0  0  0  0  0
   -3.3798    1.0424   -0.5134 C   0  0  0  0  0  0  0  0  0  0  0  0
   -3.3836    2.4023   -0.9909 N   0  0  0  0  0  0  0  0  0  0  0  0
   -2.2664    0.4220   -0.5106 N   0  0  0  0  0  0  0  0  0  0  0  0
    6.1495    3.0398    1.1970 H   0  0  0  0  0  0  0  0  0  0  0  0
    7.0909    3.0877   -0.2582 H   0  0  0  0  0  0  0  0  0  0  0  0
    7.4303    0.9260    1.7428 H   0  0  0  0  0  0  0  0  0  0  0  0
    7.8587    0.9837   -0.0622 H   0  0  0  0  0  0  0  0  0  0  0  0
    5.2485    0.5278    2.4019 H   0  0  0  0  0  0  0  0  0  0  0  0
    3.0384   -0.2309    1.8227 H   0  0  0  0  0  0  0  0  0  0  0  0
    3.8682    0.0604   -2.3887 H   0  0  0  0  0  0  0  0  0  0  0  0
    6.1832    0.8593   -1.7987 H   0  0  0  0  0  0  0  0  0  0  0  0
    0.3144   -1.5667   -2.5046 H   0  0  0  0  0  0  0  0  0  0  0  0
   -0.3757    0.0121   -1.8731 H   0  0  0  0  0  0  0  0  0  0  0  0
   -2.1340   -1.6982   -2.0589 H   0  0  0  0  0  0  0  0  0  0  0  0
   -1.2002   -2.7542   -0.8934 H   0  0  0  0  0  0  0  0  0  0  0  0
   -1.5444   -1.3897    1.9481 H   0  0  0  0  0  0  0  0  0  0  0  0
   -0.8709    0.1826    1.4216 H   0  0  0  0  0  0  0  0  0  0  0  0
    0.9487   -1.3462    1.5533 H   0  0  0  0  0  0  0  0  0  0  0  0
    0.0457   -2.6439    0.7297 H   0  0  0  0  0  0  0  0  0  0  0  0
   -3.1988   -2.5883    0.6339 H   0  0  0  0  0  0  0  0  0  0  0  0
   -5.6490   -2.5201    1.1678 H   0  0  0  0  0  0  0  0  0  0  0  0
   -7.7219   -1.2819    1.2135 H   0  0  0  0  0  0  0  0  0  0  0  0
   -7.8859    1.0416    0.4550 H   0  0  0  0  0  0  0  0  0  0  0  0
   -3.5783    3.1404   -0.2634 H   0  0  0  0  0  0  0  0  0  0  0  0
   -3.2177    2.7775   -1.9717 H   0  0  0  0  0  0  0  0  0  0  0  0
  1  2  1  0
  2  3  1  0
  3  4  2  0
  4  5  1  0
  5  6  2  0
  6  7  1  0
  7  8  2  0
  6  9  1  0
  9 10  2  0
  9 11  1  0
 11 12  1  0
 12 13  1  0
 13 14  1  0
 14 15  1  0
 15 16  1  0
 14 17  1  0
 17 18  1  0
 18 19  2  0
 19 20  1  0
 20 21  2  0
 21 22  1  0
 22 23  1  0
 22 24  2  0
 24 25  1  0
 25 26  1  0
 25 27  2  0
  8  3  1  0
 16 11  1  0
 24 18  1  0
 27 14  1  0
  1 28  1  0
  1 29  1  0
  2 30  1  0
  2 31  1  0
  4 32  1  0
  5 33  1  0
  7 34  1  0
  8 35  1  0
 12 36  1  0
 12 37  1  0
 13 38  1  0
 13 39  1  0
 15 40  1  0
 15 41  1  0
 16 42  1  0
 16 43  1  0
 17 44  1  0
 19 45  1  0
 20 46  1  0
 21 47  1  0
 26 48  1  0
 26 49  1  0
M  END
$$$$
