
     RDKit          3D

 46 48  0  0  0  0  0  0  0  0999 V2000
    6.8656   -0.3399   -2.7062 C   0  0  0  0  0  0  0  0  0  0  0  0
    6.1399    0.3474   -1.5802 C   0  0  0  0  0  0  0  0  0  0  0  0
    6.6287    1.5216   -1.0726 C   0  0  0  0  0  0  0  0  0  0  0  0
    5.9815    2.1592   -0.0492 C   0  0  0  0  0  0  0  0  0  0  0  0
    4.8271    1.5932    0.4589 C   0  0  0  0  0  0  0  0  0  0  0  0
    4.3109    0.4159   -0.0285 C   0  0  0  0  0  0  0  0  0  0  0  0
    3.0914   -0.1431    0.5383 C   0  0  0  0  0  0  0  0  0  0  0  0
    2.6058   -1.2399    0.0876 O   0  0  0  0  0  0  0  0  0  0  0  0
    2.3555    0.4459    1.5971 N   0  0  0  0  0  0  0  0  0  0  0  0
    1.1614   -0.1783    2.0926 C   0  0  0  0  0  0  0  0  0  0  0  0
    1.1448   -1.0962    3.1130 C   0  0  0  0  0  0  0  0  0  0  0  0
   -0.0166   -1.6853    3.5750 C   0  0  0  0  0  0  0  0  0  0  0  0
   -1.2097   -1.3337    2.9831 C   0  0  0  0  0  0  0  0  0  0  0  0
   -1.2400   -0.4177    1.9571 C   0  0  0  0  0  0  0  0  0  0  0  0
   -2.5073   -0.0839    1.3727 N   0  0  0  0  0  0  0  0  0  0  0  0
   -2.9198   -0.8859    0.2661 C   0  0  0  0  0  0  0  0  0  0  0  0
   -2.1489   -1.8257   -0.1198 O   0  0  0  0  0  0  0  0  0  0  0  0
   -4.1562   -0.6850   -0.4294 C   0  0  0  0  0  0  0  0  0  0  0  0
   -4.4911   -1.4978   -1.4905 C   0  0  0  0  0  0  0  0  0  0  0  0
   -5.6696   -1.3283   -2.1757 C   0  0  0  0  0  0  0  0  0  0  0  0
   -6.5392   -0.3338   -1.8064 C   0  0  0  0  0  0  0  0  0  0  0  0
   -6.2272    0.4910   -0.7499 C   0  0  0  0  0  0  0  0  0  0  0  0
   -7.1492    1.5792   -0.3245 C   0  0  0  0  0  0  0  0  0  0  0  0
   -6.4288    2.5187    0.3878 F   0  0  0  0  0  0  0  0  0  0  0  0
   -8.1260    1.0915    0.5393 F   0  0  0  0  0  0  0  0  0  0  0  0
   -7.6962    2.1784   -1.4216 F   0  0  0  0  0  0  0  0  0  0  0  0
   -5.0273    0.3075   -0.0634 C   0  0  0  0  0  0  0  0  0  0  0  0
   -0.0462    0.1562    1.5175 C   0  0  0  0  0  0  0  0  0  0  0  0
    4.9910   -0.1951   -1.0584 C   0  0  0  0  0  0  0  0  0  0  0  0
    7.1754   -1.3684   -2.3872 H   0  0  0  0  0  0  0  0  0  0  0  0
    6.2513   -0.3631   -3.6260 H   0  0  0  0  0  0  0  0  0  0  0  0
    7.7809    0.2368   -2.9498 H   0  0  0  0  0  0  0  0  0  0  0  0
    7.5318    1.9795   -1.4584 H   0  0  0  0  0  0  0  0  0  0  0  0
    6.3752    3.0893    0.3475 H   0  0  0  0  0  0  0  0  0  0  0  0
    4.3645    2.1606    1.2768 H   0  0  0  0  0  0  0  0  0  0  0  0
    2.6945    1.3565    2.0238 H   0  0  0  0  0  0  0  0  0  0  0  0
    2.0794   -1.3601    3.5637 H   0  0  0  0  0  0  0  0  0  0  0  0
   -0.0392   -2.4078    4.3765 H   0  0  0  0  0  0  0  0  0  0  0  0
   -2.1118   -1.7991    3.3508 H   0  0  0  0  0  0  0  0  0  0  0  0
   -3.0920    0.6904    1.7274 H   0  0  0  0  0  0  0  0  0  0  0  0
   -3.8142   -2.3053   -1.8115 H   0  0  0  0  0  0  0  0  0  0  0  0
   -5.9264   -1.9612   -2.9990 H   0  0  0  0  0  0  0  0  0  0  0  0
   -7.4556   -0.2015   -2.3387 H   0  0  0  0  0  0  0  0  0  0  0  0
   -4.8198    0.9790    0.7630 H   0  0  0  0  0  0  0  0  0  0  0  0
   -0.1163    0.8657    0.7149 H   0  0  0  0  0  0  0  0  0  0  0  0
    4.6182   -1.1278   -1.4742 H   0  0  0  0  0  0  0  0  0  0  0  0
  1  2  1  0
  2  3  2  0
  3  4  1  0
  4  5  2  0
  5  6  1  0
  6  7  1  0
  7  8  2  0
  7  9  1  0
  9 10  1  0
 10 11  2  0
 11 12  1  0
 12 13  2  0
 13 14  1  0
 14 15  1  0
 15 16  1  0
 16 17  2  0
 16 18  1  0
 18 19  2  0
 19 20  1  0
 20 21  2  0
 21 22  1  0
 22 23  1  0
 23 24  1  0
 23 25  1  0
 23 26  1  0
 22 27  2  0
 14 28  2  0
  6 29  2  0
 29  2  1  0
 28 10  1  0
 27 18  1  0
  1 30  1  0
  1 31  1  0
  1 32  1  0
  3 33  1  0
  4 34  1  0
  5 35  1  0
  9 36  1  0
 11 37  1  0
 12 38  1  0
 13 39  1  0
 15 40  1  0
 19 41  1  0
 20 42  1  0
 21 43  1  0
 27 44  1  0
 28 45  1  0
 29 46  1  0
M  END
$$$$
