@<TRIPOS>MOLECULE
*****
 46 48 0 0 0
SMALL
GASTEIGER

@<TRIPOS>ATOM
      1 C           6.8656   -0.3399   -2.7062 C.3     1  UNL1       -0.0397
      2 C           6.1399    0.3474   -1.5802 C.ar    1  UNL1       -0.0497
      3 C           6.6287    1.5216   -1.0726 C.ar    1  UNL1       -0.0588
      4 C           5.9815    2.1592   -0.0492 C.ar    1  UNL1       -0.0608
      5 C           4.8271    1.5932    0.4589 C.ar    1  UNL1       -0.0496
      6 C           4.3109    0.4159   -0.0285 C.ar    1  UNL1        0.0373
      7 C           3.0914   -0.1431    0.5383 C.2     1  UNL1        0.2483
      8 O           2.6058   -1.2399    0.0876 O.2     1  UNL1       -0.2699
      9 N           2.3555    0.4459    1.5971 N.am    1  UNL1       -0.2814
     10 C           1.1614   -0.1783    2.0926 C.ar    1  UNL1        0.0354
     11 C           1.1448   -1.0962    3.1130 C.ar    1  UNL1       -0.0404
     12 C          -0.0166   -1.6853    3.5750 C.ar    1  UNL1       -0.0583
     13 C          -1.2097   -1.3337    2.9831 C.ar    1  UNL1       -0.0404
     14 C          -1.2400   -0.4177    1.9571 C.ar    1  UNL1        0.0354
     15 N          -2.5073   -0.0839    1.3727 N.am    1  UNL1       -0.2814
     16 C          -2.9198   -0.8859    0.2661 C.2     1  UNL1        0.2483
     17 O          -2.1489   -1.8257   -0.1198 O.2     1  UNL1       -0.2699
     18 C          -4.1562   -0.6850   -0.4294 C.ar    1  UNL1        0.0376
     19 C          -4.4911   -1.4978   -1.4905 C.ar    1  UNL1       -0.0496
     20 C          -5.6696   -1.3283   -2.1757 C.ar    1  UNL1       -0.0605
     21 C          -6.5392   -0.3338   -1.8064 C.ar    1  UNL1       -0.0501
     22 C          -6.2272    0.4910   -0.7499 C.ar    1  UNL1        0.0555
     23 C          -7.1492    1.5792   -0.3245 C.3     1  UNL1        0.4174
     24 F          -6.4288    2.5187    0.3878 F       1  UNL1       -0.1659
     25 F          -8.1260    1.0915    0.5393 F       1  UNL1       -0.1659
     26 F          -7.6962    2.1784   -1.4216 F       1  UNL1       -0.1659
     27 C          -5.0273    0.3075   -0.0634 C.ar    1  UNL1       -0.0380
     28 C          -0.0462    0.1562    1.5175 C.ar    1  UNL1       -0.0192
     29 C           4.9910   -0.1951   -1.0584 C.ar    1  UNL1       -0.0467
     30 H           7.1754   -1.3684   -2.3872 H       1  UNL1        0.0278
     31 H           6.2513   -0.3631   -3.6260 H       1  UNL1        0.0278
     32 H           7.7809    0.2368   -2.9498 H       1  UNL1        0.0278
     33 H           7.5318    1.9795   -1.4584 H       1  UNL1        0.0620
     34 H           6.3752    3.0893    0.3475 H       1  UNL1        0.0618
     35 H           4.3645    2.1606    1.2768 H       1  UNL1        0.0625
     36 H           2.6945    1.3565    2.0238 H       1  UNL1        0.1551
     37 H           2.0794   -1.3601    3.5637 H       1  UNL1        0.0636
     38 H          -0.0392   -2.4078    4.3765 H       1  UNL1        0.0619
     39 H          -2.1118   -1.7991    3.3508 H       1  UNL1        0.0636
     40 H          -3.0920    0.6904    1.7274 H       1  UNL1        0.1551
     41 H          -3.8142   -2.3053   -1.8115 H       1  UNL1        0.0625
     42 H          -5.9264   -1.9612   -2.9990 H       1  UNL1        0.0618
     43 H          -7.4556   -0.2015   -2.3387 H       1  UNL1        0.0623
     44 H          -4.8198    0.9790    0.7630 H       1  UNL1        0.0631
     45 H          -0.1163    0.8657    0.7149 H       1  UNL1        0.0655
     46 H           4.6182   -1.1278   -1.4742 H       1  UNL1        0.0628
@<TRIPOS>BOND
     1     1     2    1
     2     2     3   ar
     3     3     4   ar
     4     4     5   ar
     5     5     6   ar
     6     6     7    1
     7     7     8    2
     8     7     9   am
     9     9    10    1
    10    10    11   ar
    11    11    12   ar
    12    12    13   ar
    13    13    14   ar
    14    14    15    1
    15    15    16   am
    16    16    17    2
    17    16    18    1
    18    18    19   ar
    19    19    20   ar
    20    20    21   ar
    21    21    22   ar
    22    22    23    1
    23    23    24    1
    24    23    25    1
    25    23    26    1
    26    22    27   ar
    27    14    28   ar
    28     6    29   ar
    29    29     2   ar
    30    28    10   ar
    31    27    18   ar
    32     1    30    1
    33     1    31    1
    34     1    32    1
    35     3    33    1
    36     4    34    1
    37     5    35    1
    38     9    36    1
    39    11    37    1
    40    12    38    1
    41    13    39    1
    42    15    40    1
    43    19    41    1
    44    20    42    1
    45    21    43    1
    46    27    44    1
    47    28    45    1
    48    29    46    1
