
     RDKit          3D

 49 51  0  0  0  0  0  0  0  0999 V2000
    7.5883   -2.5059    0.9968 C   0  0  0  0  0  0  0  0  0  0  0  0
    6.9305   -1.3817    0.9383 C   0  0  0  0  0  0  0  0  0  0  0  0
    5.7143   -1.2589    0.1263 C   0  0  0  0  0  0  0  0  0  0  0  0
    5.3420   -2.2620   -0.4969 O   0  0  0  0  0  0  0  0  0  0  0  0
    4.9763   -0.0720    0.0339 N   0  0  0  0  0  0  0  0  0  0  0  0
    3.8009    0.1765   -0.7045 C   0  0  0  0  0  0  0  0  0  0  0  0
    3.1471   -0.7282   -1.4918 C   0  0  0  0  0  0  0  0  0  0  0  0
    1.9744   -0.4266   -2.2098 C   0  0  0  0  0  0  0  0  0  0  0  0
    1.4306    0.8157   -2.1448 C   0  0  0  0  0  0  0  0  0  0  0  0
   -0.0101    1.3055   -2.9848 S   0  0  0  0  0  6  0  0  0  0  0  0
    0.1033    2.7863   -3.2682 O   0  0  0  0  0  0  0  0  0  0  0  0
   -0.0333    0.5554   -4.2965 O   0  0  0  0  0  0  0  0  0  0  0  0
   -1.4317    1.0578   -2.0801 N   0  0  0  0  0  0  0  0  0  0  0  0
   -1.6734   -0.3129   -1.7488 C   0  0  0  0  0  0  0  0  0  0  0  0
   -3.0441   -0.4329   -1.0504 C   0  0  0  0  0  0  0  0  0  0  0  0
   -2.9640    0.4016    0.1128 N   0  0  0  0  0  0  0  0  0  0  0  0
   -3.2179   -0.0898    1.3880 C   0  0  0  0  0  0  0  0  0  0  0  0
   -2.1739   -0.2617    2.2521 N   0  0  0  0  0  0  0  0  0  0  0  0
   -2.3326   -0.7361    3.4915 C   0  0  0  0  0  0  0  0  0  0  0  0
   -3.5744   -1.0812    3.9684 C   0  0  0  0  0  0  0  0  0  0  0  0
   -4.6446   -0.9218    3.1292 C   0  0  0  0  0  0  0  0  0  0  0  0
   -4.4540   -0.4236    1.8372 C   0  0  0  0  0  0  0  0  0  0  0  0
   -5.6434   -0.2657    0.9842 C   0  0  0  0  0  0  0  0  0  0  0  0
   -5.7883    1.0491    0.5723 F   0  0  0  0  0  0  0  0  0  0  0  0
   -5.6550   -1.1202   -0.0895 F   0  0  0  0  0  0  0  0  0  0  0  0
   -6.7985   -0.5856    1.7390 F   0  0  0  0  0  0  0  0  0  0  0  0
   -2.6121    1.7911   -0.0697 C   0  0  0  0  0  0  0  0  0  0  0  0
   -1.2878    1.8109   -0.8249 C   0  0  0  0  0  0  0  0  0  0  0  0
    2.0754    1.7456   -1.3547 C   0  0  0  0  0  0  0  0  0  0  0  0
    3.2203    1.4527   -0.6532 C   0  0  0  0  0  0  0  0  0  0  0  0
    8.4753   -2.5803    1.5944 H   0  0  0  0  0  0  0  0  0  0  0  0
    7.2432   -3.3610    0.4463 H   0  0  0  0  0  0  0  0  0  0  0  0
    7.2816   -0.5291    1.4925 H   0  0  0  0  0  0  0  0  0  0  0  0
    5.3773    0.7375    0.6075 H   0  0  0  0  0  0  0  0  0  0  0  0
    3.5394   -1.7344   -1.5785 H   0  0  0  0  0  0  0  0  0  0  0  0
    1.5008   -1.1811   -2.8161 H   0  0  0  0  0  0  0  0  0  0  0  0
   -0.9229   -0.6667   -1.0098 H   0  0  0  0  0  0  0  0  0  0  0  0
   -1.7031   -0.9856   -2.6098 H   0  0  0  0  0  0  0  0  0  0  0  0
   -3.8291   -0.1627   -1.7675 H   0  0  0  0  0  0  0  0  0  0  0  0
   -3.1349   -1.5112   -0.7675 H   0  0  0  0  0  0  0  0  0  0  0  0
   -1.4796   -0.8532    4.1335 H   0  0  0  0  0  0  0  0  0  0  0  0
   -3.6676   -1.4665    4.9883 H   0  0  0  0  0  0  0  0  0  0  0  0
   -5.6296   -1.1867    3.4835 H   0  0  0  0  0  0  0  0  0  0  0  0
   -3.3669    2.3292   -0.6807 H   0  0  0  0  0  0  0  0  0  0  0  0
   -2.4744    2.3245    0.8797 H   0  0  0  0  0  0  0  0  0  0  0  0
   -0.5608    1.2748   -0.1760 H   0  0  0  0  0  0  0  0  0  0  0  0
   -0.9942    2.8447   -1.0087 H   0  0  0  0  0  0  0  0  0  0  0  0
    1.6626    2.7507   -1.2830 H   0  0  0  0  0  0  0  0  0  0  0  0
    3.7185    2.2082   -0.0296 H   0  0  0  0  0  0  0  0  0  0  0  0
  1  2  2  3
  2  3  1  0
  3  4  2  0
  3  5  1  0
  5  6  1  0
  6  7  2  0
  7  8  1  0
  8  9  2  0
  9 10  1  0
 10 11  2  0
 10 12  2  0
 10 13  1  0
 13 14  1  0
 14 15  1  0
 15 16  1  0
 16 17  1  0
 17 18  2  0
 18 19  1  0
 19 20  2  0
 20 21  1  0
 21 22  2  0
 22 23  1  0
 23 24  1  0
 23 25  1  0
 23 26  1  0
 16 27  1  0
 27 28  1  0
  9 29  1  0
 29 30  2  0
 30  6  1  0
 28 13  1  0
 22 17  1  0
  1 31  1  0
  1 32  1  0
  2 33  1  0
  5 34  1  0
  7 35  1  0
  8 36  1  0
 14 37  1  0
 14 38  1  0
 15 39  1  0
 15 40  1  0
 19 41  1  0
 20 42  1  0
 21 43  1  0
 27 44  1  0
 27 45  1  0
 28 46  1  0
 28 47  1  0
 29 48  1  0
 30 49  1  0
M  END
$$$$
