@<TRIPOS>MOLECULE
*****
 49 51 0 0 0
SMALL
GASTEIGER

@<TRIPOS>ATOM
      1 C           7.5883   -2.5059    0.9968 C.2     1  UNL1       -0.0938
      2 C           6.9305   -1.3817    0.9383 C.2     1  UNL1       -0.0066
      3 C           5.7143   -1.2589    0.1263 C.2     1  UNL1        0.2405
      4 O           5.3420   -2.2620   -0.4969 O.2     1  UNL1       -0.2705
      5 N           4.9763   -0.0720    0.0339 N.am    1  UNL1       -0.2820
      6 C           3.8009    0.1765   -0.7045 C.ar    1  UNL1        0.0338
      7 C           3.1471   -0.7282   -1.4918 C.ar    1  UNL1       -0.0386
      8 C           1.9744   -0.4266   -2.2098 C.ar    1  UNL1       -0.0336
      9 C           1.4306    0.8157   -2.1448 C.ar    1  UNL1        0.1056
     10 S          -0.0101    1.3055   -2.9848 S.O2    1  UNL1        0.0609
     11 O           0.1033    2.7863   -3.2682 O.2     1  UNL1       -0.1528
     12 O          -0.0333    0.5554   -4.2965 O.2     1  UNL1       -0.1528
     13 N          -1.4317    1.0578   -2.0801 N.3     1  UNL1       -0.1736
     14 C          -1.6734   -0.3129   -1.7488 C.3     1  UNL1        0.0363
     15 C          -3.0441   -0.4329   -1.0504 C.3     1  UNL1        0.0280
     16 N          -2.9640    0.4016    0.1128 N.pl3   1  UNL1       -0.3122
     17 C          -3.2179   -0.0898    1.3880 C.ar    1  UNL1        0.1330
     18 N          -2.1739   -0.2617    2.2521 N.ar    1  UNL1       -0.2397
     19 C          -2.3326   -0.7361    3.4915 C.ar    1  UNL1        0.0297
     20 C          -3.5744   -1.0812    3.9684 C.ar    1  UNL1       -0.0429
     21 C          -4.6446   -0.9218    3.1292 C.ar    1  UNL1       -0.0453
     22 C          -4.4540   -0.4236    1.8372 C.ar    1  UNL1        0.0946
     23 C          -5.6434   -0.2657    0.9842 C.3     1  UNL1        0.4206
     24 F          -5.7883    1.0491    0.5723 F       1  UNL1       -0.1658
     25 F          -5.6550   -1.1202   -0.0895 F       1  UNL1       -0.1658
     26 F          -6.7985   -0.5856    1.7390 F       1  UNL1       -0.1658
     27 C          -2.6121    1.7911   -0.0697 C.3     1  UNL1        0.0280
     28 C          -1.2878    1.8109   -0.8249 C.3     1  UNL1        0.0363
     29 C           2.0754    1.7456   -1.3547 C.ar    1  UNL1       -0.0336
     30 C           3.2203    1.4527   -0.6532 C.ar    1  UNL1       -0.0386
     31 H           8.4753   -2.5803    1.5944 H       1  UNL1        0.0536
     32 H           7.2432   -3.3610    0.4463 H       1  UNL1        0.0536
     33 H           7.2816   -0.5291    1.4925 H       1  UNL1        0.0663
     34 H           5.3773    0.7375    0.6075 H       1  UNL1        0.1551
     35 H           3.5394   -1.7344   -1.5785 H       1  UNL1        0.0637
     36 H           1.5008   -1.1811   -2.8161 H       1  UNL1        0.0638
     37 H          -0.9229   -0.6667   -1.0098 H       1  UNL1        0.0459
     38 H          -1.7031   -0.9856   -2.6098 H       1  UNL1        0.0459
     39 H          -3.8291   -0.1627   -1.7675 H       1  UNL1        0.0477
     40 H          -3.1349   -1.5112   -0.7675 H       1  UNL1        0.0477
     41 H          -1.4796   -0.8532    4.1335 H       1  UNL1        0.0830
     42 H          -3.6676   -1.4665    4.9883 H       1  UNL1        0.0633
     43 H          -5.6296   -1.1867    3.4835 H       1  UNL1        0.0625
     44 H          -3.3669    2.3292   -0.6807 H       1  UNL1        0.0477
     45 H          -2.4744    2.3245    0.8797 H       1  UNL1        0.0477
     46 H          -0.5608    1.2748   -0.1760 H       1  UNL1        0.0459
     47 H          -0.9942    2.8447   -1.0087 H       1  UNL1        0.0459
     48 H           1.6626    2.7507   -1.2830 H       1  UNL1        0.0638
     49 H           3.7185    2.2082   -0.0296 H       1  UNL1        0.0637
@<TRIPOS>BOND
     1     1     2    2
     2     2     3    1
     3     3     4    2
     4     3     5   am
     5     5     6    1
     6     6     7   ar
     7     7     8   ar
     8     8     9   ar
     9     9    10    1
    10    10    11    2
    11    10    12    2
    12    10    13    1
    13    13    14    1
    14    14    15    1
    15    15    16    1
    16    16    17    1
    17    17    18   ar
    18    18    19   ar
    19    19    20   ar
    20    20    21   ar
    21    21    22   ar
    22    22    23    1
    23    23    24    1
    24    23    25    1
    25    23    26    1
    26    16    27    1
    27    27    28    1
    28     9    29   ar
    29    29    30   ar
    30    30     6   ar
    31    28    13    1
    32    22    17   ar
    33     1    31    1
    34     1    32    1
    35     2    33    1
    36     5    34    1
    37     7    35    1
    38     8    36    1
    39    14    37    1
    40    14    38    1
    41    15    39    1
    42    15    40    1
    43    19    41    1
    44    20    42    1
    45    21    43    1
    46    27    44    1
    47    27    45    1
    48    28    46    1
    49    28    47    1
    50    29    48    1
    51    30    49    1
