@<TRIPOS>MOLECULE
*****
 38 41 0 0 0
SMALL
GASTEIGER

@<TRIPOS>ATOM
      1 N           3.0836    2.0124    6.0938 N.1     1  UNL1       -0.1908
      2 C           2.7850    1.2677    5.1310 C.1     1  UNL1        0.1005
      3 C           2.4243    0.4274    4.0515 C.ar    1  UNL1        0.0713
      4 C           2.4358   -0.9831    4.1895 C.ar    1  UNL1       -0.0044
      5 S           2.0435   -1.5741    2.5763 S.2     1  UNL1       -0.0799
      6 C           1.8849   -0.0286    1.8150 C.ar    1  UNL1        0.0837
      7 N           1.5697    0.1294    0.3970 N.am    1  UNL1       -0.2791
      8 C           0.2025    0.1211   -0.0646 C.2     1  UNL1        0.2219
      9 O          -0.6800   -0.0309    0.7829 O.2     1  UNL1       -0.2751
     10 C          -0.0729    0.2943   -1.5188 C.3     1  UNL1        0.0500
     11 C          -0.7581   -0.8427   -2.1559 C.ar    1  UNL1       -0.0308
     12 C          -0.0114   -1.8209   -2.8376 C.ar    1  UNL1       -0.0575
     13 C          -0.5945   -2.9250   -3.4233 C.ar    1  UNL1       -0.0609
     14 C          -1.9525   -3.0989   -3.3539 C.ar    1  UNL1       -0.0526
     15 C          -2.7067   -2.1648   -2.7003 C.ar    1  UNL1        0.0005
     16 C          -4.0829   -2.3368   -2.6335 C.ar    1  UNL1        0.0353
     17 N          -4.8218   -1.4394   -2.0083 N.ar    1  UNL1       -0.2626
     18 C          -4.2772   -0.3366   -1.4192 C.ar    1  UNL1        0.0282
     19 C          -2.9272   -0.1210   -1.4573 C.ar    1  UNL1       -0.0356
     20 C          -2.1083   -1.0391   -2.1026 C.ar    1  UNL1       -0.0114
     21 C           2.1279    0.8599    2.7809 C.ar    1  UNL1        0.0648
     22 C           2.1156    2.3267    2.4697 C.ar    1  UNL1        0.1650
     23 N           2.3293    3.3236    3.3751 N.ar    1  UNL1       -0.1295
     24 N           2.2736    4.4581    2.7538 N.ar    1  UNL1       -0.1377
     25 C           2.0302    4.2389    1.4687 C.ar    1  UNL1        0.1175
     26 N           1.9311    2.8770    1.2918 N.ar    1  UNL1       -0.3276
     27 H           2.6545   -1.5618    5.1337 H       1  UNL1        0.0707
     28 H           2.3129    0.2406   -0.2788 H       1  UNL1        0.1553
     29 H           0.9051    0.4068   -2.0831 H       1  UNL1        0.0407
     30 H          -0.5656    1.2758   -1.6745 H       1  UNL1        0.0407
     31 H           1.0709   -1.6414   -2.8655 H       1  UNL1        0.0621
     32 H           0.0159   -3.6484   -3.9321 H       1  UNL1        0.0618
     33 H          -2.4231   -3.9794   -3.8238 H       1  UNL1        0.0624
     34 H          -4.5301   -3.2266   -3.1091 H       1  UNL1        0.0836
     35 H          -4.8896    0.4081   -0.8978 H       1  UNL1        0.0830
     36 H          -2.4646    0.7569   -1.0132 H       1  UNL1        0.0639
     37 H           1.9177    4.9370    0.6670 H       1  UNL1        0.1046
     38 H           1.7525    2.4377    0.3753 H       1  UNL1        0.1683
@<TRIPOS>BOND
     1     1     2    3
     2     2     3    1
     3     3     4   ar
     4     4     5   ar
     5     5     6   ar
     6     6     7    1
     7     7     8   am
     8     8     9    2
     9     8    10    1
    10    10    11    1
    11    11    12   ar
    12    12    13   ar
    13    13    14   ar
    14    14    15   ar
    15    15    16   ar
    16    16    17   ar
    17    17    18   ar
    18    18    19   ar
    19    19    20   ar
    20     6    21   ar
    21    21    22    1
    22    22    23   ar
    23    23    24   ar
    24    24    25   ar
    25    25    26   ar
    26    21     3   ar
    27    26    22   ar
    28    20    11   ar
    29    20    15   ar
    30     4    27    1
    31     7    28    1
    32    10    29    1
    33    10    30    1
    34    12    31    1
    35    13    32    1
    36    14    33    1
    37    16    34    1
    38    18    35    1
    39    19    36    1
    40    25    37    1
    41    26    38    1
