
     RDKit          3D

 38 41  0  0  0  0  0  0  0  0999 V2000
    3.0836    2.0124    6.0938 N   0  0  0  0  0  0  0  0  0  0  0  0
    2.7850    1.2677    5.1310 C   0  0  0  0  0  0  0  0  0  0  0  0
    2.4243    0.4274    4.0515 C   0  0  0  0  0  0  0  0  0  0  0  0
    2.4358   -0.9831    4.1895 C   0  0  0  0  0  0  0  0  0  0  0  0
    2.0435   -1.5741    2.5763 S   0  0  0  0  0  0  0  0  0  0  0  0
    1.8849   -0.0286    1.8150 C   0  0  0  0  0  0  0  0  0  0  0  0
    1.5697    0.1294    0.3970 N   0  0  0  0  0  0  0  0  0  0  0  0
    0.2025    0.1211   -0.0646 C   0  0  0  0  0  0  0  0  0  0  0  0
   -0.6800   -0.0309    0.7829 O   0  0  0  0  0  0  0  0  0  0  0  0
   -0.0729    0.2943   -1.5188 C   0  0  0  0  0  0  0  0  0  0  0  0
   -0.7581   -0.8427   -2.1559 C   0  0  0  0  0  0  0  0  0  0  0  0
   -0.0114   -1.8209   -2.8376 C   0  0  0  0  0  0  0  0  0  0  0  0
   -0.5945   -2.9250   -3.4233 C   0  0  0  0  0  0  0  0  0  0  0  0
   -1.9525   -3.0989   -3.3539 C   0  0  0  0  0  0  0  0  0  0  0  0
   -2.7067   -2.1648   -2.7003 C   0  0  0  0  0  0  0  0  0  0  0  0
   -4.0829   -2.3368   -2.6335 C   0  0  0  0  0  0  0  0  0  0  0  0
   -4.8218   -1.4394   -2.0083 N   0  0  0  0  0  0  0  0  0  0  0  0
   -4.2772   -0.3366   -1.4192 C   0  0  0  0  0  0  0  0  0  0  0  0
   -2.9272   -0.1210   -1.4573 C   0  0  0  0  0  0  0  0  0  0  0  0
   -2.1083   -1.0391   -2.1026 C   0  0  0  0  0  0  0  0  0  0  0  0
    2.1279    0.8599    2.7809 C   0  0  0  0  0  0  0  0  0  0  0  0
    2.1156    2.3267    2.4697 C   0  0  0  0  0  0  0  0  0  0  0  0
    2.3293    3.3236    3.3751 N   0  0  0  0  0  0  0  0  0  0  0  0
    2.2736    4.4581    2.7538 N   0  0  0  0  0  0  0  0  0  0  0  0
    2.0302    4.2389    1.4687 C   0  0  0  0  0  0  0  0  0  0  0  0
    1.9311    2.8770    1.2918 N   0  0  0  0  0  0  0  0  0  0  0  0
    2.6545   -1.5618    5.1337 H   0  0  0  0  0  0  0  0  0  0  0  0
    2.3129    0.2406   -0.2788 H   0  0  0  0  0  0  0  0  0  0  0  0
    0.9051    0.4068   -2.0831 H   0  0  0  0  0  0  0  0  0  0  0  0
   -0.5656    1.2758   -1.6745 H   0  0  0  0  0  0  0  0  0  0  0  0
    1.0709   -1.6414   -2.8655 H   0  0  0  0  0  0  0  0  0  0  0  0
    0.0159   -3.6484   -3.9321 H   0  0  0  0  0  0  0  0  0  0  0  0
   -2.4231   -3.9794   -3.8238 H   0  0  0  0  0  0  0  0  0  0  0  0
   -4.5301   -3.2266   -3.1091 H   0  0  0  0  0  0  0  0  0  0  0  0
   -4.8896    0.4081   -0.8978 H   0  0  0  0  0  0  0  0  0  0  0  0
   -2.4646    0.7569   -1.0132 H   0  0  0  0  0  0  0  0  0  0  0  0
    1.9177    4.9370    0.6670 H   0  0  0  0  0  0  0  0  0  0  0  0
    1.7525    2.4377    0.3753 H   0  0  0  0  0  0  0  0  0  0  0  0
  1  2  3  0
  2  3  1  0
  3  4  2  0
  4  5  1  0
  5  6  1  0
  6  7  1  0
  7  8  1  0
  8  9  2  0
  8 10  1  0
 10 11  1  0
 11 12  2  0
 12 13  1  0
 13 14  2  0
 14 15  1  0
 15 16  2  0
 16 17  1  0
 17 18  2  0
 18 19  1  0
 19 20  2  0
  6 21  2  0
 21 22  1  0
 22 23  2  0
 23 24  1  0
 24 25  2  0
 25 26  1  0
 21  3  1  0
 26 22  1  0
 20 11  1  0
 20 15  1  0
  4 27  1  0
  7 28  1  0
 10 29  1  0
 10 30  1  0
 12 31  1  0
 13 32  1  0
 14 33  1  0
 16 34  1  0
 18 35  1  0
 19 36  1  0
 25 37  1  0
 26 38  1  0
M  END
$$$$
