@<TRIPOS>MOLECULE
*****
 135 138 0 0 0
SMALL
GASTEIGER

@<TRIPOS>ATOM
      1 C           2.4775   -1.2702    1.7193 C.3     1  UNL1       -0.0400
      2 C           2.2304   -2.7163    2.1094 C.3     1  UNL1       -0.0621
      3 C           1.2738   -0.4833    1.9870 C.3     1  UNL1       -0.0419
      4 C           0.0033   -0.8964    1.2881 C.3     1  UNL1        0.0244
      5 C          -1.1417    0.0138    1.6722 C.2     1  UNL1        0.2156
      6 O          -0.7695    1.1098    2.2166 O.2     1  UNL1       -0.2756
      7 N          -2.5259   -0.3209    1.4435 N.am    1  UNL1       -0.3014
      8 C          -2.8626   -1.5771    0.8708 C.3     1  UNL1        0.0163
      9 C          -2.9452   -1.6652   -0.6099 C.3     1  UNL1       -0.0174
     10 C          -3.3203   -3.1316   -0.9438 C.3     1  UNL1        0.0445
     11 N          -4.5742   -3.4188   -0.3123 N.2     1  UNL1       -0.2524
     12 C          -5.3283   -4.3455   -0.7251 C.2     1  UNL1        0.2147
     13 O          -5.8055   -3.6548    0.3576 O.2     1  UNL1       -0.4938
     14 C          -5.2373   -5.3429   -1.8413 C.3     1  UNL1        0.1580
     15 O          -6.3373   -5.2474   -2.6514 O.3     1  UNL1       -0.3798
     16 C          -5.1125   -6.7269   -1.2871 C.3     1  UNL1        0.1179
     17 O          -3.9256   -6.7250   -0.4994 O.3     1  UNL1       -0.3861
     18 C          -6.2138   -7.0647   -0.3016 C.3     1  UNL1        0.1118
     19 O          -5.9258   -8.3193    0.2782 O.3     1  UNL1       -0.3865
     20 C          -7.5802   -7.1180   -0.9008 C.3     1  UNL1        0.1065
     21 O          -8.4735   -7.4253    0.1392 O.3     1  UNL1       -0.3869
     22 C          -7.7477   -8.1938   -1.9317 C.3     1  UNL1        0.0727
     23 O          -9.0854   -8.1551   -2.3650 O.3     1  UNL1       -0.3924
     24 C          -3.5463    0.6256    1.8053 C.3     1  UNL1        0.0163
     25 C          -3.9340    1.5385    0.6971 C.3     1  UNL1       -0.0174
     26 C          -2.7577    2.3436    0.2069 C.3     1  UNL1        0.0445
     27 N          -3.2607    3.1742   -0.8741 N.2     1  UNL1       -0.2524
     28 C          -3.7640    4.3202   -0.5820 C.2     1  UNL1        0.2147
     29 O          -4.1847    4.9611   -1.7260 O.2     1  UNL1       -0.4938
     30 C          -4.0582    5.2211    0.5974 C.3     1  UNL1        0.1580
     31 O          -3.6992    4.6445    1.7902 O.3     1  UNL1       -0.3798
     32 C          -5.5123    5.5795    0.5286 C.3     1  UNL1        0.1179
     33 O          -6.3330    4.4520    0.6688 O.3     1  UNL1       -0.3861
     34 C          -5.8905    6.5079    1.6650 C.3     1  UNL1        0.1118
     35 O          -7.2574    6.7959    1.4766 O.3     1  UNL1       -0.3865
     36 C          -5.0716    7.7616    1.5555 C.3     1  UNL1        0.1065
     37 O          -5.5602    8.6292    2.5622 O.3     1  UNL1       -0.3869
     38 C          -5.3095    8.3839    0.1903 C.3     1  UNL1        0.0727
     39 O          -4.6120    9.6153    0.1966 O.3     1  UNL1       -0.3924
     40 C           3.2560   -1.2009    0.5157 C.3     1  UNL1       -0.0304
     41 C           2.8219   -1.7872   -0.7694 C.3     1  UNL1       -0.0491
     42 C           3.6690   -1.0780   -1.8500 C.3     1  UNL1       -0.0491
     43 C           4.6782   -0.4028   -1.0131 C.3     1  UNL1       -0.0299
     44 C           5.5960    0.5774   -1.5877 C.3     1  UNL1       -0.0342
     45 C           6.4504   -0.0337   -2.6405 C.3     1  UNL1       -0.0494
     46 C           7.7797   -0.5462   -2.1404 C.3     1  UNL1       -0.0494
     47 C           8.6116    0.4738   -1.4324 C.3     1  UNL1       -0.0330
     48 C           9.3254   -0.2921   -0.3117 C.3     1  UNL1       -0.0235
     49 C          10.2335    0.5725    0.5004 C.3     1  UNL1        0.0555
     50 O           9.9500    0.2785    1.8531 O.3     1  UNL1       -0.3918
     51 C           9.9602    2.0479    0.3020 C.3     1  UNL1       -0.0263
     52 C           8.4420    2.2084    0.3782 C.3     1  UNL1       -0.0448
     53 C           7.7738    1.6183   -0.8418 C.3     1  UNL1       -0.0259
     54 C           7.6629    2.6982   -1.8676 C.3     1  UNL1       -0.0590
     55 C           6.5007    0.9879   -0.4231 C.3     1  UNL1       -0.0299
     56 C           5.6442    1.7597    0.5291 C.3     1  UNL1       -0.0227
     57 C           4.6488    0.7927    1.1381 C.3     1  UNL1        0.0614
     58 O           5.3340   -0.2224    1.7947 O.3     1  UNL1       -0.3912
     59 C           3.7823    0.1491    0.0931 C.3     1  UNL1        0.0000
     60 C           2.7895    1.0493   -0.5521 C.3     1  UNL1       -0.0567
     61 H           3.2263   -0.9496    2.5595 H       1  UNL1        0.0301
     62 H           1.6690   -2.7594    3.0860 H       1  UNL1        0.0233
     63 H           3.1722   -3.2705    2.3003 H       1  UNL1        0.0233
     64 H           1.6832   -3.2766    1.3357 H       1  UNL1        0.0233
     65 H           1.4213    0.6305    1.9388 H       1  UNL1        0.0272
     66 H           1.0379   -0.6136    3.0909 H       1  UNL1        0.0272
     67 H          -0.3249   -1.9081    1.5689 H       1  UNL1        0.0358
     68 H           0.0668   -0.7501    0.1707 H       1  UNL1        0.0358
     69 H          -2.2341   -2.4272    1.2203 H       1  UNL1        0.0465
     70 H          -3.9034   -1.8342    1.2527 H       1  UNL1        0.0465
     71 H          -3.7230   -1.0775   -1.1012 H       1  UNL1        0.0298
     72 H          -1.9823   -1.5140   -1.1299 H       1  UNL1        0.0298
     73 H          -2.4950   -3.8146   -0.6702 H       1  UNL1        0.0510
     74 H          -3.4507   -3.2303   -2.0397 H       1  UNL1        0.0510
     75 H          -6.6849   -3.9494    0.8072 H       1  UNL1        0.2935
     76 H          -4.3449   -5.1082   -2.4631 H       1  UNL1        0.0719
     77 H          -6.7714   -4.3520   -2.6102 H       1  UNL1        0.2106
     78 H          -4.9710   -7.4522   -2.0832 H       1  UNL1        0.0651
     79 H          -4.1591   -6.4036    0.4158 H       1  UNL1        0.2100
     80 H          -6.1980   -6.3028    0.4997 H       1  UNL1        0.0647
     81 H          -5.3779   -8.8362   -0.3597 H       1  UNL1        0.2100
     82 H          -7.9102   -6.1500   -1.2955 H       1  UNL1        0.0643
     83 H          -8.3335   -8.3874    0.3478 H       1  UNL1        0.2100
     84 H          -7.5518   -9.2056   -1.5065 H       1  UNL1        0.0584
     85 H          -7.1258   -8.0135   -2.8439 H       1  UNL1        0.0584
     86 H          -9.7146   -8.1791   -1.5909 H       1  UNL1        0.2095
     87 H          -4.4381    0.1132    2.2690 H       1  UNL1        0.0465
     88 H          -3.1500    1.2421    2.6641 H       1  UNL1        0.0465
     89 H          -4.7748    2.2336    1.0202 H       1  UNL1        0.0298
     90 H          -4.3298    1.0083   -0.1976 H       1  UNL1        0.0298
     91 H          -2.3475    2.9387    1.0295 H       1  UNL1        0.0510
     92 H          -2.0173    1.5899   -0.1872 H       1  UNL1        0.0510
     93 H          -4.1363    4.5760   -2.6538 H       1  UNL1        0.2935
     94 H          -3.4285    6.1139    0.4216 H       1  UNL1        0.0719
     95 H          -4.4480    4.3789    2.3778 H       1  UNL1        0.2106
     96 H          -5.7335    5.9832   -0.4716 H       1  UNL1        0.0651
     97 H          -6.5711    4.2950    1.6137 H       1  UNL1        0.2100
     98 H          -5.7081    5.9631    2.6092 H       1  UNL1        0.0647
     99 H          -7.7427    6.2466    2.1515 H       1  UNL1        0.2100
    100 H          -4.0181    7.5241    1.7167 H       1  UNL1        0.0643
    101 H          -6.3241    9.1092    2.1348 H       1  UNL1        0.2100
    102 H          -4.8516    7.7976   -0.6095 H       1  UNL1        0.0584
    103 H          -6.3845    8.5355    0.0300 H       1  UNL1        0.0584
    104 H          -4.8520   10.1111   -0.6476 H       1  UNL1        0.2095
    105 H           4.2248   -1.7640    0.7526 H       1  UNL1        0.0310
    106 H           1.7817   -1.7232   -1.0540 H       1  UNL1        0.0268
    107 H           3.1380   -2.8742   -0.8495 H       1  UNL1        0.0268
    108 H           3.0409   -0.3782   -2.4430 H       1  UNL1        0.0268
    109 H           4.1507   -1.7914   -2.5328 H       1  UNL1        0.0268
    110 H           5.2995   -1.2015   -0.5272 H       1  UNL1        0.0310
    111 H           5.1497    1.4923   -2.0113 H       1  UNL1        0.0306
    112 H           6.6511    0.6782   -3.4958 H       1  UNL1        0.0268
    113 H           5.9384   -0.8948   -3.1170 H       1  UNL1        0.0268
    114 H           7.5970   -1.4680   -1.5276 H       1  UNL1        0.0268
    115 H           8.3449   -0.8832   -3.0213 H       1  UNL1        0.0268
    116 H           9.4017    0.9095   -2.0653 H       1  UNL1        0.0307
    117 H           8.6002   -0.8711    0.2647 H       1  UNL1        0.0293
    118 H           9.9545   -1.0502   -0.8503 H       1  UNL1        0.0293
    119 H          11.3078    0.3355    0.3639 H       1  UNL1        0.0593
    120 H           9.0568   -0.1373    1.9578 H       1  UNL1        0.2098
    121 H          10.3748    2.4572   -0.6311 H       1  UNL1        0.0290
    122 H          10.4000    2.5917    1.1514 H       1  UNL1        0.0290
    123 H           8.2420    3.2919    0.4226 H       1  UNL1        0.0271
    124 H           8.1024    1.6393    1.2680 H       1  UNL1        0.0271
    125 H           8.1809    3.6452   -1.5459 H       1  UNL1        0.0235
    126 H           8.1459    2.4570   -2.8447 H       1  UNL1        0.0235
    127 H           6.5945    3.0168   -2.0433 H       1  UNL1        0.0235
    128 H           6.7747    0.0227    0.0919 H       1  UNL1        0.0310
    129 H           5.0862    2.5357   -0.0600 H       1  UNL1        0.0293
    130 H           6.1727    2.2876    1.3303 H       1  UNL1        0.0293
    131 H           4.0484    1.3679    1.8568 H       1  UNL1        0.0599
    132 H           5.7024    0.1888    2.6387 H       1  UNL1        0.2098
    133 H           2.5809    1.9584    0.0848 H       1  UNL1        0.0236
    134 H           1.8286    0.5317   -0.8127 H       1  UNL1        0.0236
    135 H           3.1320    1.4753   -1.5253 H       1  UNL1        0.0236
@<TRIPOS>BOND
     1     1     2    1
     2     1     3    1
     3     3     4    1
     4     4     5    1
     5     5     6    2
     6     5     7   am
     7     7     8    1
     8     8     9    1
     9     9    10    1
    10    10    11    1
    11    11    12    2
    12    12    13    1
    13    12    14    1
    14    14    15    1
    15    14    16    1
    16    16    17    1
    17    16    18    1
    18    18    19    1
    19    18    20    1
    20    20    21    1
    21    20    22    1
    22    22    23    1
    23     7    24    1
    24    24    25    1
    25    25    26    1
    26    26    27    1
    27    27    28    2
    28    28    29    1
    29    28    30    1
    30    30    31    1
    31    30    32    1
    32    32    33    1
    33    32    34    1
    34    34    35    1
    35    34    36    1
    36    36    37    1
    37    36    38    1
    38    38    39    1
    39     1    40    1
    40    40    41    1
    41    41    42    1
    42    42    43    1
    43    43    44    1
    44    44    45    1
    45    45    46    1
    46    46    47    1
    47    47    48    1
    48    48    49    1
    49    49    50    1
    50    49    51    1
    51    51    52    1
    52    52    53    1
    53    53    54    1
    54    53    55    1
    55    55    56    1
    56    56    57    1
    57    57    58    1
    58    57    59    1
    59    59    60    1
    60    59    40    1
    61    59    43    1
    62    55    44    1
    63    53    47    1
    64     1    61    1
    65     2    62    1
    66     2    63    1
    67     2    64    1
    68     3    65    1
    69     3    66    1
    70     4    67    1
    71     4    68    1
    72     8    69    1
    73     8    70    1
    74     9    71    1
    75     9    72    1
    76    10    73    1
    77    10    74    1
    78    13    75    1
    79    14    76    1
    80    15    77    1
    81    16    78    1
    82    17    79    1
    83    18    80    1
    84    19    81    1
    85    20    82    1
    86    21    83    1
    87    22    84    1
    88    22    85    1
    89    23    86    1
    90    24    87    1
    91    24    88    1
    92    25    89    1
    93    25    90    1
    94    26    91    1
    95    26    92    1
    96    29    93    1
    97    30    94    1
    98    31    95    1
    99    32    96    1
   100    33    97    1
   101    34    98    1
   102    35    99    1
   103    36   100    1
   104    37   101    1
   105    38   102    1
   106    38   103    1
   107    39   104    1
   108    40   105    1
   109    41   106    1
   110    41   107    1
   111    42   108    1
   112    42   109    1
   113    43   110    1
   114    44   111    1
   115    45   112    1
   116    45   113    1
   117    46   114    1
   118    46   115    1
   119    47   116    1
   120    48   117    1
   121    48   118    1
   122    49   119    1
   123    50   120    1
   124    51   121    1
   125    51   122    1
   126    52   123    1
   127    52   124    1
   128    54   125    1
   129    54   126    1
   130    54   127    1
   131    55   128    1
   132    56   129    1
   133    56   130    1
   134    57   131    1
   135    58   132    1
   136    60   133    1
   137    60   134    1
   138    60   135    1
