@<TRIPOS>MOLECULE
*****
 51 55 0 0 0
SMALL
GASTEIGER

@<TRIPOS>ATOM
      1 C          -3.5289   -3.8177   -1.6656 C.3     1  UNL1       -0.0455
      2 C          -3.2355   -3.8437   -0.1900 C.3     1  UNL1        0.0396
      3 N          -3.1133   -2.4568    0.2739 N.ar    1  UNL1       -0.2589
      4 N          -4.0600   -1.6656    0.7332 N.ar    1  UNL1       -0.1755
      5 C          -3.6192   -0.4658    1.0702 C.ar    1  UNL1        0.0660
      6 C          -4.4319    0.6396    1.6255 C.3     1  UNL1       -0.0203
      7 C          -2.2466   -0.4548    0.8104 C.ar    1  UNL1        0.0304
      8 C          -1.9774   -1.7082    0.3193 C.ar    1  UNL1        0.1293
      9 C          -0.5590   -1.8086    0.0227 C.2     1  UNL1        0.2700
     10 O           0.0572   -2.8213   -0.4475 O.2     1  UNL1       -0.2679
     11 N           0.0133   -0.5515    0.3603 N.am    1  UNL1       -0.2531
     12 C           1.4257   -0.2727    0.2087 C.ar    1  UNL1        0.0545
     13 C           1.9156    0.2029   -0.9896 C.ar    1  UNL1       -0.0324
     14 C           3.2743    0.4744   -1.1465 C.ar    1  UNL1       -0.0041
     15 C           3.8149    0.9864   -2.4304 C.3     1  UNL1       -0.0361
     16 C           4.1063    0.2504   -0.0631 C.ar    1  UNL1        0.1641
     17 N           5.4382    0.4321    0.0380 N.ar    1  UNL1       -0.1292
     18 N           5.8127    0.0858    1.2677 N.ar    1  UNL1       -0.1340
     19 C           4.6943   -0.3133    1.9278 C.ar    1  UNL1        0.1347
     20 C           4.6212   -0.7877    3.3260 C.3     1  UNL1       -0.0041
     21 N           3.6364   -0.2124    1.1060 N.ar    1  UNL1       -0.2846
     22 C           2.3258   -0.4666    1.2345 C.ar    1  UNL1        0.0344
     23 C          -1.0158    0.3074    0.8438 C.3     1  UNL1        0.0854
     24 C          -1.0599    1.6302    0.1870 C.ar    1  UNL1       -0.0221
     25 C          -2.0956    2.1377   -0.5272 C.ar    1  UNL1       -0.0551
     26 C          -1.9840    3.4074   -1.0530 C.ar    1  UNL1       -0.0431
     27 C          -0.8752    4.2115   -0.9019 C.ar    1  UNL1        0.0410
     28 CL         -0.8176    5.8220   -1.6082 Cl      1  UNL1       -0.0835
     29 C           0.1754    3.6924   -0.1755 C.ar    1  UNL1       -0.0431
     30 C           0.0834    2.4223    0.3600 C.ar    1  UNL1       -0.0551
     31 H          -4.5978   -4.0249   -1.7979 H       1  UNL1        0.0247
     32 H          -3.2665   -2.8117   -2.0874 H       1  UNL1        0.0247
     33 H          -2.9342   -4.5589   -2.2397 H       1  UNL1        0.0247
     34 H          -2.2626   -4.3701   -0.0597 H       1  UNL1        0.0506
     35 H          -3.9831   -4.3976    0.3983 H       1  UNL1        0.0506
     36 H          -5.3097    0.2160    2.1778 H       1  UNL1        0.0293
     37 H          -4.8730    1.2059    0.7743 H       1  UNL1        0.0293
     38 H          -3.8943    1.2714    2.3404 H       1  UNL1        0.0293
     39 H           1.2335    0.3669   -1.8182 H       1  UNL1        0.0640
     40 H           3.9483    0.1772   -3.1789 H       1  UNL1        0.0279
     41 H           4.7682    1.5075   -2.2207 H       1  UNL1        0.0279
     42 H           3.1207    1.7459   -2.8288 H       1  UNL1        0.0279
     43 H           3.9667   -0.1606    3.9589 H       1  UNL1        0.0308
     44 H           5.6457   -0.7456    3.7785 H       1  UNL1        0.0308
     45 H           4.2417   -1.8283    3.4053 H       1  UNL1        0.0308
     46 H           1.9348   -0.8441    2.1846 H       1  UNL1        0.0833
     47 H          -0.7086    0.5548    1.9248 H       1  UNL1        0.0606
     48 H          -2.9721    1.5206   -0.6632 H       1  UNL1        0.0621
     49 H          -2.8378    3.7691   -1.6156 H       1  UNL1        0.0632
     50 H           1.0662    4.2899   -0.0323 H       1  UNL1        0.0632
     51 H           0.9391    2.0607    0.9364 H       1  UNL1        0.0621
@<TRIPOS>BOND
     1     1     2    1
     2     2     3    1
     3     3     4   ar
     4     4     5   ar
     5     5     6    1
     6     5     7   ar
     7     7     8   ar
     8     8     9    1
     9     9    10    2
    10     9    11   am
    11    11    12    1
    12    12    13   ar
    13    13    14   ar
    14    14    15    1
    15    14    16   ar
    16    16    17   ar
    17    17    18   ar
    18    18    19   ar
    19    19    20    1
    20    19    21   ar
    21    21    22   ar
    22    11    23    1
    23    23    24    1
    24    24    25   ar
    25    25    26   ar
    26    26    27   ar
    27    27    28    1
    28    27    29   ar
    29    29    30   ar
    30     8     3   ar
    31    22    12   ar
    32    30    24   ar
    33    23     7    1
    34    21    16   ar
    35     1    31    1
    36     1    32    1
    37     1    33    1
    38     2    34    1
    39     2    35    1
    40     6    36    1
    41     6    37    1
    42     6    38    1
    43    13    39    1
    44    15    40    1
    45    15    41    1
    46    15    42    1
    47    20    43    1
    48    20    44    1
    49    20    45    1
    50    22    46    1
    51    23    47    1
    52    25    48    1
    53    26    49    1
    54    29    50    1
    55    30    51    1
