
     RDKit          3D

 90 92  0  0  0  0  0  0  0  0999 V2000
   -2.8208    1.0770    0.8228 C   0  0  0  0  0  0  0  0  0  0  0  0
   -3.8322    0.3374    0.2002 N   0  0  0  0  0  0  0  0  0  0  0  0
   -3.8804   -1.0826    0.3732 C   0  0  0  0  0  0  0  0  0  0  0  0
   -4.2311   -1.6006    1.7398 C   0  0  0  0  0  0  0  0  0  0  0  0
   -5.4377   -1.0415    2.3794 C   0  0  0  0  0  0  0  0  0  0  0  0
   -6.7052   -1.1707    1.6474 N   0  0  0  0  0  0  0  0  0  0  0  0
   -7.6017   -0.3161    2.3434 C   0  0  0  0  0  0  0  0  0  0  0  0
   -8.9111    0.0402    1.7640 C   0  0  0  0  0  0  0  0  0  0  0  0
   -8.9113    0.6402    0.4654 N   0  0  0  0  0  0  0  0  0  0  0  0
   -8.7197   -0.2944   -0.5580 C   0  0  0  0  0  0  0  0  0  0  0  0
   -8.4817    0.3086   -1.9302 C   0  0  0  0  0  0  0  0  0  0  0  0
   -7.1418    0.9085   -2.0809 C   0  0  0  0  0  0  0  0  0  0  0  0
   -6.8164    2.0394   -1.2887 N   0  0  0  0  0  0  0  0  0  0  0  0
   -5.2897    1.9993   -1.0906 C   0  0  0  0  0  0  0  0  0  0  0  0
   -5.0648    0.9141   -0.1022 C   0  0  0  0  0  0  0  0  0  0  0  0
   -1.4410    0.6620    0.4412 C   0  0  0  0  0  0  0  0  0  0  0  0
   -0.8581    1.1612   -0.7347 C   0  0  0  0  0  0  0  0  0  0  0  0
    0.4058    0.6987   -1.0336 C   0  0  0  0  0  0  0  0  0  0  0  0
    1.1476   -0.1993   -0.2976 C   0  0  0  0  0  0  0  0  0  0  0  0
    2.4420   -0.7580   -0.6539 C   0  0  0  0  0  0  0  0  0  0  0  0
    3.6420   -0.1211   -0.3799 N   0  0  0  0  0  0  0  0  0  0  0  0
    3.9870    1.1503   -0.9145 C   0  0  0  0  0  0  0  0  0  0  0  0
    5.2448    1.5683   -0.2191 C   0  0  0  0  0  0  0  0  0  0  0  0
    5.9466    2.7893   -0.7621 C   0  0  0  0  0  0  0  0  0  0  0  0
    7.2719    2.8752   -0.0373 N   0  0  0  0  0  0  0  0  0  0  0  0
    8.0002    1.7536   -0.5881 C   0  0  0  0  0  0  0  0  0  0  0  0
    8.6061    0.8378    0.4525 C   0  0  0  0  0  0  0  0  0  0  0  0
    9.1842   -0.2562   -0.2634 N   0  0  0  0  0  0  0  0  0  0  0  0
    9.4003   -1.4411    0.5038 C   0  0  0  0  0  0  0  0  0  0  0  0
    8.0458   -2.0722    0.8820 C   0  0  0  0  0  0  0  0  0  0  0  0
    7.3351   -2.4157   -0.3977 C   0  0  0  0  0  0  0  0  0  0  0  0
    6.0445   -2.9819   -0.2481 N   0  0  0  0  0  0  0  0  0  0  0  0
    5.0038   -2.1126    0.2420 C   0  0  0  0  0  0  0  0  0  0  0  0
    4.7361   -1.0484   -0.7607 C   0  0  0  0  0  0  0  0  0  0  0  0
    0.4933   -0.6283    0.8387 C   0  0  0  0  0  0  0  0  0  0  0  0
   -0.7697   -0.2377    1.2429 C   0  0  0  0  0  0  0  0  0  0  0  0
   -3.0036    2.1592    0.6095 H   0  0  0  0  0  0  0  0  0  0  0  0
   -2.9068    0.9992    1.9300 H   0  0  0  0  0  0  0  0  0  0  0  0
   -4.5067   -1.6101   -0.3462 H   0  0  0  0  0  0  0  0  0  0  0  0
   -2.8351   -1.4628    0.1819 H   0  0  0  0  0  0  0  0  0  0  0  0
   -3.4005   -1.5260    2.4832 H   0  0  0  0  0  0  0  0  0  0  0  0
   -4.3972   -2.7338    1.6927 H   0  0  0  0  0  0  0  0  0  0  0  0
   -5.6269   -1.6980    3.2967 H   0  0  0  0  0  0  0  0  0  0  0  0
   -5.3235   -0.0299    2.8313 H   0  0  0  0  0  0  0  0  0  0  0  0
   -7.0248   -2.1604    1.6248 H   0  0  0  0  0  0  0  0  0  0  0  0
   -7.0406    0.6596    2.4996 H   0  0  0  0  0  0  0  0  0  0  0  0
   -7.8017   -0.7691    3.3537 H   0  0  0  0  0  0  0  0  0  0  0  0
   -9.3626    0.8181    2.4612 H   0  0  0  0  0  0  0  0  0  0  0  0
   -9.6641   -0.8039    1.8378 H   0  0  0  0  0  0  0  0  0  0  0  0
   -9.6287    1.3669    0.3028 H   0  0  0  0  0  0  0  0  0  0  0  0
   -9.6556   -0.9350   -0.6866 H   0  0  0  0  0  0  0  0  0  0  0  0
   -7.9207   -1.0371   -0.3330 H   0  0  0  0  0  0  0  0  0  0  0  0
   -9.2367    1.1191   -2.1253 H   0  0  0  0  0  0  0  0  0  0  0  0
   -8.6569   -0.5079   -2.6695 H   0  0  0  0  0  0  0  0  0  0  0  0
   -7.1246    1.2889   -3.1772 H   0  0  0  0  0  0  0  0  0  0  0  0
   -6.3999    0.0896   -2.1343 H   0  0  0  0  0  0  0  0  0  0  0  0
   -6.9604    2.9196   -1.8164 H   0  0  0  0  0  0  0  0  0  0  0  0
   -4.8139    1.9042   -2.0618 H   0  0  0  0  0  0  0  0  0  0  0  0
   -5.0906    3.0018   -0.6981 H   0  0  0  0  0  0  0  0  0  0  0  0
   -5.4600    1.3134    0.8977 H   0  0  0  0  0  0  0  0  0  0  0  0
   -5.8435    0.1305   -0.3310 H   0  0  0  0  0  0  0  0  0  0  0  0
   -1.4111    1.8649   -1.3338 H   0  0  0  0  0  0  0  0  0  0  0  0
    0.8643    1.1014   -1.9550 H   0  0  0  0  0  0  0  0  0  0  0  0
    2.4571   -1.0882   -1.7465 H   0  0  0  0  0  0  0  0  0  0  0  0
    2.4970   -1.7912   -0.1435 H   0  0  0  0  0  0  0  0  0  0  0  0
    4.1754    1.1654   -2.0243 H   0  0  0  0  0  0  0  0  0  0  0  0
    3.1683    1.9175   -0.7822 H   0  0  0  0  0  0  0  0  0  0  0  0
    5.9717    0.8061    0.0402 H   0  0  0  0  0  0  0  0  0  0  0  0
    4.8580    1.8919    0.8379 H   0  0  0  0  0  0  0  0  0  0  0  0
    5.3793    3.6901   -0.4889 H   0  0  0  0  0  0  0  0  0  0  0  0
    6.1458    2.6788   -1.8426 H   0  0  0  0  0  0  0  0  0  0  0  0
    7.0947    2.7965    0.9821 H   0  0  0  0  0  0  0  0  0  0  0  0
    7.3572    1.1529   -1.2365 H   0  0  0  0  0  0  0  0  0  0  0  0
    8.8821    2.1519   -1.1635 H   0  0  0  0  0  0  0  0  0  0  0  0
    9.4734    1.4269    0.8974 H   0  0  0  0  0  0  0  0  0  0  0  0
    7.9315    0.5977    1.2714 H   0  0  0  0  0  0  0  0  0  0  0  0
    8.9394   -0.3969   -1.2277 H   0  0  0  0  0  0  0  0  0  0  0  0
    9.9702   -1.2458    1.4043 H   0  0  0  0  0  0  0  0  0  0  0  0
    9.8974   -2.1928   -0.1286 H   0  0  0  0  0  0  0  0  0  0  0  0
    7.4747   -1.4509    1.5634 H   0  0  0  0  0  0  0  0  0  0  0  0
    8.2854   -3.0184    1.4043 H   0  0  0  0  0  0  0  0  0  0  0  0
    7.9725   -3.1875   -0.9034 H   0  0  0  0  0  0  0  0  0  0  0  0
    7.3431   -1.5564   -1.1199 H   0  0  0  0  0  0  0  0  0  0  0  0
    5.7676   -3.4332   -1.1468 H   0  0  0  0  0  0  0  0  0  0  0  0
    5.3285   -1.6382    1.1981 H   0  0  0  0  0  0  0  0  0  0  0  0
    4.1374   -2.7684    0.4895 H   0  0  0  0  0  0  0  0  0  0  0  0
    5.5964   -0.5078   -1.0650 H   0  0  0  0  0  0  0  0  0  0  0  0
    4.3618   -1.5326   -1.7366 H   0  0  0  0  0  0  0  0  0  0  0  0
    0.9976   -1.3262    1.4912 H   0  0  0  0  0  0  0  0  0  0  0  0
   -1.2542   -0.5862    2.1330 H   0  0  0  0  0  0  0  0  0  0  0  0
  1  2  1  0
  2  3  1  0
  3  4  1  0
  4  5  1  0
  5  6  1  0
  6  7  1  0
  7  8  1  0
  8  9  1  0
  9 10  1  0
 10 11  1  0
 11 12  1  0
 12 13  1  0
 13 14  1  0
 14 15  1  0
  1 16  1  0
 16 17  2  0
 17 18  1  0
 18 19  2  0
 19 20  1  0
 20 21  1  0
 21 22  1  0
 22 23  1  0
 23 24  1  0
 24 25  1  0
 25 26  1  0
 26 27  1  0
 27 28  1  0
 28 29  1  0
 29 30  1  0
 30 31  1  0
 31 32  1  0
 32 33  1  0
 33 34  1  0
 19 35  1  0
 35 36  2  0
 15  2  1  0
 36 16  1  0
 34 21  1  0
  1 37  1  0
  1 38  1  0
  3 39  1  0
  3 40  1  0
  4 41  1  0
  4 42  1  0
  5 43  1  0
  5 44  1  0
  6 45  1  0
  7 46  1  0
  7 47  1  0
  8 48  1  0
  8 49  1  0
  9 50  1  0
 10 51  1  0
 10 52  1  0
 11 53  1  0
 11 54  1  0
 12 55  1  0
 12 56  1  0
 13 57  1  0
 14 58  1  0
 14 59  1  0
 15 60  1  0
 15 61  1  0
 17 62  1  0
 18 63  1  0
 20 64  1  0
 20 65  1  0
 22 66  1  0
 22 67  1  0
 23 68  1  0
 23 69  1  0
 24 70  1  0
 24 71  1  0
 25 72  1  0
 26 73  1  0
 26 74  1  0
 27 75  1  0
 27 76  1  0
 28 77  1  0
 29 78  1  0
 29 79  1  0
 30 80  1  0
 30 81  1  0
 31 82  1  0
 31 83  1  0
 32 84  1  0
 33 85  1  0
 33 86  1  0
 34 87  1  0
 34 88  1  0
 35 89  1  0
 36 90  1  0
M  END
$$$$
