@<TRIPOS>MOLECULE
*****
 47 49 0 0 0
SMALL
GASTEIGER

@<TRIPOS>ATOM
      1 C          -4.7914    1.6542    0.8355 C.3     1  UNL1       -0.0523
      2 C          -3.8589    0.5069    0.9799 C.3     1  UNL1       -0.0036
      3 N          -3.5890   -0.3129   -0.1222 N.3     1  UNL1       -0.2986
      4 C          -4.6034   -1.1638   -0.6213 C.3     1  UNL1       -0.0036
      5 C          -5.7776   -0.5570   -1.2857 C.3     1  UNL1       -0.0523
      6 C          -2.5908    0.0352   -1.0554 C.3     1  UNL1        0.0275
      7 C          -1.2808    0.3125   -0.4804 C.ar    1  UNL1        0.0098
      8 C          -1.0063    1.5680    0.0276 C.ar    1  UNL1        0.1214
      9 O          -1.8436    2.6597    0.0194 O.3     1  UNL1       -0.5065
     10 C           0.2178    1.8680    0.6296 C.ar    1  UNL1       -0.0181
     11 C           1.2023    0.8868    0.7305 C.ar    1  UNL1       -0.0371
     12 C           0.8783   -0.3388    0.2108 C.ar    1  UNL1        0.0318
     13 N           1.8995   -1.3595    0.3248 N.pl3   1  UNL1       -0.3139
     14 C           3.2330   -1.1944    0.7103 C.ar    1  UNL1        0.0420
     15 C           4.2223   -0.4547    0.0798 C.ar    1  UNL1        0.0216
     16 C           3.8247    0.1884   -1.0743 C.ar    1  UNL1       -0.0494
     17 C           4.7623    0.9477   -1.7762 C.ar    1  UNL1       -0.0426
     18 C           6.0570    1.0431   -1.3126 C.ar    1  UNL1        0.0430
     19 CL          7.3140    1.9677   -2.1118 Cl      1  UNL1       -0.0835
     20 C           6.4270    0.3910   -0.1589 C.ar    1  UNL1       -0.0173
     21 C           5.5102   -0.3756    0.5639 C.ar    1  UNL1        0.0741
     22 N           5.8778   -1.0151    1.6792 N.ar    1  UNL1       -0.2548
     23 C           4.9843   -1.7559    2.3554 C.ar    1  UNL1        0.0300
     24 C           3.6851   -1.8394    1.8722 C.ar    1  UNL1       -0.0218
     25 C          -0.3059   -0.6946   -0.3935 C.ar    1  UNL1       -0.0327
     26 H          -4.5219    2.3794    1.6702 H       1  UNL1        0.0242
     27 H          -5.8647    1.4138    1.0682 H       1  UNL1        0.0242
     28 H          -4.7421    2.2279   -0.0928 H       1  UNL1        0.0242
     29 H          -2.9249    0.7566    1.5345 H       1  UNL1        0.0424
     30 H          -4.3883   -0.1843    1.7395 H       1  UNL1        0.0424
     31 H          -4.9786   -1.7697    0.2605 H       1  UNL1        0.0424
     32 H          -4.1662   -1.9118   -1.3201 H       1  UNL1        0.0424
     33 H          -6.7183   -1.1165   -0.9945 H       1  UNL1        0.0242
     34 H          -5.7288   -0.6999   -2.4099 H       1  UNL1        0.0242
     35 H          -5.9842    0.4930   -1.1100 H       1  UNL1        0.0242
     36 H          -2.4527   -0.8524   -1.7402 H       1  UNL1        0.0477
     37 H          -2.8899    0.8667   -1.7254 H       1  UNL1        0.0477
     38 H          -2.0863    3.0868   -0.8692 H       1  UNL1        0.2921
     39 H           0.4943    2.8319    1.0472 H       1  UNL1        0.0655
     40 H           2.1667    1.0590    1.1886 H       1  UNL1        0.0637
     41 H           1.7693   -2.3741    0.1284 H       1  UNL1        0.1522
     42 H           2.8247    0.1395   -1.4850 H       1  UNL1        0.0625
     43 H           4.5024    1.4698   -2.6852 H       1  UNL1        0.0632
     44 H           7.4462    0.4535    0.2248 H       1  UNL1        0.0653
     45 H           5.2765   -2.2782    3.2610 H       1  UNL1        0.0830
     46 H           3.0244   -2.4528    2.4707 H       1  UNL1        0.0651
     47 H          -0.5054   -1.6833   -0.7878 H       1  UNL1        0.0640
@<TRIPOS>BOND
     1     1     2    1
     2     2     3    1
     3     3     4    1
     4     4     5    1
     5     3     6    1
     6     6     7    1
     7     7     8   ar
     8     8     9    1
     9     8    10   ar
    10    10    11   ar
    11    11    12   ar
    12    12    13    1
    13    13    14    1
    14    14    15   ar
    15    15    16   ar
    16    16    17   ar
    17    17    18   ar
    18    18    19    1
    19    18    20   ar
    20    20    21   ar
    21    21    22   ar
    22    22    23   ar
    23    23    24   ar
    24    12    25   ar
    25    25     7   ar
    26    24    14   ar
    27    21    15   ar
    28     1    26    1
    29     1    27    1
    30     1    28    1
    31     2    29    1
    32     2    30    1
    33     4    31    1
    34     4    32    1
    35     5    33    1
    36     5    34    1
    37     5    35    1
    38     6    36    1
    39     6    37    1
    40     9    38    1
    41    10    39    1
    42    11    40    1
    43    13    41    1
    44    16    42    1
    45    17    43    1
    46    20    44    1
    47    23    45    1
    48    24    46    1
    49    25    47    1
