@<TRIPOS>MOLECULE
*****
 43 47 0 0 0
SMALL
GASTEIGER

@<TRIPOS>ATOM
      1 N           0.3352    3.0810    4.4319 N.1     1  UNL1       -0.1893
      2 C           0.8898    2.1173    4.0684 C.1     1  UNL1        0.1192
      3 C           1.5561    0.9240    3.6093 C.ar    1  UNL1        0.1438
      4 C           2.5425    0.1933    4.1902 C.ar    1  UNL1        0.0643
      5 N           2.8340   -0.8292    3.3754 N.ar    1  UNL1       -0.2348
      6 C           2.0590   -0.7795    2.2778 C.ar    1  UNL1        0.1385
      7 C           1.9801   -1.5976    1.1576 C.ar    1  UNL1       -0.0181
      8 C           1.0626   -1.2558    0.2027 C.ar    1  UNL1       -0.0477
      9 C           0.2464   -0.1504    0.3349 C.ar    1  UNL1        0.0173
     10 C          -0.7299    0.2164   -0.6859 C.ar    1  UNL1        0.0781
     11 C          -0.4555    0.6275   -1.9740 C.ar    1  UNL1        0.0968
     12 C           0.8647    0.7724   -2.5386 C.ar    1  UNL1        0.0040
     13 C           1.7378    1.6804   -2.0134 C.ar    1  UNL1       -0.0497
     14 C           2.9918    1.8047   -2.5659 C.ar    1  UNL1       -0.0244
     15 C           3.3730    1.0356   -3.6279 C.ar    1  UNL1        0.1417
     16 F           4.6251    1.1505   -4.1906 F       1  UNL1       -0.2040
     17 C           2.5093    0.1117   -4.1758 C.ar    1  UNL1        0.0767
     18 CL          3.0067   -0.8716   -5.5367 Cl      1  UNL1       -0.0806
     19 C           1.2408   -0.0017   -3.6030 C.ar    1  UNL1       -0.0313
     20 N          -1.6639    0.8534   -2.5534 N.ar    1  UNL1       -0.2351
     21 C          -2.6327    0.5954   -1.6700 C.ar    1  UNL1        0.0973
     22 N          -2.0537    0.1989   -0.5077 N.ar    1  UNL1       -0.3261
     23 C          -2.7818   -0.1614    0.6616 C.3     1  UNL1        0.0468
     24 C          -2.2712   -1.2837    1.5085 C.3     1  UNL1        0.0319
     25 C          -3.7333   -1.7432    1.6416 C.3     1  UNL1        0.2527
     26 F          -3.8799   -3.0958    1.6052 F       1  UNL1       -0.2055
     27 F          -4.4303   -1.0717    2.6249 F       1  UNL1       -0.2055
     28 C          -3.9473   -1.0879    0.2783 C.3     1  UNL1        0.0319
     29 C           0.3742    0.6252    1.4763 C.ar    1  UNL1        0.0216
     30 N           1.2725    0.3014    2.4242 N.ar    1  UNL1       -0.2906
     31 H           2.9950    0.4278    5.1528 H       1  UNL1        0.0859
     32 H           2.6373   -2.4588    1.0870 H       1  UNL1        0.0654
     33 H           0.9551   -1.8506   -0.6880 H       1  UNL1        0.0626
     34 H           1.4341    2.2981   -1.1619 H       1  UNL1        0.0625
     35 H           3.7279    2.5154   -2.1834 H       1  UNL1        0.0647
     36 H           0.5866   -0.7450   -4.0652 H       1  UNL1        0.0640
     37 H          -3.6955    0.6917   -1.8649 H       1  UNL1        0.1029
     38 H          -3.1957    0.6702    1.2632 H       1  UNL1        0.0532
     39 H          -1.8512   -0.9274    2.4813 H       1  UNL1        0.0343
     40 H          -1.7096   -2.0674    1.0040 H       1  UNL1        0.0343
     41 H          -4.9044   -0.5847    0.1451 H       1  UNL1        0.0343
     42 H          -3.6421   -1.8246   -0.4961 H       1  UNL1        0.0343
     43 H          -0.2597    1.4956    1.5940 H       1  UNL1        0.0820
@<TRIPOS>BOND
     1     1     2    3
     2     2     3    1
     3     3     4   ar
     4     4     5   ar
     5     5     6   ar
     6     6     7   ar
     7     7     8   ar
     8     8     9   ar
     9     9    10    1
    10    10    11   ar
    11    11    12    1
    12    12    13   ar
    13    13    14   ar
    14    14    15   ar
    15    15    16    1
    16    15    17   ar
    17    17    18    1
    18    17    19   ar
    19    11    20   ar
    20    20    21   ar
    21    21    22   ar
    22    22    23    1
    23    23    24    1
    24    24    25    1
    25    25    26    1
    26    25    27    1
    27    25    28    1
    28     9    29   ar
    29    29    30   ar
    30    30     3   ar
    31    30     6   ar
    32    22    10   ar
    33    28    23    1
    34    19    12   ar
    35     4    31    1
    36     7    32    1
    37     8    33    1
    38    13    34    1
    39    14    35    1
    40    19    36    1
    41    21    37    1
    42    23    38    1
    43    24    39    1
    44    24    40    1
    45    28    41    1
    46    28    42    1
    47    29    43    1
