
     RDKit          3D

 43 47  0  0  0  0  0  0  0  0999 V2000
    0.3352    3.0810    4.4319 N   0  0  0  0  0  0  0  0  0  0  0  0
    0.8898    2.1173    4.0684 C   0  0  0  0  0  0  0  0  0  0  0  0
    1.5561    0.9240    3.6093 C   0  0  0  0  0  0  0  0  0  0  0  0
    2.5425    0.1933    4.1902 C   0  0  0  0  0  0  0  0  0  0  0  0
    2.8340   -0.8292    3.3754 N   0  0  0  0  0  0  0  0  0  0  0  0
    2.0590   -0.7795    2.2778 C   0  0  0  0  0  0  0  0  0  0  0  0
    1.9801   -1.5976    1.1576 C   0  0  0  0  0  0  0  0  0  0  0  0
    1.0626   -1.2558    0.2027 C   0  0  0  0  0  0  0  0  0  0  0  0
    0.2464   -0.1504    0.3349 C   0  0  0  0  0  0  0  0  0  0  0  0
   -0.7299    0.2164   -0.6859 C   0  0  0  0  0  0  0  0  0  0  0  0
   -0.4555    0.6275   -1.9740 C   0  0  0  0  0  0  0  0  0  0  0  0
    0.8647    0.7724   -2.5386 C   0  0  0  0  0  0  0  0  0  0  0  0
    1.7378    1.6804   -2.0134 C   0  0  0  0  0  0  0  0  0  0  0  0
    2.9918    1.8047   -2.5659 C   0  0  0  0  0  0  0  0  0  0  0  0
    3.3730    1.0356   -3.6279 C   0  0  0  0  0  0  0  0  0  0  0  0
    4.6251    1.1505   -4.1906 F   0  0  0  0  0  0  0  0  0  0  0  0
    2.5093    0.1117   -4.1758 C   0  0  0  0  0  0  0  0  0  0  0  0
    3.0067   -0.8716   -5.5367 Cl  0  0  0  0  0  0  0  0  0  0  0  0
    1.2408   -0.0017   -3.6030 C   0  0  0  0  0  0  0  0  0  0  0  0
   -1.6639    0.8534   -2.5534 N   0  0  0  0  0  0  0  0  0  0  0  0
   -2.6327    0.5954   -1.6700 C   0  0  0  0  0  0  0  0  0  0  0  0
   -2.0537    0.1989   -0.5077 N   0  0  0  0  0  0  0  0  0  0  0  0
   -2.7818   -0.1614    0.6616 C   0  0  0  0  0  0  0  0  0  0  0  0
   -2.2712   -1.2837    1.5085 C   0  0  0  0  0  0  0  0  0  0  0  0
   -3.7333   -1.7432    1.6416 C   0  0  0  0  0  0  0  0  0  0  0  0
   -3.8799   -3.0958    1.6052 F   0  0  0  0  0  0  0  0  0  0  0  0
   -4.4303   -1.0717    2.6249 F   0  0  0  0  0  0  0  0  0  0  0  0
   -3.9473   -1.0879    0.2783 C   0  0  0  0  0  0  0  0  0  0  0  0
    0.3742    0.6252    1.4763 C   0  0  0  0  0  0  0  0  0  0  0  0
    1.2725    0.3014    2.4242 N   0  0  0  0  0  0  0  0  0  0  0  0
    2.9950    0.4278    5.1528 H   0  0  0  0  0  0  0  0  0  0  0  0
    2.6373   -2.4588    1.0870 H   0  0  0  0  0  0  0  0  0  0  0  0
    0.9551   -1.8506   -0.6880 H   0  0  0  0  0  0  0  0  0  0  0  0
    1.4341    2.2981   -1.1619 H   0  0  0  0  0  0  0  0  0  0  0  0
    3.7279    2.5154   -2.1834 H   0  0  0  0  0  0  0  0  0  0  0  0
    0.5866   -0.7450   -4.0652 H   0  0  0  0  0  0  0  0  0  0  0  0
   -3.6955    0.6917   -1.8649 H   0  0  0  0  0  0  0  0  0  0  0  0
   -3.1957    0.6702    1.2632 H   0  0  0  0  0  0  0  0  0  0  0  0
   -1.8512   -0.9274    2.4813 H   0  0  0  0  0  0  0  0  0  0  0  0
   -1.7096   -2.0674    1.0040 H   0  0  0  0  0  0  0  0  0  0  0  0
   -4.9044   -0.5847    0.1451 H   0  0  0  0  0  0  0  0  0  0  0  0
   -3.6421   -1.8246   -0.4961 H   0  0  0  0  0  0  0  0  0  0  0  0
   -0.2597    1.4956    1.5940 H   0  0  0  0  0  0  0  0  0  0  0  0
  1  2  3  0
  2  3  1  0
  3  4  2  0
  4  5  1  0
  5  6  2  0
  6  7  1  0
  7  8  2  0
  8  9  1  0
  9 10  1  0
 10 11  2  0
 11 12  1  0
 12 13  2  0
 13 14  1  0
 14 15  2  0
 15 16  1  0
 15 17  1  0
 17 18  1  0
 17 19  2  0
 11 20  1  0
 20 21  2  0
 21 22  1  0
 22 23  1  0
 23 24  1  0
 24 25  1  0
 25 26  1  0
 25 27  1  0
 25 28  1  0
  9 29  2  0
 29 30  1  0
 30  3  1  0
 30  6  1  0
 22 10  1  0
 28 23  1  0
 19 12  1  0
  4 31  1  0
  7 32  1  0
  8 33  1  0
 13 34  1  0
 14 35  1  0
 19 36  1  0
 21 37  1  0
 23 38  1  0
 24 39  1  0
 24 40  1  0
 28 41  1  0
 28 42  1  0
 29 43  1  0
M  END
$$$$
