@<TRIPOS>MOLECULE
*****
 40 43 0 0 0
SMALL
GASTEIGER

@<TRIPOS>ATOM
      1 N          -3.1187    1.6457    2.0746 N.pl3   1  UNL1       -0.3430
      2 C          -3.1852    1.4343    0.6674 C.ar    1  UNL1        0.1204
      3 C          -4.1734    1.8864   -0.1793 C.ar    1  UNL1        0.0681
      4 N          -3.8995    1.4939   -1.4337 N.ar    1  UNL1       -0.2342
      5 C          -2.7359    0.7891   -1.3984 C.ar    1  UNL1        0.1389
      6 C          -2.0092    0.1664   -2.3924 C.ar    1  UNL1       -0.0181
      7 C          -0.8306   -0.4876   -2.0239 C.ar    1  UNL1       -0.0477
      8 C          -0.4079   -0.5109   -0.7164 C.ar    1  UNL1        0.0173
      9 C           0.8181   -1.1997   -0.3568 C.ar    1  UNL1        0.0780
     10 C           2.0276   -0.5889   -0.0292 C.ar    1  UNL1        0.0967
     11 C           2.3480    0.8406    0.0315 C.ar    1  UNL1        0.0026
     12 C           3.1722    1.4323   -0.9031 C.ar    1  UNL1       -0.0498
     13 C           3.4806    2.7621   -0.8517 C.ar    1  UNL1       -0.0258
     14 C           2.9754    3.5490    0.1370 C.ar    1  UNL1        0.1234
     15 F           3.2950    4.8766    0.1723 F       1  UNL1       -0.2055
     16 C           2.1473    2.9878    1.0885 C.ar    1  UNL1       -0.0258
     17 C           1.8401    1.6420    1.0299 C.ar    1  UNL1       -0.0498
     18 N           2.9025   -1.5742    0.2345 N.ar    1  UNL1       -0.2351
     19 C           2.3106   -2.7704    0.0910 C.ar    1  UNL1        0.0972
     20 N           1.0451   -2.5235   -0.2684 N.ar    1  UNL1       -0.3241
     21 C           0.0526   -3.5391   -0.5265 C.3     1  UNL1        0.0852
     22 C          -0.7065   -3.9236    0.7245 C.3     1  UNL1        0.2569
     23 F          -1.3695   -2.8771    1.2823 F       1  UNL1       -0.2073
     24 F           0.2433   -4.4291    1.6213 F       1  UNL1       -0.2073
     25 C          -1.1693    0.1240    0.2288 C.ar    1  UNL1        0.0221
     26 N          -2.3251    0.7679   -0.1180 N.ar    1  UNL1       -0.2876
     27 H          -3.3172    2.5797    2.4955 H       1  UNL1        0.1437
     28 H          -2.8703    0.8598    2.6835 H       1  UNL1        0.1437
     29 H          -5.0435    2.4735    0.1298 H       1  UNL1        0.0865
     30 H          -2.3162    0.1696   -3.4146 H       1  UNL1        0.0654
     31 H          -0.2581   -0.9751   -2.7953 H       1  UNL1        0.0626
     32 H           3.5840    0.8246   -1.6963 H       1  UNL1        0.0625
     33 H           4.1326    3.2476   -1.5841 H       1  UNL1        0.0646
     34 H           1.7450    3.6193    1.8765 H       1  UNL1        0.0646
     35 H           1.1836    1.1927    1.7880 H       1  UNL1        0.0625
     36 H           2.7919   -3.7496    0.2446 H       1  UNL1        0.1029
     37 H          -0.6632   -3.1634   -1.3088 H       1  UNL1        0.0548
     38 H           0.5715   -4.4048   -0.9796 H       1  UNL1        0.0548
     39 H          -1.4081   -4.7597    0.5396 H       1  UNL1        0.1037
     40 H          -0.8595    0.1118    1.2471 H       1  UNL1        0.0820
@<TRIPOS>BOND
     1     1     2    1
     2     2     3   ar
     3     3     4   ar
     4     4     5   ar
     5     5     6   ar
     6     6     7   ar
     7     7     8   ar
     8     8     9    1
     9     9    10   ar
    10    10    11    1
    11    11    12   ar
    12    12    13   ar
    13    13    14   ar
    14    14    15    1
    15    14    16   ar
    16    16    17   ar
    17    10    18   ar
    18    18    19   ar
    19    19    20   ar
    20    20    21    1
    21    21    22    1
    22    22    23    1
    23    22    24    1
    24     8    25   ar
    25    25    26   ar
    26    26     2   ar
    27    26     5   ar
    28    20     9   ar
    29    17    11   ar
    30     1    27    1
    31     1    28    1
    32     3    29    1
    33     6    30    1
    34     7    31    1
    35    12    32    1
    36    13    33    1
    37    16    34    1
    38    17    35    1
    39    19    36    1
    40    21    37    1
    41    21    38    1
    42    22    39    1
    43    25    40    1
