
     RDKit          3D

 40 43  0  0  0  0  0  0  0  0999 V2000
   -3.1187    1.6457    2.0746 N   0  0  0  0  0  0  0  0  0  0  0  0
   -3.1852    1.4343    0.6674 C   0  0  0  0  0  0  0  0  0  0  0  0
   -4.1734    1.8864   -0.1793 C   0  0  0  0  0  0  0  0  0  0  0  0
   -3.8995    1.4939   -1.4337 N   0  0  0  0  0  0  0  0  0  0  0  0
   -2.7359    0.7891   -1.3984 C   0  0  0  0  0  0  0  0  0  0  0  0
   -2.0092    0.1664   -2.3924 C   0  0  0  0  0  0  0  0  0  0  0  0
   -0.8306   -0.4876   -2.0239 C   0  0  0  0  0  0  0  0  0  0  0  0
   -0.4079   -0.5109   -0.7164 C   0  0  0  0  0  0  0  0  0  0  0  0
    0.8181   -1.1997   -0.3568 C   0  0  0  0  0  0  0  0  0  0  0  0
    2.0276   -0.5889   -0.0292 C   0  0  0  0  0  0  0  0  0  0  0  0
    2.3480    0.8406    0.0315 C   0  0  0  0  0  0  0  0  0  0  0  0
    3.1722    1.4323   -0.9031 C   0  0  0  0  0  0  0  0  0  0  0  0
    3.4806    2.7621   -0.8517 C   0  0  0  0  0  0  0  0  0  0  0  0
    2.9754    3.5490    0.1370 C   0  0  0  0  0  0  0  0  0  0  0  0
    3.2950    4.8766    0.1723 F   0  0  0  0  0  0  0  0  0  0  0  0
    2.1473    2.9878    1.0885 C   0  0  0  0  0  0  0  0  0  0  0  0
    1.8401    1.6420    1.0299 C   0  0  0  0  0  0  0  0  0  0  0  0
    2.9025   -1.5742    0.2345 N   0  0  0  0  0  0  0  0  0  0  0  0
    2.3106   -2.7704    0.0910 C   0  0  0  0  0  0  0  0  0  0  0  0
    1.0451   -2.5235   -0.2684 N   0  0  0  0  0  0  0  0  0  0  0  0
    0.0526   -3.5391   -0.5265 C   0  0  0  0  0  0  0  0  0  0  0  0
   -0.7065   -3.9236    0.7245 C   0  0  0  0  0  0  0  0  0  0  0  0
   -1.3695   -2.8771    1.2823 F   0  0  0  0  0  0  0  0  0  0  0  0
    0.2433   -4.4291    1.6213 F   0  0  0  0  0  0  0  0  0  0  0  0
   -1.1693    0.1240    0.2288 C   0  0  0  0  0  0  0  0  0  0  0  0
   -2.3251    0.7679   -0.1180 N   0  0  0  0  0  0  0  0  0  0  0  0
   -3.3172    2.5797    2.4955 H   0  0  0  0  0  0  0  0  0  0  0  0
   -2.8703    0.8598    2.6835 H   0  0  0  0  0  0  0  0  0  0  0  0
   -5.0435    2.4735    0.1298 H   0  0  0  0  0  0  0  0  0  0  0  0
   -2.3162    0.1696   -3.4146 H   0  0  0  0  0  0  0  0  0  0  0  0
   -0.2581   -0.9751   -2.7953 H   0  0  0  0  0  0  0  0  0  0  0  0
    3.5840    0.8246   -1.6963 H   0  0  0  0  0  0  0  0  0  0  0  0
    4.1326    3.2476   -1.5841 H   0  0  0  0  0  0  0  0  0  0  0  0
    1.7450    3.6193    1.8765 H   0  0  0  0  0  0  0  0  0  0  0  0
    1.1836    1.1927    1.7880 H   0  0  0  0  0  0  0  0  0  0  0  0
    2.7919   -3.7496    0.2446 H   0  0  0  0  0  0  0  0  0  0  0  0
   -0.6632   -3.1634   -1.3088 H   0  0  0  0  0  0  0  0  0  0  0  0
    0.5715   -4.4048   -0.9796 H   0  0  0  0  0  0  0  0  0  0  0  0
   -1.4081   -4.7597    0.5396 H   0  0  0  0  0  0  0  0  0  0  0  0
   -0.8595    0.1118    1.2471 H   0  0  0  0  0  0  0  0  0  0  0  0
  1  2  1  0
  2  3  2  0
  3  4  1  0
  4  5  2  0
  5  6  1  0
  6  7  2  0
  7  8  1  0
  8  9  1  0
  9 10  2  0
 10 11  1  0
 11 12  2  0
 12 13  1  0
 13 14  2  0
 14 15  1  0
 14 16  1  0
 16 17  2  0
 10 18  1  0
 18 19  2  0
 19 20  1  0
 20 21  1  0
 21 22  1  0
 22 23  1  0
 22 24  1  0
  8 25  2  0
 25 26  1  0
 26  2  1  0
 26  5  1  0
 20  9  1  0
 17 11  1  0
  1 27  1  0
  1 28  1  0
  3 29  1  0
  6 30  1  0
  7 31  1  0
 12 32  1  0
 13 33  1  0
 16 34  1  0
 17 35  1  0
 19 36  1  0
 21 37  1  0
 21 38  1  0
 22 39  1  0
 25 40  1  0
M  END
$$$$
