@<TRIPOS>MOLECULE
*****
 71 76 0 0 0
SMALL
GASTEIGER

@<TRIPOS>ATOM
      1 C          -6.8248    1.6738    2.3728 C.3     1  UNL1        0.0032
      2 N          -7.4533    2.1066    1.1584 N.am    1  UNL1       -0.3024
      3 C          -8.8369    2.5116    1.1693 C.3     1  UNL1        0.0032
      4 C          -6.7122    2.1178   -0.0437 C.2     1  UNL1        0.2627
      5 O          -7.3058    2.5387   -1.0788 O.2     1  UNL1       -0.2684
      6 C          -5.3291    1.6790   -0.1484 C.ar    1  UNL1        0.1070
      7 C          -4.2127    2.4639    0.1947 C.ar    1  UNL1       -0.0209
      8 C          -3.1045    1.7016   -0.0441 C.ar    1  UNL1        0.0378
      9 C          -1.7355    1.9063    0.0889 C.ar    1  UNL1        0.0419
     10 N          -0.8648    0.9361   -0.2418 N.ar    1  UNL1       -0.2219
     11 C          -1.2500   -0.2533   -0.7053 C.ar    1  UNL1        0.2224
     12 N          -0.3692   -1.3209   -1.0659 N.pl3   1  UNL1       -0.2685
     13 C           1.0321   -1.3122   -0.9376 C.ar    1  UNL1        0.1250
     14 C           1.8014   -0.3166   -0.4370 C.ar    1  UNL1       -0.0208
     15 C           3.1908   -0.4651   -0.3777 C.ar    1  UNL1       -0.0449
     16 C           3.8521   -1.5693   -0.7999 C.ar    1  UNL1        0.0551
     17 C           5.2622   -1.7939   -0.7723 C.2     1  UNL1        0.2482
     18 O           5.6073   -3.0444   -0.9314 O.2     1  UNL1       -0.2699
     19 N           6.3629   -0.9329   -0.6102 N.am    1  UNL1       -0.2945
     20 C           6.2444    0.4655   -0.3921 C.3     1  UNL1        0.0304
     21 C           7.5180    1.2528   -0.4369 C.3     1  UNL1        0.0237
     22 C           7.9993    1.5809    0.9657 C.3     1  UNL1       -0.0360
     23 C           8.4191    0.3589    1.7444 C.3     1  UNL1       -0.0501
     24 C           9.2768   -0.5848    0.9502 C.3     1  UNL1       -0.0360
     25 C           8.8164   -0.7164   -0.4867 C.3     1  UNL1        0.0237
     26 C           7.6740   -1.5891   -0.7066 C.3     1  UNL1        0.0304
     27 N           8.5951    0.5830   -1.1204 N.3     1  UNL1       -0.3075
     28 C           3.0056   -2.5842   -1.3169 C.ar    1  UNL1        0.0418
     29 N           1.7126   -2.4204   -1.3598 N.ar    1  UNL1       -0.2394
     30 N          -2.5992   -0.4432   -0.8313 N.ar    1  UNL1       -0.1962
     31 C          -3.5101    0.4847   -0.5184 C.ar    1  UNL1        0.1466
     32 N          -4.8957    0.4972   -0.5734 N.ar    1  UNL1       -0.3180
     33 C          -5.5551   -0.6688   -1.0343 C.3     1  UNL1        0.0366
     34 C          -6.9825   -0.7757   -1.1829 C.3     1  UNL1       -0.0320
     35 C          -7.5438   -1.3903    0.0938 C.3     1  UNL1       -0.0511
     36 C          -6.4363   -2.3257    0.4971 C.3     1  UNL1       -0.0511
     37 C          -5.1828   -1.8903   -0.1766 C.3     1  UNL1       -0.0320
     38 H          -5.9004    2.2985    2.5768 H       1  UNL1        0.0428
     39 H          -6.4443    0.6428    2.3110 H       1  UNL1        0.0428
     40 H          -7.4910    1.7792    3.2579 H       1  UNL1        0.0428
     41 H          -9.1110    3.2285    1.9550 H       1  UNL1        0.0428
     42 H          -9.0439    3.0498    0.1941 H       1  UNL1        0.0428
     43 H          -9.5252    1.6354    1.1232 H       1  UNL1        0.0428
     44 H          -4.2519    3.4769    0.5730 H       1  UNL1        0.0647
     45 H          -1.4394    2.8679    0.4610 H       1  UNL1        0.0838
     46 H          -0.8053   -2.2150   -1.4697 H       1  UNL1        0.1564
     47 H           1.3371    0.5852   -0.0861 H       1  UNL1        0.0652
     48 H           3.7207    0.3817    0.0541 H       1  UNL1        0.0627
     49 H           5.5511    0.8511   -1.2005 H       1  UNL1        0.0480
     50 H           5.8153    0.6815    0.6371 H       1  UNL1        0.0480
     51 H           7.3434    2.2361   -0.9323 H       1  UNL1        0.0476
     52 H           7.1156    2.0180    1.5106 H       1  UNL1        0.0281
     53 H           8.7712    2.3765    0.9462 H       1  UNL1        0.0281
     54 H           8.9926    0.7160    2.6244 H       1  UNL1        0.0266
     55 H           7.5477   -0.1775    2.1359 H       1  UNL1        0.0266
     56 H          10.3576   -0.2612    0.9362 H       1  UNL1        0.0281
     57 H           9.2385   -1.5792    1.4113 H       1  UNL1        0.0281
     58 H           9.7049   -1.1368   -1.0312 H       1  UNL1        0.0476
     59 H           7.7322   -1.9793   -1.7685 H       1  UNL1        0.0480
     60 H           7.6412   -2.5097   -0.0786 H       1  UNL1        0.0480
     61 H           8.3918    0.4075   -2.1119 H       1  UNL1        0.1226
     62 H           3.4471   -3.4938   -1.6737 H       1  UNL1        0.0838
     63 H          -5.0720   -0.9204   -2.0408 H       1  UNL1        0.0528
     64 H          -7.1732   -1.6391   -1.9346 H       1  UNL1        0.0285
     65 H          -7.5844    0.0142   -1.6111 H       1  UNL1        0.0285
     66 H          -7.7511   -0.6788    0.8811 H       1  UNL1        0.0266
     67 H          -8.4632   -2.0038   -0.1475 H       1  UNL1        0.0266
     68 H          -6.7344   -3.3640    0.2108 H       1  UNL1        0.0266
     69 H          -6.3643   -2.2850    1.6084 H       1  UNL1        0.0266
     70 H          -4.8133   -2.7365   -0.7883 H       1  UNL1        0.0285
     71 H          -4.4056   -1.6584    0.5617 H       1  UNL1        0.0285
@<TRIPOS>BOND
     1     1     2    1
     2     2     3    1
     3     2     4   am
     4     4     5    2
     5     4     6    1
     6     6     7   ar
     7     7     8   ar
     8     8     9   ar
     9     9    10   ar
    10    10    11   ar
    11    11    12    1
    12    12    13    1
    13    13    14   ar
    14    14    15   ar
    15    15    16   ar
    16    16    17    1
    17    17    18    2
    18    17    19   am
    19    19    20    1
    20    20    21    1
    21    21    22    1
    22    22    23    1
    23    23    24    1
    24    24    25    1
    25    25    26    1
    26    25    27    1
    27    16    28   ar
    28    28    29   ar
    29    11    30   ar
    30    30    31   ar
    31    31    32   ar
    32    32    33    1
    33    33    34    1
    34    34    35    1
    35    35    36    1
    36    36    37    1
    37    32     6   ar
    38    37    33    1
    39    31     8   ar
    40    29    13   ar
    41    26    19    1
    42    27    21    1
    43     1    38    1
    44     1    39    1
    45     1    40    1
    46     3    41    1
    47     3    42    1
    48     3    43    1
    49     7    44    1
    50     9    45    1
    51    12    46    1
    52    14    47    1
    53    15    48    1
    54    20    49    1
    55    20    50    1
    56    21    51    1
    57    22    52    1
    58    22    53    1
    59    23    54    1
    60    23    55    1
    61    24    56    1
    62    24    57    1
    63    25    58    1
    64    26    59    1
    65    26    60    1
    66    27    61    1
    67    28    62    1
    68    33    63    1
    69    34    64    1
    70    34    65    1
    71    35    66    1
    72    35    67    1
    73    36    68    1
    74    36    69    1
    75    37    70    1
    76    37    71    1
