
     RDKit          3D

 52 55  0  0  0  0  0  0  0  0999 V2000
    6.8346   -1.5384   -1.7497 C   0  0  0  0  0  0  0  0  0  0  0  0
    6.4688   -0.5103   -0.8484 O   0  0  0  0  0  0  0  0  0  0  0  0
    5.2968   -0.5585   -0.1062 C   0  0  0  0  0  0  0  0  0  0  0  0
    4.3035   -1.5147   -0.0646 C   0  0  0  0  0  0  0  0  0  0  0  0
    3.2200   -1.3308    0.7681 C   0  0  0  0  0  0  0  0  0  0  0  0
    3.1018   -0.2102    1.5654 C   0  0  0  0  0  0  0  0  0  0  0  0
    4.0884    0.7548    1.5340 C   0  0  0  0  0  0  0  0  0  0  0  0
    5.1843    0.5798    0.6986 C   0  0  0  0  0  0  0  0  0  0  0  0
    1.7277    0.0011    2.6068 S   0  0  0  0  0  0  0  0  0  0  0  0
    2.1671    0.7926    3.8278 O   0  0  0  0  0  0  0  0  0  0  0  0
    1.3340   -1.3500    3.1301 O   0  0  0  0  0  0  0  0  0  0  0  0
    0.4176    0.8247    1.9063 N   0  0  0  0  0  0  0  0  0  0  0  0
   -0.0643    0.0653    0.7685 C   0  0  0  0  0  0  0  0  0  0  0  0
    0.4138    0.6075   -0.5503 C   0  0  0  0  0  0  0  0  0  0  0  0
    0.0075    1.9792   -0.7834 N   0  0  0  0  0  0  0  0  0  0  0  0
   -0.3675    2.5612    0.4655 C   0  0  0  0  0  0  0  0  0  0  0  0
    0.7165    2.1498    1.4716 C   0  0  0  0  0  0  0  0  0  0  0  0
   -1.2795    1.9536   -1.9273 S   0  0  0  0  0  0  0  0  0  0  0  0
   -1.6971    3.4018   -2.1388 O   0  0  0  0  0  0  0  0  0  0  0  0
   -0.8190    1.4690   -3.2679 O   0  0  0  0  0  0  0  0  0  0  0  0
   -2.6798    1.0957   -1.3873 C   0  0  0  0  0  0  0  0  0  0  0  0
   -3.6833    1.7665   -0.6947 C   0  0  0  0  0  0  0  0  0  0  0  0
   -4.8312    1.1550   -0.2308 C   0  0  0  0  0  0  0  0  0  0  0  0
   -4.9494   -0.1887   -0.4880 C   0  0  0  0  0  0  0  0  0  0  0  0
   -6.0931   -0.8458   -0.0372 O   0  0  0  0  0  0  0  0  0  0  0  0
   -6.3916   -2.1791   -0.4573 C   0  0  0  0  0  0  0  0  0  0  0  0
   -5.0897   -2.9521   -0.5671 C   0  0  0  0  0  0  0  0  0  0  0  0
   -4.1722   -2.2486   -1.3911 O   0  0  0  0  0  0  0  0  0  0  0  0
   -3.9838   -0.8927   -1.1683 C   0  0  0  0  0  0  0  0  0  0  0  0
   -2.8636   -0.2581   -1.6120 C   0  0  0  0  0  0  0  0  0  0  0  0
    7.4833   -2.3152   -1.2784 H   0  0  0  0  0  0  0  0  0  0  0  0
    7.3367   -1.0830   -2.6383 H   0  0  0  0  0  0  0  0  0  0  0  0
    5.9429   -2.0592   -2.1447 H   0  0  0  0  0  0  0  0  0  0  0  0
    4.5044   -2.3412   -0.7276 H   0  0  0  0  0  0  0  0  0  0  0  0
    2.4781   -2.1167    0.7532 H   0  0  0  0  0  0  0  0  0  0  0  0
    3.9635    1.6256    2.1754 H   0  0  0  0  0  0  0  0  0  0  0  0
    5.8965    1.4082    0.7606 H   0  0  0  0  0  0  0  0  0  0  0  0
   -1.1672   -0.0680    0.7970 H   0  0  0  0  0  0  0  0  0  0  0  0
    0.3371   -0.9779    0.8274 H   0  0  0  0  0  0  0  0  0  0  0  0
    0.0415   -0.0887   -1.3281 H   0  0  0  0  0  0  0  0  0  0  0  0
    1.5169    0.6154   -0.5387 H   0  0  0  0  0  0  0  0  0  0  0  0
   -1.3713    2.2134    0.8215 H   0  0  0  0  0  0  0  0  0  0  0  0
   -0.4013    3.6583    0.4885 H   0  0  0  0  0  0  0  0  0  0  0  0
    0.6335    2.8452    2.3317 H   0  0  0  0  0  0  0  0  0  0  0  0
    1.6809    2.2597    0.9276 H   0  0  0  0  0  0  0  0  0  0  0  0
   -3.5649    2.8346   -0.5033 H   0  0  0  0  0  0  0  0  0  0  0  0
   -5.5746    1.7340    0.3018 H   0  0  0  0  0  0  0  0  0  0  0  0
   -6.9198   -2.1723   -1.4264 H   0  0  0  0  0  0  0  0  0  0  0  0
   -7.0223   -2.7009    0.2843 H   0  0  0  0  0  0  0  0  0  0  0  0
   -5.3213   -3.9301   -1.0363 H   0  0  0  0  0  0  0  0  0  0  0  0
   -4.6910   -3.1208    0.4619 H   0  0  0  0  0  0  0  0  0  0  0  0
   -2.0988   -0.7999   -2.1472 H   0  0  0  0  0  0  0  0  0  0  0  0
  1  2  1  0
  2  3  1  0
  3  4  2  0
  4  5  1  0
  5  6  2  0
  6  7  1  0
  7  8  2  0
  6  9  1  0
  9 10  2  0
  9 11  2  0
  9 12  1  0
 12 13  1  0
 13 14  1  0
 14 15  1  0
 15 16  1  0
 16 17  1  0
 15 18  1  0
 18 19  2  0
 18 20  2  0
 18 21  1  0
 21 22  2  0
 22 23  1  0
 23 24  2  0
 24 25  1  0
 25 26  1  0
 26 27  1  0
 27 28  1  0
 28 29  1  0
 29 30  2  0
  8  3  1  0
 17 12  1  0
 30 21  1  0
 29 24  1  0
  1 31  1  0
  1 32  1  0
  1 33  1  0
  4 34  1  0
  5 35  1  0
  7 36  1  0
  8 37  1  0
 13 38  1  0
 13 39  1  0
 14 40  1  0
 14 41  1  0
 16 42  1  0
 16 43  1  0
 17 44  1  0
 17 45  1  0
 22 46  1  0
 23 47  1  0
 26 48  1  0
 26 49  1  0
 27 50  1  0
 27 51  1  0
 30 52  1  0
M  END
$$$$
