@<TRIPOS>MOLECULE
*****
 74 78 0 0 0
SMALL
GASTEIGER

@<TRIPOS>ATOM
      1 C           9.0825    1.0346   -1.7735 C.3     1  UNL1       -0.0394
      2 C           8.2732    1.4339   -0.5963 C.ar    1  UNL1       -0.0458
      3 C           8.8366    2.1525    0.4315 C.ar    1  UNL1       -0.0585
      4 C           8.0794    2.5123    1.5060 C.ar    1  UNL1       -0.0597
      5 C           6.7351    2.1540    1.5665 C.ar    1  UNL1       -0.0404
      6 C           6.1471    1.4335    0.5483 C.ar    1  UNL1        0.0330
      7 N           4.8015    1.0845    0.6182 N.pl3   1  UNL1       -0.3272
      8 C           3.7488    1.4735   -0.2766 C.3     1  UNL1        0.0250
      9 C           2.4161    1.0101    0.2614 C.3     1  UNL1        0.0147
     10 N           2.3661   -0.4181    0.4943 N.3     1  UNL1       -0.2993
     11 C           2.0572   -1.1549   -0.7071 C.3     1  UNL1        0.0004
     12 C           1.9646   -2.6025   -0.4043 C.3     1  UNL1       -0.0245
     13 C           0.9926   -3.1164    0.5665 C.3     1  UNL1        0.0131
     14 N          -0.4006   -2.9509    0.3712 N.am    1  UNL1       -0.3100
     15 C          -1.1741   -1.7778    0.3708 C.2     1  UNL1        0.2642
     16 O          -0.6748   -0.6558    0.5804 O.2     1  UNL1       -0.2685
     17 C          -2.6280   -1.8733    0.1132 C.ar    1  UNL1        0.1466
     18 N          -3.3674   -2.9676   -0.1278 N.ar    1  UNL1       -0.2273
     19 C          -4.6459   -2.5910   -0.3092 C.ar    1  UNL1        0.1121
     20 C          -5.7494   -3.5600   -0.5999 C.3     1  UNL1       -0.0059
     21 N          -4.7655   -1.2547   -0.1912 N.ar    1  UNL1       -0.2999
     22 C          -5.9632   -0.4980   -0.3213 C.ar    1  UNL1        0.0517
     23 C          -6.7148   -0.4948   -1.4772 C.ar    1  UNL1       -0.0341
     24 C          -7.8757    0.2282   -1.6305 C.ar    1  UNL1       -0.0143
     25 C          -8.3221    0.9986   -0.5703 C.ar    1  UNL1        0.1622
     26 C          -7.6018    1.0237    0.6014 C.ar    1  UNL1        0.1640
     27 C          -6.4252    0.2752    0.7213 C.ar    1  UNL1        0.0076
     28 O          -8.0579    1.8009    1.6620 O.3     1  UNL1       -0.4849
     29 C          -8.9335    2.8858    1.4143 C.3     1  UNL1        0.1237
     30 C          -9.9981    2.4892    0.4109 C.3     1  UNL1        0.1237
     31 O          -9.4828    1.7518   -0.6546 O.3     1  UNL1       -0.4849
     32 C          -3.5222   -0.8086    0.0695 C.ar    1  UNL1        0.0527
     33 C          -3.1206    0.6166    0.2871 C.3     1  UNL1       -0.0216
     34 C           3.5784   -0.8999    1.1290 C.3     1  UNL1        0.0147
     35 C           4.3799    0.2200    1.7361 C.3     1  UNL1        0.0250
     36 C           6.9264    1.0863   -0.5145 C.ar    1  UNL1       -0.0265
     37 C           6.3475    0.3091   -1.6313 C.3     1  UNL1       -0.0377
     38 H           8.5809    1.3537   -2.7118 H       1  UNL1        0.0278
     39 H           9.1619   -0.0664   -1.8053 H       1  UNL1        0.0278
     40 H          10.0639    1.5084   -1.7525 H       1  UNL1        0.0278
     41 H           9.9008    2.4259    0.3641 H       1  UNL1        0.0620
     42 H           8.5221    3.0737    2.3079 H       1  UNL1        0.0618
     43 H           6.1370    2.4414    2.4213 H       1  UNL1        0.0636
     44 H           3.8930    1.2352   -1.3271 H       1  UNL1        0.0476
     45 H           3.7091    2.6032   -0.2287 H       1  UNL1        0.0476
     46 H           2.2009    1.5220    1.2041 H       1  UNL1        0.0442
     47 H           1.6546    1.2282   -0.5337 H       1  UNL1        0.0442
     48 H           2.9280   -0.9650   -1.4379 H       1  UNL1        0.0427
     49 H           1.1486   -0.7953   -1.1941 H       1  UNL1        0.0427
     50 H           1.8236   -3.2021   -1.3775 H       1  UNL1        0.0293
     51 H           3.0291   -2.9383   -0.1320 H       1  UNL1        0.0293
     52 H           1.1712   -4.2413    0.6338 H       1  UNL1        0.0462
     53 H           1.2736   -2.8125    1.6414 H       1  UNL1        0.0462
     54 H          -0.9856   -3.8459    0.1913 H       1  UNL1        0.1490
     55 H          -5.7590   -3.8396   -1.6732 H       1  UNL1        0.0308
     56 H          -5.5707   -4.5112   -0.0436 H       1  UNL1        0.0308
     57 H          -6.7273   -3.1851   -0.2435 H       1  UNL1        0.0308
     58 H          -6.3682   -1.0990   -2.3138 H       1  UNL1        0.0639
     59 H          -8.4529    0.2132   -2.5575 H       1  UNL1        0.0656
     60 H          -5.9044    0.3267    1.6445 H       1  UNL1        0.0676
     61 H          -8.3649    3.7857    1.0866 H       1  UNL1        0.0731
     62 H          -9.4622    3.1842    2.3433 H       1  UNL1        0.0731
     63 H         -10.4308    3.4294    0.0050 H       1  UNL1        0.0731
     64 H         -10.8176    1.9672    0.9528 H       1  UNL1        0.0731
     65 H          -3.9178    1.3053   -0.0552 H       1  UNL1        0.0293
     66 H          -2.2124    0.8638   -0.3093 H       1  UNL1        0.0293
     67 H          -2.8335    0.7944    1.3460 H       1  UNL1        0.0293
     68 H           3.3722   -1.6966    1.8828 H       1  UNL1        0.0442
     69 H           4.2181   -1.3777    0.3593 H       1  UNL1        0.0442
     70 H           3.7035    0.8146    2.3877 H       1  UNL1        0.0476
     71 H           5.2396   -0.1926    2.2679 H       1  UNL1        0.0476
     72 H           6.0147    1.0515   -2.3956 H       1  UNL1        0.0278
     73 H           5.5981   -0.4261   -1.3447 H       1  UNL1        0.0278
     74 H           7.1536   -0.2830   -2.1641 H       1  UNL1        0.0278
@<TRIPOS>BOND
     1     1     2    1
     2     2     3   ar
     3     3     4   ar
     4     4     5   ar
     5     5     6   ar
     6     6     7    1
     7     7     8    1
     8     8     9    1
     9     9    10    1
    10    10    11    1
    11    11    12    1
    12    12    13    1
    13    13    14    1
    14    14    15   am
    15    15    16    2
    16    15    17    1
    17    17    18   ar
    18    18    19   ar
    19    19    20    1
    20    19    21   ar
    21    21    22    1
    22    22    23   ar
    23    23    24   ar
    24    24    25   ar
    25    25    26   ar
    26    26    27   ar
    27    26    28    1
    28    28    29    1
    29    29    30    1
    30    30    31    1
    31    21    32   ar
    32    32    33    1
    33    10    34    1
    34    34    35    1
    35     6    36   ar
    36    36    37    1
    37    36     2   ar
    38    35     7    1
    39    32    17   ar
    40    27    22   ar
    41    31    25    1
    42     1    38    1
    43     1    39    1
    44     1    40    1
    45     3    41    1
    46     4    42    1
    47     5    43    1
    48     8    44    1
    49     8    45    1
    50     9    46    1
    51     9    47    1
    52    11    48    1
    53    11    49    1
    54    12    50    1
    55    12    51    1
    56    13    52    1
    57    13    53    1
    58    14    54    1
    59    20    55    1
    60    20    56    1
    61    20    57    1
    62    23    58    1
    63    24    59    1
    64    27    60    1
    65    29    61    1
    66    29    62    1
    67    30    63    1
    68    30    64    1
    69    33    65    1
    70    33    66    1
    71    33    67    1
    72    34    68    1
    73    34    69    1
    74    35    70    1
    75    35    71    1
    76    37    72    1
    77    37    73    1
    78    37    74    1
