
     RDKit          3D

 74 78  0  0  0  0  0  0  0  0999 V2000
    9.0825    1.0346   -1.7735 C   0  0  0  0  0  0  0  0  0  0  0  0
    8.2732    1.4339   -0.5963 C   0  0  0  0  0  0  0  0  0  0  0  0
    8.8366    2.1525    0.4315 C   0  0  0  0  0  0  0  0  0  0  0  0
    8.0794    2.5123    1.5060 C   0  0  0  0  0  0  0  0  0  0  0  0
    6.7351    2.1540    1.5665 C   0  0  0  0  0  0  0  0  0  0  0  0
    6.1471    1.4335    0.5483 C   0  0  0  0  0  0  0  0  0  0  0  0
    4.8015    1.0845    0.6182 N   0  0  0  0  0  0  0  0  0  0  0  0
    3.7488    1.4735   -0.2766 C   0  0  0  0  0  0  0  0  0  0  0  0
    2.4161    1.0101    0.2614 C   0  0  0  0  0  0  0  0  0  0  0  0
    2.3661   -0.4181    0.4943 N   0  0  0  0  0  0  0  0  0  0  0  0
    2.0572   -1.1549   -0.7071 C   0  0  0  0  0  0  0  0  0  0  0  0
    1.9646   -2.6025   -0.4043 C   0  0  0  0  0  0  0  0  0  0  0  0
    0.9926   -3.1164    0.5665 C   0  0  0  0  0  0  0  0  0  0  0  0
   -0.4006   -2.9509    0.3712 N   0  0  0  0  0  0  0  0  0  0  0  0
   -1.1741   -1.7778    0.3708 C   0  0  0  0  0  0  0  0  0  0  0  0
   -0.6748   -0.6558    0.5804 O   0  0  0  0  0  0  0  0  0  0  0  0
   -2.6280   -1.8733    0.1132 C   0  0  0  0  0  0  0  0  0  0  0  0
   -3.3674   -2.9676   -0.1278 N   0  0  0  0  0  0  0  0  0  0  0  0
   -4.6459   -2.5910   -0.3092 C   0  0  0  0  0  0  0  0  0  0  0  0
   -5.7494   -3.5600   -0.5999 C   0  0  0  0  0  0  0  0  0  0  0  0
   -4.7655   -1.2547   -0.1912 N   0  0  0  0  0  0  0  0  0  0  0  0
   -5.9632   -0.4980   -0.3213 C   0  0  0  0  0  0  0  0  0  0  0  0
   -6.7148   -0.4948   -1.4772 C   0  0  0  0  0  0  0  0  0  0  0  0
   -7.8757    0.2282   -1.6305 C   0  0  0  0  0  0  0  0  0  0  0  0
   -8.3221    0.9986   -0.5703 C   0  0  0  0  0  0  0  0  0  0  0  0
   -7.6018    1.0237    0.6014 C   0  0  0  0  0  0  0  0  0  0  0  0
   -6.4252    0.2752    0.7213 C   0  0  0  0  0  0  0  0  0  0  0  0
   -8.0579    1.8009    1.6620 O   0  0  0  0  0  0  0  0  0  0  0  0
   -8.9335    2.8858    1.4143 C   0  0  0  0  0  0  0  0  0  0  0  0
   -9.9981    2.4892    0.4109 C   0  0  0  0  0  0  0  0  0  0  0  0
   -9.4828    1.7518   -0.6546 O   0  0  0  0  0  0  0  0  0  0  0  0
   -3.5222   -0.8086    0.0695 C   0  0  0  0  0  0  0  0  0  0  0  0
   -3.1206    0.6166    0.2871 C   0  0  0  0  0  0  0  0  0  0  0  0
    3.5784   -0.8999    1.1290 C   0  0  0  0  0  0  0  0  0  0  0  0
    4.3799    0.2200    1.7361 C   0  0  0  0  0  0  0  0  0  0  0  0
    6.9264    1.0863   -0.5145 C   0  0  0  0  0  0  0  0  0  0  0  0
    6.3475    0.3091   -1.6313 C   0  0  0  0  0  0  0  0  0  0  0  0
    8.5809    1.3537   -2.7118 H   0  0  0  0  0  0  0  0  0  0  0  0
    9.1619   -0.0664   -1.8053 H   0  0  0  0  0  0  0  0  0  0  0  0
   10.0639    1.5084   -1.7525 H   0  0  0  0  0  0  0  0  0  0  0  0
    9.9008    2.4259    0.3641 H   0  0  0  0  0  0  0  0  0  0  0  0
    8.5221    3.0737    2.3079 H   0  0  0  0  0  0  0  0  0  0  0  0
    6.1370    2.4414    2.4213 H   0  0  0  0  0  0  0  0  0  0  0  0
    3.8930    1.2352   -1.3271 H   0  0  0  0  0  0  0  0  0  0  0  0
    3.7091    2.6032   -0.2287 H   0  0  0  0  0  0  0  0  0  0  0  0
    2.2009    1.5220    1.2041 H   0  0  0  0  0  0  0  0  0  0  0  0
    1.6546    1.2282   -0.5337 H   0  0  0  0  0  0  0  0  0  0  0  0
    2.9280   -0.9650   -1.4379 H   0  0  0  0  0  0  0  0  0  0  0  0
    1.1486   -0.7953   -1.1941 H   0  0  0  0  0  0  0  0  0  0  0  0
    1.8236   -3.2021   -1.3775 H   0  0  0  0  0  0  0  0  0  0  0  0
    3.0291   -2.9383   -0.1320 H   0  0  0  0  0  0  0  0  0  0  0  0
    1.1712   -4.2413    0.6338 H   0  0  0  0  0  0  0  0  0  0  0  0
    1.2736   -2.8125    1.6414 H   0  0  0  0  0  0  0  0  0  0  0  0
   -0.9856   -3.8459    0.1913 H   0  0  0  0  0  0  0  0  0  0  0  0
   -5.7590   -3.8396   -1.6732 H   0  0  0  0  0  0  0  0  0  0  0  0
   -5.5707   -4.5112   -0.0436 H   0  0  0  0  0  0  0  0  0  0  0  0
   -6.7273   -3.1851   -0.2435 H   0  0  0  0  0  0  0  0  0  0  0  0
   -6.3682   -1.0990   -2.3138 H   0  0  0  0  0  0  0  0  0  0  0  0
   -8.4529    0.2132   -2.5575 H   0  0  0  0  0  0  0  0  0  0  0  0
   -5.9044    0.3267    1.6445 H   0  0  0  0  0  0  0  0  0  0  0  0
   -8.3649    3.7857    1.0866 H   0  0  0  0  0  0  0  0  0  0  0  0
   -9.4622    3.1842    2.3433 H   0  0  0  0  0  0  0  0  0  0  0  0
  -10.4308    3.4294    0.0050 H   0  0  0  0  0  0  0  0  0  0  0  0
  -10.8176    1.9672    0.9528 H   0  0  0  0  0  0  0  0  0  0  0  0
   -3.9178    1.3053   -0.0552 H   0  0  0  0  0  0  0  0  0  0  0  0
   -2.2124    0.8638   -0.3093 H   0  0  0  0  0  0  0  0  0  0  0  0
   -2.8335    0.7944    1.3460 H   0  0  0  0  0  0  0  0  0  0  0  0
    3.3722   -1.6966    1.8828 H   0  0  0  0  0  0  0  0  0  0  0  0
    4.2181   -1.3777    0.3593 H   0  0  0  0  0  0  0  0  0  0  0  0
    3.7035    0.8146    2.3877 H   0  0  0  0  0  0  0  0  0  0  0  0
    5.2396   -0.1926    2.2679 H   0  0  0  0  0  0  0  0  0  0  0  0
    6.0147    1.0515   -2.3956 H   0  0  0  0  0  0  0  0  0  0  0  0
    5.5981   -0.4261   -1.3447 H   0  0  0  0  0  0  0  0  0  0  0  0
    7.1536   -0.2830   -2.1641 H   0  0  0  0  0  0  0  0  0  0  0  0
  1  2  1  0
  2  3  2  0
  3  4  1  0
  4  5  2  0
  5  6  1  0
  6  7  1  0
  7  8  1  0
  8  9  1  0
  9 10  1  0
 10 11  1  0
 11 12  1  0
 12 13  1  0
 13 14  1  0
 14 15  1  0
 15 16  2  0
 15 17  1  0
 17 18  1  0
 18 19  2  0
 19 20  1  0
 19 21  1  0
 21 22  1  0
 22 23  2  0
 23 24  1  0
 24 25  2  0
 25 26  1  0
 26 27  2  0
 26 28  1  0
 28 29  1  0
 29 30  1  0
 30 31  1  0
 21 32  1  0
 32 33  1  0
 10 34  1  0
 34 35  1  0
  6 36  2  0
 36 37  1  0
 36  2  1  0
 35  7  1  0
 32 17  2  0
 27 22  1  0
 31 25  1  0
  1 38  1  0
  1 39  1  0
  1 40  1  0
  3 41  1  0
  4 42  1  0
  5 43  1  0
  8 44  1  0
  8 45  1  0
  9 46  1  0
  9 47  1  0
 11 48  1  0
 11 49  1  0
 12 50  1  0
 12 51  1  0
 13 52  1  0
 13 53  1  0
 14 54  1  0
 20 55  1  0
 20 56  1  0
 20 57  1  0
 23 58  1  0
 24 59  1  0
 27 60  1  0
 29 61  1  0
 29 62  1  0
 30 63  1  0
 30 64  1  0
 33 65  1  0
 33 66  1  0
 33 67  1  0
 34 68  1  0
 34 69  1  0
 35 70  1  0
 35 71  1  0
 37 72  1  0
 37 73  1  0
 37 74  1  0
M  END
$$$$
