@<TRIPOS>MOLECULE
*****
 58 61 0 0 0
SMALL
GASTEIGER

@<TRIPOS>ATOM
      1 C           1.6875   -0.9487    2.0978 C.3     1  UNL1       -0.0374
      2 C           2.6615   -0.2665    1.1745 C.ar    1  UNL1       -0.0165
      3 C           4.0096   -0.2995    1.4627 C.ar    1  UNL1       -0.0133
      4 C           4.9050    0.3228    0.6215 C.ar    1  UNL1        0.1388
      5 O           6.2712    0.3231    0.8595 O.3     1  UNL1       -0.4902
      6 C           6.7741   -0.3258    1.9871 C.3     1  UNL1        0.0925
      7 C           8.2845   -0.1575    1.9809 C.3     1  UNL1       -0.0068
      8 C           9.0409   -0.7057    0.8051 C.3     1  UNL1       -0.0468
      9 C           8.9089    0.7868    1.0367 C.3     1  UNL1       -0.0468
     10 C           4.4328    0.9631   -0.4870 C.ar    1  UNL1        0.0701
     11 N           3.1129    0.9749   -0.7363 N.ar    1  UNL1       -0.2465
     12 C           2.2006    0.3839    0.0518 C.ar    1  UNL1        0.1288
     13 C           0.7513    0.4249   -0.2667 C.2     1  UNL1        0.2668
     14 O          -0.0710   -0.1352    0.4876 O.2     1  UNL1       -0.2682
     15 N           0.2794    1.0904   -1.4158 N.am    1  UNL1       -0.2802
     16 C          -1.0670    1.2138   -1.8479 C.ar    1  UNL1        0.0342
     17 C          -1.2883    1.9229   -3.0341 C.ar    1  UNL1       -0.0377
     18 C          -2.5502    2.0947   -3.5308 C.ar    1  UNL1       -0.0243
     19 C          -3.6543    1.5595   -2.8563 C.ar    1  UNL1        0.1291
     20 F          -4.8739    1.7390   -3.4183 F       1  UNL1       -0.2051
     21 C          -3.4536    0.8606   -1.6885 C.ar    1  UNL1        0.0196
     22 C          -4.6437    0.3504   -0.9646 C.3     1  UNL1        0.1258
     23 C          -5.5067    1.4545   -0.4387 C.3     1  UNL1        0.1196
     24 F          -6.0007    2.3158   -1.3746 F       1  UNL1       -0.2462
     25 C          -4.2114   -0.4901    0.2420 C.3     1  UNL1        0.0251
     26 C          -5.3158   -1.3388    0.7774 C.3     1  UNL1        0.1998
     27 C          -5.6942   -1.0806    2.2019 C.3     1  UNL1        0.4266
     28 F          -6.1197    0.1739    2.4928 F       1  UNL1       -0.1669
     29 F          -6.7835   -1.9268    2.4735 F       1  UNL1       -0.1669
     30 F          -4.6379   -1.4154    3.0476 F       1  UNL1       -0.1669
     31 O          -6.4722   -1.3378   -0.0267 O.2     1  UNL1       -0.4534
     32 C          -6.2859   -1.3122   -1.4226 C.2     1  UNL1        0.2766
     33 N          -7.0356   -2.1405   -2.3089 N.pl3   1  UNL1       -0.3134
     34 N          -5.3988   -0.4943   -1.8641 N.2     1  UNL1       -0.2228
     35 C          -2.1637    0.7143   -1.2280 C.ar    1  UNL1       -0.0322
     36 H           1.0224   -0.2102    2.5490 H       1  UNL1        0.0278
     37 H           2.2598   -1.4226    2.9283 H       1  UNL1        0.0278
     38 H           1.1790   -1.7802    1.5747 H       1  UNL1        0.0278
     39 H           4.3369   -0.8176    2.3500 H       1  UNL1        0.0658
     40 H           6.4003    0.1172    2.9398 H       1  UNL1        0.0699
     41 H           6.5421   -1.4040    1.9262 H       1  UNL1        0.0699
     42 H           8.8153   -0.2815    2.9523 H       1  UNL1        0.0334
     43 H          10.0325   -1.1673    0.9467 H       1  UNL1        0.0269
     44 H           8.4450   -1.1732   -0.0069 H       1  UNL1        0.0269
     45 H           8.2204    1.3007    0.3413 H       1  UNL1        0.0269
     46 H           9.8303    1.3228    1.3286 H       1  UNL1        0.0269
     47 H           5.0920    1.4672   -1.1798 H       1  UNL1        0.0867
     48 H           1.0433    1.5421   -2.0067 H       1  UNL1        0.1552
     49 H          -0.4310    2.3315   -3.5473 H       1  UNL1        0.0637
     50 H          -2.7399    2.6484   -4.4596 H       1  UNL1        0.0647
     51 H          -6.3977    0.9825    0.0541 H       1  UNL1        0.0643
     52 H          -4.9259    2.0598    0.2999 H       1  UNL1        0.0643
     53 H          -3.8654    0.2035    1.0187 H       1  UNL1        0.0331
     54 H          -3.3583   -1.1437   -0.0443 H       1  UNL1        0.0331
     55 H          -4.9491   -2.4173    0.7407 H       1  UNL1        0.0826
     56 H          -6.6576   -3.0780   -2.5544 H       1  UNL1        0.1466
     57 H          -7.9434   -1.8546   -2.7234 H       1  UNL1        0.1466
     58 H          -2.0431    0.1836   -0.3183 H       1  UNL1        0.0640
@<TRIPOS>BOND
     1     1     2    1
     2     2     3   ar
     3     3     4   ar
     4     4     5    1
     5     5     6    1
     6     6     7    1
     7     7     8    1
     8     8     9    1
     9     4    10   ar
    10    10    11   ar
    11    11    12   ar
    12    12    13    1
    13    13    14    2
    14    13    15   am
    15    15    16    1
    16    16    17   ar
    17    17    18   ar
    18    18    19   ar
    19    19    20    1
    20    19    21   ar
    21    21    22    1
    22    22    23    1
    23    23    24    1
    24    22    25    1
    25    25    26    1
    26    26    27    1
    27    27    28    1
    28    27    29    1
    29    27    30    1
    30    26    31    1
    31    31    32    1
    32    32    33    1
    33    32    34    2
    34    21    35   ar
    35    12     2   ar
    36    35    16   ar
    37     9     7    1
    38    34    22    1
    39     1    36    1
    40     1    37    1
    41     1    38    1
    42     3    39    1
    43     6    40    1
    44     6    41    1
    45     7    42    1
    46     8    43    1
    47     8    44    1
    48     9    45    1
    49     9    46    1
    50    10    47    1
    51    15    48    1
    52    17    49    1
    53    18    50    1
    54    23    51    1
    55    23    52    1
    56    25    53    1
    57    25    54    1
    58    26    55    1
    59    33    56    1
    60    33    57    1
    61    35    58    1
