
     RDKit          3D

 58 61  0  0  0  0  0  0  0  0999 V2000
    1.6875   -0.9487    2.0978 C   0  0  0  0  0  0  0  0  0  0  0  0
    2.6615   -0.2665    1.1745 C   0  0  0  0  0  0  0  0  0  0  0  0
    4.0096   -0.2995    1.4627 C   0  0  0  0  0  0  0  0  0  0  0  0
    4.9050    0.3228    0.6215 C   0  0  0  0  0  0  0  0  0  0  0  0
    6.2712    0.3231    0.8595 O   0  0  0  0  0  0  0  0  0  0  0  0
    6.7741   -0.3258    1.9871 C   0  0  0  0  0  0  0  0  0  0  0  0
    8.2845   -0.1575    1.9809 C   0  0  0  0  0  0  0  0  0  0  0  0
    9.0409   -0.7057    0.8051 C   0  0  0  0  0  0  0  0  0  0  0  0
    8.9089    0.7868    1.0367 C   0  0  0  0  0  0  0  0  0  0  0  0
    4.4328    0.9631   -0.4870 C   0  0  0  0  0  0  0  0  0  0  0  0
    3.1129    0.9749   -0.7363 N   0  0  0  0  0  0  0  0  0  0  0  0
    2.2006    0.3839    0.0518 C   0  0  0  0  0  0  0  0  0  0  0  0
    0.7513    0.4249   -0.2667 C   0  0  0  0  0  0  0  0  0  0  0  0
   -0.0710   -0.1352    0.4876 O   0  0  0  0  0  0  0  0  0  0  0  0
    0.2794    1.0904   -1.4158 N   0  0  0  0  0  0  0  0  0  0  0  0
   -1.0670    1.2138   -1.8479 C   0  0  0  0  0  0  0  0  0  0  0  0
   -1.2883    1.9229   -3.0341 C   0  0  0  0  0  0  0  0  0  0  0  0
   -2.5502    2.0947   -3.5308 C   0  0  0  0  0  0  0  0  0  0  0  0
   -3.6543    1.5595   -2.8563 C   0  0  0  0  0  0  0  0  0  0  0  0
   -4.8739    1.7390   -3.4183 F   0  0  0  0  0  0  0  0  0  0  0  0
   -3.4536    0.8606   -1.6885 C   0  0  0  0  0  0  0  0  0  0  0  0
   -4.6437    0.3504   -0.9646 C   0  0  2  0  0  0  0  0  0  0  0  0
   -5.5067    1.4545   -0.4387 C   0  0  0  0  0  0  0  0  0  0  0  0
   -6.0007    2.3158   -1.3746 F   0  0  0  0  0  0  0  0  0  0  0  0
   -4.2114   -0.4901    0.2420 C   0  0  0  0  0  0  0  0  0  0  0  0
   -5.3158   -1.3388    0.7774 C   0  0  1  0  0  0  0  0  0  0  0  0
   -5.6942   -1.0806    2.2019 C   0  0  0  0  0  0  0  0  0  0  0  0
   -6.1197    0.1739    2.4928 F   0  0  0  0  0  0  0  0  0  0  0  0
   -6.7835   -1.9268    2.4735 F   0  0  0  0  0  0  0  0  0  0  0  0
   -4.6379   -1.4154    3.0476 F   0  0  0  0  0  0  0  0  0  0  0  0
   -6.4722   -1.3378   -0.0267 O   0  0  0  0  0  0  0  0  0  0  0  0
   -6.2859   -1.3122   -1.4226 C   0  0  0  0  0  0  0  0  0  0  0  0
   -7.0356   -2.1405   -2.3089 N   0  0  0  0  0  0  0  0  0  0  0  0
   -5.3988   -0.4943   -1.8641 N   0  0  0  0  0  0  0  0  0  0  0  0
   -2.1637    0.7143   -1.2280 C   0  0  0  0  0  0  0  0  0  0  0  0
    1.0224   -0.2102    2.5490 H   0  0  0  0  0  0  0  0  0  0  0  0
    2.2598   -1.4226    2.9283 H   0  0  0  0  0  0  0  0  0  0  0  0
    1.1790   -1.7802    1.5747 H   0  0  0  0  0  0  0  0  0  0  0  0
    4.3369   -0.8176    2.3500 H   0  0  0  0  0  0  0  0  0  0  0  0
    6.4003    0.1172    2.9398 H   0  0  0  0  0  0  0  0  0  0  0  0
    6.5421   -1.4040    1.9262 H   0  0  0  0  0  0  0  0  0  0  0  0
    8.8153   -0.2815    2.9523 H   0  0  0  0  0  0  0  0  0  0  0  0
   10.0325   -1.1673    0.9467 H   0  0  0  0  0  0  0  0  0  0  0  0
    8.4450   -1.1732   -0.0069 H   0  0  0  0  0  0  0  0  0  0  0  0
    8.2204    1.3007    0.3413 H   0  0  0  0  0  0  0  0  0  0  0  0
    9.8303    1.3228    1.3286 H   0  0  0  0  0  0  0  0  0  0  0  0
    5.0920    1.4672   -1.1798 H   0  0  0  0  0  0  0  0  0  0  0  0
    1.0433    1.5421   -2.0067 H   0  0  0  0  0  0  0  0  0  0  0  0
   -0.4310    2.3315   -3.5473 H   0  0  0  0  0  0  0  0  0  0  0  0
   -2.7399    2.6484   -4.4596 H   0  0  0  0  0  0  0  0  0  0  0  0
   -6.3977    0.9825    0.0541 H   0  0  0  0  0  0  0  0  0  0  0  0
   -4.9259    2.0598    0.2999 H   0  0  0  0  0  0  0  0  0  0  0  0
   -3.8654    0.2035    1.0187 H   0  0  0  0  0  0  0  0  0  0  0  0
   -3.3583   -1.1437   -0.0443 H   0  0  0  0  0  0  0  0  0  0  0  0
   -4.9491   -2.4173    0.7407 H   0  0  0  0  0  0  0  0  0  0  0  0
   -6.6576   -3.0780   -2.5544 H   0  0  0  0  0  0  0  0  0  0  0  0
   -7.9434   -1.8546   -2.7234 H   0  0  0  0  0  0  0  0  0  0  0  0
   -2.0431    0.1836   -0.3183 H   0  0  0  0  0  0  0  0  0  0  0  0
  1  2  1  0
  2  3  2  0
  3  4  1  0
  4  5  1  0
  5  6  1  0
  6  7  1  0
  7  8  1  0
  8  9  1  0
  4 10  2  0
 10 11  1  0
 11 12  2  0
 12 13  1  0
 13 14  2  0
 13 15  1  0
 15 16  1  0
 16 17  2  0
 17 18  1  0
 18 19  2  0
 19 20  1  0
 19 21  1  0
 21 22  1  0
 22 23  1  1
 23 24  1  0
 22 25  1  0
 25 26  1  0
 26 27  1  0
 27 28  1  0
 27 29  1  0
 27 30  1  0
 26 31  1  0
 31 32  1  0
 32 33  1  0
 32 34  2  0
 21 35  2  0
 12  2  1  0
 35 16  1  0
  9  7  1  0
 34 22  1  0
  1 36  1  0
  1 37  1  0
  1 38  1  0
  3 39  1  0
  6 40  1  0
  6 41  1  0
  7 42  1  0
  8 43  1  0
  8 44  1  0
  9 45  1  0
  9 46  1  0
 10 47  1  0
 15 48  1  0
 17 49  1  0
 18 50  1  0
 23 51  1  0
 23 52  1  0
 25 53  1  0
 25 54  1  0
 26 55  1  1
 33 56  1  0
 33 57  1  0
 35 58  1  0
M  END
$$$$
