
     RDKit          3D

 51 55  0  0  0  0  0  0  0  0999 V2000
   -2.2928   -2.2248   -2.4409 C   0  0  0  0  0  0  0  0  0  0  0  0
   -2.2078   -1.3734   -1.1903 C   0  0  1  0  0  0  0  0  0  0  0  0
   -2.1404   -0.0354   -1.5935 O   0  0  0  0  0  0  0  0  0  0  0  0
   -1.0722    0.7618   -1.2247 C   0  0  0  0  0  0  0  0  0  0  0  0
   -0.0608    0.3090   -0.4757 N   0  0  0  0  0  0  0  0  0  0  0  0
    0.9897    1.0657   -0.1040 C   0  0  0  0  0  0  0  0  0  0  0  0
    2.0494    0.4855    0.7159 C   0  0  0  0  0  0  0  0  0  0  0  0
    1.9140   -0.8462    1.0767 C   0  0  0  0  0  0  0  0  0  0  0  0
    2.9109   -1.4337    1.8618 C   0  0  0  0  0  0  0  0  0  0  0  0
    4.0090   -0.7235    2.2771 C   0  0  0  0  0  0  0  0  0  0  0  0
    5.0592   -1.3521    3.1074 C   0  0  0  0  0  0  0  0  0  0  0  0
    5.9669   -0.5677    3.9567 C   0  0  0  0  0  0  0  0  0  0  0  0
    6.4693   -1.0405    2.6317 C   0  0  0  0  0  0  0  0  0  0  0  0
    4.1076    0.5612    1.9099 N   0  0  0  0  0  0  0  0  0  0  0  0
    3.1556    1.1764    1.1422 C   0  0  0  0  0  0  0  0  0  0  0  0
    1.0637    2.3683   -0.4916 C   0  0  0  0  0  0  0  0  0  0  0  0
    0.0316    2.8831   -1.2734 C   0  0  0  0  0  0  0  0  0  0  0  0
   -0.1764    4.1008   -1.7999 N   0  0  0  0  0  0  0  0  0  0  0  0
   -1.3113    4.1115   -2.4756 N   0  0  0  0  0  0  0  0  0  0  0  0
   -1.8225    5.2811   -3.1656 C   0  0  0  0  0  0  0  0  0  0  0  0
   -1.8570    2.8741   -2.3891 C   0  0  0  0  0  0  0  0  0  0  0  0
   -1.0167    2.0791   -1.6281 C   0  0  0  0  0  0  0  0  0  0  0  0
   -3.4738   -1.6261   -0.3989 C   0  0  1  0  0  0  0  0  0  0  0  0
   -3.6064   -3.0853   -0.0187 C   0  0  0  0  0  0  0  0  0  0  0  0
   -4.6087   -3.0416    1.0240 N   0  0  0  0  0  0  0  0  0  0  0  0
   -4.4461   -1.7886    1.7058 C   0  0  0  0  0  0  0  0  0  0  0  0
   -5.0429   -1.4064    2.7308 O   0  0  0  0  0  0  0  0  0  0  0  0
   -3.4115   -0.9700    0.9779 C   0  0  0  0  0  0  0  0  0  0  0  0
   -1.3858   -2.0548   -3.0499 H   0  0  0  0  0  0  0  0  0  0  0  0
   -2.3074   -3.2949   -2.1570 H   0  0  0  0  0  0  0  0  0  0  0  0
   -3.2231   -1.9552   -2.9574 H   0  0  0  0  0  0  0  0  0  0  0  0
   -1.3325   -1.6344   -0.5854 H   0  0  0  0  0  0  0  0  0  0  0  0
    1.0594   -1.4199    0.7605 H   0  0  0  0  0  0  0  0  0  0  0  0
    2.7924   -2.4600    2.1315 H   0  0  0  0  0  0  0  0  0  0  0  0
    4.9051   -2.4171    3.3690 H   0  0  0  0  0  0  0  0  0  0  0  0
    5.8036    0.5181    4.1334 H   0  0  0  0  0  0  0  0  0  0  0  0
    6.4131   -1.0748    4.8355 H   0  0  0  0  0  0  0  0  0  0  0  0
    7.1943   -1.8743    2.5560 H   0  0  0  0  0  0  0  0  0  0  0  0
    6.6113   -0.2428    1.8738 H   0  0  0  0  0  0  0  0  0  0  0  0
    3.2934    2.2080    0.8823 H   0  0  0  0  0  0  0  0  0  0  0  0
    1.8793    3.0402   -0.2310 H   0  0  0  0  0  0  0  0  0  0  0  0
   -1.1595    5.5491   -4.0136 H   0  0  0  0  0  0  0  0  0  0  0  0
   -2.8592    5.0966   -3.5013 H   0  0  0  0  0  0  0  0  0  0  0  0
   -1.7607    6.1357   -2.4424 H   0  0  0  0  0  0  0  0  0  0  0  0
   -2.7782    2.5567   -2.8296 H   0  0  0  0  0  0  0  0  0  0  0  0
   -4.3686   -1.2627   -0.9056 H   0  0  0  0  0  0  0  0  0  0  0  0
   -3.8994   -3.7106   -0.8778 H   0  0  0  0  0  0  0  0  0  0  0  0
   -2.6614   -3.4194    0.4572 H   0  0  0  0  0  0  0  0  0  0  0  0
   -5.2914   -3.7852    1.2119 H   0  0  0  0  0  0  0  0  0  0  0  0
   -2.4210   -1.1248    1.4541 H   0  0  0  0  0  0  0  0  0  0  0  0
   -3.6832    0.0842    0.9604 H   0  0  0  0  0  0  0  0  0  0  0  0
  1  2  1  0
  2  3  1  0
  3  4  1  0
  4  5  2  0
  5  6  1  0
  6  7  1  0
  7  8  2  0
  8  9  1  0
  9 10  2  0
 10 11  1  0
 11 12  1  0
 12 13  1  0
 10 14  1  0
 14 15  2  0
  6 16  2  0
 16 17  1  0
 17 18  2  0
 18 19  1  0
 19 20  1  0
 19 21  1  0
 21 22  2  0
  2 23  1  0
 23 24  1  0
 24 25  1  0
 25 26  1  0
 26 27  2  0
 26 28  1  0
 22  4  1  0
 28 23  1  0
 15  7  1  0
 22 17  1  0
 13 11  1  0
  1 29  1  0
  1 30  1  0
  1 31  1  0
  2 32  1  1
  8 33  1  0
  9 34  1  0
 11 35  1  0
 12 36  1  0
 12 37  1  0
 13 38  1  0
 13 39  1  0
 15 40  1  0
 16 41  1  0
 20 42  1  0
 20 43  1  0
 20 44  1  0
 21 45  1  0
 23 46  1  6
 24 47  1  0
 24 48  1  0
 25 49  1  0
 28 50  1  0
 28 51  1  0
M  END
$$$$
