@<TRIPOS>MOLECULE
*****
 51 55 0 0 0
SMALL
GASTEIGER

@<TRIPOS>ATOM
      1 C          -2.2928   -2.2248   -2.4409 C.3     1  UNL1       -0.0274
      2 C          -2.2078   -1.3734   -1.1903 C.3     1  UNL1        0.1037
      3 O          -2.1404   -0.0354   -1.5935 O.3     1  UNL1       -0.4725
      4 C          -1.0722    0.7618   -1.2247 C.ar    1  UNL1        0.2265
      5 N          -0.0608    0.3090   -0.4757 N.ar    1  UNL1       -0.2122
      6 C           0.9897    1.0657   -0.1040 C.ar    1  UNL1        0.0783
      7 C           2.0494    0.4855    0.7159 C.ar    1  UNL1        0.0186
      8 C           1.9140   -0.8462    1.0767 C.ar    1  UNL1       -0.0494
      9 C           2.9109   -1.4337    1.8618 C.ar    1  UNL1       -0.0395
     10 C           4.0090   -0.7235    2.2771 C.ar    1  UNL1        0.0444
     11 C           5.0592   -1.3521    3.1074 C.3     1  UNL1        0.0014
     12 C           5.9669   -0.5677    3.9567 C.3     1  UNL1       -0.0442
     13 C           6.4693   -1.0405    2.6317 C.3     1  UNL1       -0.0442
     14 N           4.1076    0.5612    1.9099 N.ar    1  UNL1       -0.2590
     15 C           3.1556    1.1764    1.1422 C.ar    1  UNL1        0.0370
     16 C           1.0637    2.3683   -0.4916 C.ar    1  UNL1       -0.0077
     17 C           0.0316    2.8831   -1.2734 C.ar    1  UNL1        0.0999
     18 N          -0.1764    4.1008   -1.7999 N.ar    1  UNL1       -0.1712
     19 N          -1.3113    4.1115   -2.4756 N.ar    1  UNL1       -0.2732
     20 C          -1.8225    5.2811   -3.1656 C.3     1  UNL1        0.0302
     21 C          -1.8570    2.8741   -2.3891 C.ar    1  UNL1        0.0380
     22 C          -1.0167    2.0791   -1.6281 C.ar    1  UNL1        0.0812
     23 C          -3.4738   -1.6261   -0.3989 C.3     1  UNL1        0.0196
     24 C          -3.6064   -3.0853   -0.0187 C.3     1  UNL1        0.0182
     25 N          -4.6087   -3.0416    1.0240 N.am    1  UNL1       -0.3149
     26 C          -4.4461   -1.7886    1.7058 C.2     1  UNL1        0.2135
     27 O          -5.0429   -1.4064    2.7308 O.2     1  UNL1       -0.2758
     28 C          -3.4115   -0.9700    0.9779 C.3     1  UNL1        0.0315
     29 H          -1.3858   -2.0548   -3.0499 H       1  UNL1        0.0265
     30 H          -2.3074   -3.2949   -2.1570 H       1  UNL1        0.0265
     31 H          -3.2231   -1.9552   -2.9574 H       1  UNL1        0.0265
     32 H          -1.3325   -1.6344   -0.5854 H       1  UNL1        0.0734
     33 H           1.0594   -1.4199    0.7605 H       1  UNL1        0.0625
     34 H           2.7924   -2.4600    2.1315 H       1  UNL1        0.0636
     35 H           4.9051   -2.4171    3.3690 H       1  UNL1        0.0364
     36 H           5.8036    0.5181    4.1334 H       1  UNL1        0.0272
     37 H           6.4131   -1.0748    4.8355 H       1  UNL1        0.0272
     38 H           7.1943   -1.8743    2.5560 H       1  UNL1        0.0272
     39 H           6.6113   -0.2428    1.8738 H       1  UNL1        0.0272
     40 H           3.2934    2.2080    0.8823 H       1  UNL1        0.0836
     41 H           1.8793    3.0402   -0.2310 H       1  UNL1        0.0661
     42 H          -1.1595    5.5491   -4.0136 H       1  UNL1        0.0473
     43 H          -2.8592    5.0966   -3.5013 H       1  UNL1        0.0473
     44 H          -1.7607    6.1357   -2.4424 H       1  UNL1        0.0473
     45 H          -2.7782    2.5567   -2.8296 H       1  UNL1        0.0834
     46 H          -4.3686   -1.2627   -0.9056 H       1  UNL1        0.0356
     47 H          -3.8994   -3.7106   -0.8778 H       1  UNL1        0.0466
     48 H          -2.6614   -3.4194    0.4572 H       1  UNL1        0.0466
     49 H          -5.2914   -3.7852    1.2119 H       1  UNL1        0.1487
     50 H          -2.4210   -1.1248    1.4541 H       1  UNL1        0.0363
     51 H          -3.6832    0.0842    0.9604 H       1  UNL1        0.0363
@<TRIPOS>BOND
     1     1     2    1
     2     2     3    1
     3     3     4    1
     4     4     5   ar
     5     5     6   ar
     6     6     7    1
     7     7     8   ar
     8     8     9   ar
     9     9    10   ar
    10    10    11    1
    11    11    12    1
    12    12    13    1
    13    10    14   ar
    14    14    15   ar
    15     6    16   ar
    16    16    17   ar
    17    17    18   ar
    18    18    19   ar
    19    19    20    1
    20    19    21   ar
    21    21    22   ar
    22     2    23    1
    23    23    24    1
    24    24    25    1
    25    25    26   am
    26    26    27    2
    27    26    28    1
    28    22     4   ar
    29    28    23    1
    30    15     7   ar
    31    22    17   ar
    32    13    11    1
    33     1    29    1
    34     1    30    1
    35     1    31    1
    36     2    32    1
    37     8    33    1
    38     9    34    1
    39    11    35    1
    40    12    36    1
    41    12    37    1
    42    13    38    1
    43    13    39    1
    44    15    40    1
    45    16    41    1
    46    20    42    1
    47    20    43    1
    48    20    44    1
    49    21    45    1
    50    23    46    1
    51    24    47    1
    52    24    48    1
    53    25    49    1
    54    28    50    1
    55    28    51    1
