@<TRIPOS>MOLECULE
*****
 30 32 0 0 0
SMALL
GASTEIGER

@<TRIPOS>ATOM
      1 O          -0.4311    0.7509   -1.5889 O.2     1  UNL1       -0.2863
      2 C          -0.5513    0.1821   -0.4731 C.ar    1  UNL1        0.2037
      3 C           0.5107   -0.1036    0.3600 C.ar    1  UNL1        0.0644
      4 C           1.8423    0.2758   -0.0800 C.ar    1  UNL1       -0.0110
      5 C           2.2572    0.0261   -1.3734 C.ar    1  UNL1       -0.0504
      6 C           3.5199    0.3842   -1.7958 C.ar    1  UNL1       -0.0196
      7 C           4.4020    1.0012   -0.9379 C.ar    1  UNL1        0.1169
      8 O           5.6766    1.3648   -1.3575 O.3     1  UNL1       -0.5068
      9 C           4.0100    1.2622    0.3630 C.ar    1  UNL1       -0.0196
     10 C           2.7296    0.8910    0.7659 C.ar    1  UNL1       -0.0504
     11 C           0.3552   -0.7248    1.5724 C.ar    1  UNL1        0.1038
     12 O          -0.8547   -1.0567    1.9464 O.2     1  UNL1       -0.4618
     13 C          -1.9304   -0.8147    1.1978 C.ar    1  UNL1        0.1454
     14 C          -3.1865   -1.1933    1.6544 C.ar    1  UNL1        0.0231
     15 C          -4.3114   -0.9525    0.8960 C.ar    1  UNL1        0.1239
     16 O          -5.5607   -1.3468    1.3860 O.3     1  UNL1       -0.5065
     17 C          -4.2124   -0.3306   -0.3315 C.ar    1  UNL1        0.0223
     18 C          -2.9498    0.0412   -0.7729 C.ar    1  UNL1        0.1347
     19 O          -2.8387    0.6582   -1.9877 O.3     1  UNL1       -0.5058
     20 C          -1.8156   -0.1923   -0.0270 C.ar    1  UNL1        0.1060
     21 H           1.6190   -0.4571   -2.1100 H       1  UNL1        0.0625
     22 H           3.8594    0.1966   -2.8019 H       1  UNL1        0.0654
     23 H           6.4356    1.3267   -0.7018 H       1  UNL1        0.2921
     24 H           4.6957    1.7509    1.0585 H       1  UNL1        0.0654
     25 H           2.4823    1.1221    1.7954 H       1  UNL1        0.0625
     26 H           1.2365   -0.9154    2.1704 H       1  UNL1        0.1037
     27 H          -3.2138   -1.6747    2.6166 H       1  UNL1        0.0691
     28 H          -6.2776   -1.5759    0.7163 H       1  UNL1        0.2921
     29 H          -5.0995   -0.1424   -0.9261 H       1  UNL1        0.0691
     30 H          -2.3987    0.2466   -2.8057 H       1  UNL1        0.2922
@<TRIPOS>BOND
     1     1     2    2
     2     2     3   ar
     3     3     4    1
     4     4     5   ar
     5     5     6   ar
     6     6     7   ar
     7     7     8    1
     8     7     9   ar
     9     9    10   ar
    10     3    11   ar
    11    11    12   ar
    12    12    13   ar
    13    13    14   ar
    14    14    15   ar
    15    15    16    1
    16    15    17   ar
    17    17    18   ar
    18    18    19    1
    19    18    20   ar
    20    20     2   ar
    21    10     4   ar
    22    20    13   ar
    23     5    21    1
    24     6    22    1
    25     8    23    1
    26     9    24    1
    27    10    25    1
    28    11    26    1
    29    14    27    1
    30    16    28    1
    31    17    29    1
    32    19    30    1
