
     RDKit          3D

 30 32  0  0  0  0  0  0  0  0999 V2000
   -0.4311    0.7509   -1.5889 O   0  0  0  0  0  0  0  0  0  0  0  0
   -0.5513    0.1821   -0.4731 C   0  0  0  0  0  0  0  0  0  0  0  0
    0.5107   -0.1036    0.3600 C   0  0  0  0  0  0  0  0  0  0  0  0
    1.8423    0.2758   -0.0800 C   0  0  0  0  0  0  0  0  0  0  0  0
    2.2572    0.0261   -1.3734 C   0  0  0  0  0  0  0  0  0  0  0  0
    3.5199    0.3842   -1.7958 C   0  0  0  0  0  0  0  0  0  0  0  0
    4.4020    1.0012   -0.9379 C   0  0  0  0  0  0  0  0  0  0  0  0
    5.6766    1.3648   -1.3575 O   0  0  0  0  0  0  0  0  0  0  0  0
    4.0100    1.2622    0.3630 C   0  0  0  0  0  0  0  0  0  0  0  0
    2.7296    0.8910    0.7659 C   0  0  0  0  0  0  0  0  0  0  0  0
    0.3552   -0.7248    1.5724 C   0  0  0  0  0  0  0  0  0  0  0  0
   -0.8547   -1.0567    1.9464 O   0  0  0  0  0  0  0  0  0  0  0  0
   -1.9304   -0.8147    1.1978 C   0  0  0  0  0  0  0  0  0  0  0  0
   -3.1865   -1.1933    1.6544 C   0  0  0  0  0  0  0  0  0  0  0  0
   -4.3114   -0.9525    0.8960 C   0  0  0  0  0  0  0  0  0  0  0  0
   -5.5607   -1.3468    1.3860 O   0  0  0  0  0  0  0  0  0  0  0  0
   -4.2124   -0.3306   -0.3315 C   0  0  0  0  0  0  0  0  0  0  0  0
   -2.9498    0.0412   -0.7729 C   0  0  0  0  0  0  0  0  0  0  0  0
   -2.8387    0.6582   -1.9877 O   0  0  0  0  0  0  0  0  0  0  0  0
   -1.8156   -0.1923   -0.0270 C   0  0  0  0  0  0  0  0  0  0  0  0
    1.6190   -0.4571   -2.1100 H   0  0  0  0  0  0  0  0  0  0  0  0
    3.8594    0.1966   -2.8019 H   0  0  0  0  0  0  0  0  0  0  0  0
    6.4356    1.3267   -0.7018 H   0  0  0  0  0  0  0  0  0  0  0  0
    4.6957    1.7509    1.0585 H   0  0  0  0  0  0  0  0  0  0  0  0
    2.4823    1.1221    1.7954 H   0  0  0  0  0  0  0  0  0  0  0  0
    1.2365   -0.9154    2.1704 H   0  0  0  0  0  0  0  0  0  0  0  0
   -3.2138   -1.6747    2.6166 H   0  0  0  0  0  0  0  0  0  0  0  0
   -6.2776   -1.5759    0.7163 H   0  0  0  0  0  0  0  0  0  0  0  0
   -5.0995   -0.1424   -0.9261 H   0  0  0  0  0  0  0  0  0  0  0  0
   -2.3987    0.2466   -2.8057 H   0  0  0  0  0  0  0  0  0  0  0  0
  1  2  2  0
  2  3  1  0
  3  4  1  0
  4  5  2  0
  5  6  1  0
  6  7  2  0
  7  8  1  0
  7  9  1  0
  9 10  2  0
  3 11  2  0
 11 12  1  0
 12 13  1  0
 13 14  2  0
 14 15  1  0
 15 16  1  0
 15 17  2  0
 17 18  1  0
 18 19  1  0
 18 20  2  0
 20  2  1  0
 10  4  1  0
 20 13  1  0
  5 21  1  0
  6 22  1  0
  8 23  1  0
  9 24  1  0
 10 25  1  0
 11 26  1  0
 14 27  1  0
 16 28  1  0
 17 29  1  0
 19 30  1  0
M  END
$$$$
