@<TRIPOS>MOLECULE
*****
 69 72 0 0 0
SMALL
GASTEIGER

@<TRIPOS>ATOM
      1 C          -0.4037    2.8229   -0.8087 C.3     1  UNL1       -0.0421
      2 C          -0.0889    1.5348   -1.4887 C.3     1  UNL1        0.0515
      3 C           1.3071    1.0791   -1.2500 C.ar    1  UNL1       -0.0271
      4 C           1.7189   -0.1668   -1.6703 C.ar    1  UNL1       -0.0562
      5 C           3.0073   -0.6202   -1.4643 C.ar    1  UNL1       -0.0537
      6 C           3.9466    0.1619   -0.8227 C.ar    1  UNL1       -0.0165
      7 C           5.3108   -0.3227   -0.6064 C.ar    1  UNL1       -0.0015
      8 C           5.8600   -1.1770   -1.5402 C.ar    1  UNL1       -0.0475
      9 C           7.1385   -1.6782   -1.4058 C.ar    1  UNL1        0.0036
     10 C           7.8624   -1.2950   -0.2949 C.ar    1  UNL1        0.2516
     11 O           9.0395   -1.7461   -0.1551 O.2     1  UNL1       -0.2677
     12 N           7.3342   -0.4534    0.6340 N.ar    1  UNL1       -0.3060
     13 C           8.1659   -0.1065    1.7690 C.3     1  UNL1        0.1212
     14 C           7.8861   -1.1426    2.8402 C.3     1  UNL1        0.4074
     15 F           8.1847   -2.4110    2.4167 F       1  UNL1       -0.1687
     16 F           6.5518   -1.1328    3.1920 F       1  UNL1       -0.1687
     17 F           8.6092   -0.8160    3.9776 F       1  UNL1       -0.1687
     18 C           6.0849    0.0199    0.4773 C.ar    1  UNL1        0.0159
     19 C           3.5384    1.4095   -0.4007 C.ar    1  UNL1       -0.0537
     20 C           2.2356    1.8692   -0.6085 C.ar    1  UNL1       -0.0562
     21 N          -0.9847    0.4594   -1.1435 N.am    1  UNL1       -0.2605
     22 C          -1.8114   -0.2343   -2.1070 C.3     1  UNL1        0.0224
     23 C          -3.2433   -0.1307   -1.6481 C.3     1  UNL1        0.0076
     24 C          -3.4273   -0.4407   -0.1690 C.3     1  UNL1        0.1440
     25 C          -4.4652   -1.5238   -0.0698 C.3     1  UNL1        0.0199
     26 C          -4.7839   -2.0282    1.2859 C.3     1  UNL1        0.0645
     27 C          -5.3175   -1.0773    2.2880 C.3     1  UNL1       -0.0362
     28 C          -5.8265   -3.1385    1.1110 C.3     1  UNL1       -0.0362
     29 O          -3.6646   -2.6493    1.8845 O.3     1  UNL1       -0.3890
     30 C          -4.0072    0.8146    0.3989 C.ar    1  UNL1       -0.0040
     31 C          -5.0793    1.3667   -0.2694 C.ar    1  UNL1       -0.0548
     32 C          -5.6676    2.5321    0.1765 C.ar    1  UNL1       -0.0614
     33 C          -5.1642    3.1277    1.2958 C.ar    1  UNL1       -0.0617
     34 C          -4.0902    2.6170    2.0053 C.ar    1  UNL1       -0.0614
     35 C          -3.5384    1.4504    1.5178 C.ar    1  UNL1       -0.0548
     36 O          -2.2255   -0.7865    0.4824 O.3     1  UNL1       -0.4387
     37 C          -1.1005    0.0150    0.2018 C.2     1  UNL1        0.4042
     38 O          -0.2415    0.3393    1.0338 O.2     1  UNL1       -0.2262
     39 H           0.0418    3.6763   -1.3933 H       1  UNL1        0.0251
     40 H          -0.1657    2.8500    0.2558 H       1  UNL1        0.0251
     41 H          -1.5098    2.9815   -0.8993 H       1  UNL1        0.0251
     42 H          -0.1811    1.6964   -2.6028 H       1  UNL1        0.0549
     43 H           0.9920   -0.8095   -2.1828 H       1  UNL1        0.0621
     44 H           3.3345   -1.6054   -1.7965 H       1  UNL1        0.0624
     45 H           5.3051   -1.4872   -2.4169 H       1  UNL1        0.0626
     46 H           7.5320   -2.3463   -2.1608 H       1  UNL1        0.0672
     47 H           7.9723    0.9106    2.1061 H       1  UNL1        0.0582
     48 H           9.2227   -0.1586    1.4581 H       1  UNL1        0.0582
     49 H           5.6617    0.6855    1.2087 H       1  UNL1        0.0816
     50 H           4.2727    2.0387    0.1087 H       1  UNL1        0.0624
     51 H           1.9639    2.8466   -0.2630 H       1  UNL1        0.0621
     52 H          -1.7709    0.2796   -3.1025 H       1  UNL1        0.0467
     53 H          -1.4968   -1.2926   -2.2226 H       1  UNL1        0.0467
     54 H          -3.9178   -0.7789   -2.2859 H       1  UNL1        0.0322
     55 H          -3.5694    0.8985   -1.8900 H       1  UNL1        0.0322
     56 H          -5.4169   -1.0517   -0.4728 H       1  UNL1        0.0335
     57 H          -4.2554   -2.3648   -0.7758 H       1  UNL1        0.0335
     58 H          -4.5268   -0.7507    3.0288 H       1  UNL1        0.0257
     59 H          -6.0528   -1.6188    2.9801 H       1  UNL1        0.0257
     60 H          -5.9022   -0.2589    1.8692 H       1  UNL1        0.0257
     61 H          -6.2585   -3.1170    0.0957 H       1  UNL1        0.0257
     62 H          -6.6701   -2.9750    1.8084 H       1  UNL1        0.0257
     63 H          -5.4132   -4.1372    1.3409 H       1  UNL1        0.0257
     64 H          -3.7772   -2.6721    2.8647 H       1  UNL1        0.2101
     65 H          -5.4905    0.8979   -1.1673 H       1  UNL1        0.0622
     66 H          -6.5095    2.9268   -0.3854 H       1  UNL1        0.0618
     67 H          -5.6404    4.0436    1.6309 H       1  UNL1        0.0618
     68 H          -3.7278    3.1221    2.8833 H       1  UNL1        0.0618
     69 H          -2.6969    1.0286    2.0546 H       1  UNL1        0.0622
@<TRIPOS>BOND
     1     1     2    1
     2     2     3    1
     3     3     4   ar
     4     4     5   ar
     5     5     6   ar
     6     6     7    1
     7     7     8   ar
     8     8     9   ar
     9     9    10   ar
    10    10    11    2
    11    10    12   ar
    12    12    13    1
    13    13    14    1
    14    14    15    1
    15    14    16    1
    16    14    17    1
    17    12    18   ar
    18     6    19   ar
    19    19    20   ar
    20     2    21    1
    21    21    22    1
    22    22    23    1
    23    23    24    1
    24    24    25    1
    25    25    26    1
    26    26    27    1
    27    26    28    1
    28    26    29    1
    29    24    30    1
    30    30    31   ar
    31    31    32   ar
    32    32    33   ar
    33    33    34   ar
    34    34    35   ar
    35    24    36    1
    36    36    37    1
    37    37    38    2
    38    20     3   ar
    39    37    21   am
    40    18     7   ar
    41    35    30   ar
    42     1    39    1
    43     1    40    1
    44     1    41    1
    45     2    42    1
    46     4    43    1
    47     5    44    1
    48     8    45    1
    49     9    46    1
    50    13    47    1
    51    13    48    1
    52    18    49    1
    53    19    50    1
    54    20    51    1
    55    22    52    1
    56    22    53    1
    57    23    54    1
    58    23    55    1
    59    25    56    1
    60    25    57    1
    61    27    58    1
    62    27    59    1
    63    27    60    1
    64    28    61    1
    65    28    62    1
    66    28    63    1
    67    29    64    1
    68    31    65    1
    69    32    66    1
    70    33    67    1
    71    34    68    1
    72    35    69    1
