
     RDKit          3D

 69 72  0  0  0  0  0  0  0  0999 V2000
   -0.4037    2.8229   -0.8087 C   0  0  0  0  0  0  0  0  0  0  0  0
   -0.0889    1.5348   -1.4887 C   0  0  1  0  0  0  0  0  0  0  0  0
    1.3071    1.0791   -1.2500 C   0  0  0  0  0  0  0  0  0  0  0  0
    1.7189   -0.1668   -1.6703 C   0  0  0  0  0  0  0  0  0  0  0  0
    3.0073   -0.6202   -1.4643 C   0  0  0  0  0  0  0  0  0  0  0  0
    3.9466    0.1619   -0.8227 C   0  0  0  0  0  0  0  0  0  0  0  0
    5.3108   -0.3227   -0.6064 C   0  0  0  0  0  0  0  0  0  0  0  0
    5.8600   -1.1770   -1.5402 C   0  0  0  0  0  0  0  0  0  0  0  0
    7.1385   -1.6782   -1.4058 C   0  0  0  0  0  0  0  0  0  0  0  0
    7.8624   -1.2950   -0.2949 C   0  0  0  0  0  0  0  0  0  0  0  0
    9.0395   -1.7461   -0.1551 O   0  0  0  0  0  0  0  0  0  0  0  0
    7.3342   -0.4534    0.6340 N   0  0  0  0  0  0  0  0  0  0  0  0
    8.1659   -0.1065    1.7690 C   0  0  0  0  0  0  0  0  0  0  0  0
    7.8861   -1.1426    2.8402 C   0  0  0  0  0  0  0  0  0  0  0  0
    8.1847   -2.4110    2.4167 F   0  0  0  0  0  0  0  0  0  0  0  0
    6.5518   -1.1328    3.1920 F   0  0  0  0  0  0  0  0  0  0  0  0
    8.6092   -0.8160    3.9776 F   0  0  0  0  0  0  0  0  0  0  0  0
    6.0849    0.0199    0.4773 C   0  0  0  0  0  0  0  0  0  0  0  0
    3.5384    1.4095   -0.4007 C   0  0  0  0  0  0  0  0  0  0  0  0
    2.2356    1.8692   -0.6085 C   0  0  0  0  0  0  0  0  0  0  0  0
   -0.9847    0.4594   -1.1435 N   0  0  0  0  0  0  0  0  0  0  0  0
   -1.8114   -0.2343   -2.1070 C   0  0  0  0  0  0  0  0  0  0  0  0
   -3.2433   -0.1307   -1.6481 C   0  0  0  0  0  0  0  0  0  0  0  0
   -3.4273   -0.4407   -0.1690 C   0  0  2  0  0  0  0  0  0  0  0  0
   -4.4652   -1.5238   -0.0698 C   0  0  0  0  0  0  0  0  0  0  0  0
   -4.7839   -2.0282    1.2859 C   0  0  0  0  0  0  0  0  0  0  0  0
   -5.3175   -1.0773    2.2880 C   0  0  0  0  0  0  0  0  0  0  0  0
   -5.8265   -3.1385    1.1110 C   0  0  0  0  0  0  0  0  0  0  0  0
   -3.6646   -2.6493    1.8845 O   0  0  0  0  0  0  0  0  0  0  0  0
   -4.0072    0.8146    0.3989 C   0  0  0  0  0  0  0  0  0  0  0  0
   -5.0793    1.3667   -0.2694 C   0  0  0  0  0  0  0  0  0  0  0  0
   -5.6676    2.5321    0.1765 C   0  0  0  0  0  0  0  0  0  0  0  0
   -5.1642    3.1277    1.2958 C   0  0  0  0  0  0  0  0  0  0  0  0
   -4.0902    2.6170    2.0053 C   0  0  0  0  0  0  0  0  0  0  0  0
   -3.5384    1.4504    1.5178 C   0  0  0  0  0  0  0  0  0  0  0  0
   -2.2255   -0.7865    0.4824 O   0  0  0  0  0  0  0  0  0  0  0  0
   -1.1005    0.0150    0.2018 C   0  0  0  0  0  0  0  0  0  0  0  0
   -0.2415    0.3393    1.0338 O   0  0  0  0  0  0  0  0  0  0  0  0
    0.0418    3.6763   -1.3933 H   0  0  0  0  0  0  0  0  0  0  0  0
   -0.1657    2.8500    0.2558 H   0  0  0  0  0  0  0  0  0  0  0  0
   -1.5098    2.9815   -0.8993 H   0  0  0  0  0  0  0  0  0  0  0  0
   -0.1811    1.6964   -2.6028 H   0  0  0  0  0  0  0  0  0  0  0  0
    0.9920   -0.8095   -2.1828 H   0  0  0  0  0  0  0  0  0  0  0  0
    3.3345   -1.6054   -1.7965 H   0  0  0  0  0  0  0  0  0  0  0  0
    5.3051   -1.4872   -2.4169 H   0  0  0  0  0  0  0  0  0  0  0  0
    7.5320   -2.3463   -2.1608 H   0  0  0  0  0  0  0  0  0  0  0  0
    7.9723    0.9106    2.1061 H   0  0  0  0  0  0  0  0  0  0  0  0
    9.2227   -0.1586    1.4581 H   0  0  0  0  0  0  0  0  0  0  0  0
    5.6617    0.6855    1.2087 H   0  0  0  0  0  0  0  0  0  0  0  0
    4.2727    2.0387    0.1087 H   0  0  0  0  0  0  0  0  0  0  0  0
    1.9639    2.8466   -0.2630 H   0  0  0  0  0  0  0  0  0  0  0  0
   -1.7709    0.2796   -3.1025 H   0  0  0  0  0  0  0  0  0  0  0  0
   -1.4968   -1.2926   -2.2226 H   0  0  0  0  0  0  0  0  0  0  0  0
   -3.9178   -0.7789   -2.2859 H   0  0  0  0  0  0  0  0  0  0  0  0
   -3.5694    0.8985   -1.8900 H   0  0  0  0  0  0  0  0  0  0  0  0
   -5.4169   -1.0517   -0.4728 H   0  0  0  0  0  0  0  0  0  0  0  0
   -4.2554   -2.3648   -0.7758 H   0  0  0  0  0  0  0  0  0  0  0  0
   -4.5268   -0.7507    3.0288 H   0  0  0  0  0  0  0  0  0  0  0  0
   -6.0528   -1.6188    2.9801 H   0  0  0  0  0  0  0  0  0  0  0  0
   -5.9022   -0.2589    1.8692 H   0  0  0  0  0  0  0  0  0  0  0  0
   -6.2585   -3.1170    0.0957 H   0  0  0  0  0  0  0  0  0  0  0  0
   -6.6701   -2.9750    1.8084 H   0  0  0  0  0  0  0  0  0  0  0  0
   -5.4132   -4.1372    1.3409 H   0  0  0  0  0  0  0  0  0  0  0  0
   -3.7772   -2.6721    2.8647 H   0  0  0  0  0  0  0  0  0  0  0  0
   -5.4905    0.8979   -1.1673 H   0  0  0  0  0  0  0  0  0  0  0  0
   -6.5095    2.9268   -0.3854 H   0  0  0  0  0  0  0  0  0  0  0  0
   -5.6404    4.0436    1.6309 H   0  0  0  0  0  0  0  0  0  0  0  0
   -3.7278    3.1221    2.8833 H   0  0  0  0  0  0  0  0  0  0  0  0
   -2.6969    1.0286    2.0546 H   0  0  0  0  0  0  0  0  0  0  0  0
  1  2  1  0
  2  3  1  0
  3  4  2  0
  4  5  1  0
  5  6  2  0
  6  7  1  0
  7  8  1  0
  8  9  2  0
  9 10  1  0
 10 11  2  0
 10 12  1  0
 12 13  1  0
 13 14  1  0
 14 15  1  0
 14 16  1  0
 14 17  1  0
 12 18  1  0
  6 19  1  0
 19 20  2  0
  2 21  1  0
 21 22  1  0
 22 23  1  0
 23 24  1  0
 24 25  1  6
 25 26  1  0
 26 27  1  0
 26 28  1  0
 26 29  1  0
 24 30  1  0
 30 31  2  0
 31 32  1  0
 32 33  2  0
 33 34  1  0
 34 35  2  0
 24 36  1  0
 36 37  1  0
 37 38  2  0
 20  3  1  0
 37 21  1  0
 18  7  2  0
 35 30  1  0
  1 39  1  0
  1 40  1  0
  1 41  1  0
  2 42  1  6
  4 43  1  0
  5 44  1  0
  8 45  1  0
  9 46  1  0
 13 47  1  0
 13 48  1  0
 18 49  1  0
 19 50  1  0
 20 51  1  0
 22 52  1  0
 22 53  1  0
 23 54  1  0
 23 55  1  0
 25 56  1  0
 25 57  1  0
 27 58  1  0
 27 59  1  0
 27 60  1  0
 28 61  1  0
 28 62  1  0
 28 63  1  0
 29 64  1  0
 31 65  1  0
 32 66  1  0
 33 67  1  0
 34 68  1  0
 35 69  1  0
M  END
$$$$
