@<TRIPOS>MOLECULE
*****
 25 27 0 0 0
SMALL
GASTEIGER

@<TRIPOS>ATOM
      1 N           4.3161    0.5217    0.4661 N.pl3   1  UNL1       -0.3289
      2 C           2.9519    0.2587    0.1596 C.ar    1  UNL1        0.1948
      3 N           2.0164    0.6467    1.0765 N.ar    1  UNL1       -0.1994
      4 C           0.7195    0.4151    0.8216 C.ar    1  UNL1        0.1494
      5 C           0.3741   -0.2096   -0.3625 C.ar    1  UNL1        0.1444
      6 N          -1.0026   -0.4491   -0.6141 N.am    1  UNL1       -0.2216
      7 C          -2.0037    0.4368   -0.0276 C.3     1  UNL1        0.0840
      8 C          -3.2950   -0.2225   -0.3587 C.3     1  UNL1        0.1145
      9 O          -2.9721   -0.9906   -1.5106 O.3     1  UNL1       -0.4481
     10 C          -1.6479   -1.4544   -1.3782 C.2     1  UNL1        0.4079
     11 O          -1.1534   -2.5173   -1.8339 O.2     1  UNL1       -0.2259
     12 C          -1.7623    0.6455    1.4243 C.3     1  UNL1        0.0328
     13 N          -0.3455    0.7693    1.6902 N.pl3   1  UNL1       -0.3255
     14 C           1.2880   -0.6160   -1.3130 C.ar    1  UNL1        0.2762
     15 O           0.9934   -1.1843   -2.3949 O.2     1  UNL1       -0.2657
     16 N           2.5917   -0.3513   -0.9934 N.ar    1  UNL1       -0.2937
     17 H           4.5670    1.3893    0.9902 H       1  UNL1        0.1451
     18 H           5.1688   -0.0391    0.2437 H       1  UNL1        0.1451
     19 H          -1.9084    1.3858   -0.5924 H       1  UNL1        0.0555
     20 H          -4.0644    0.5581   -0.6033 H       1  UNL1        0.0717
     21 H          -3.6502   -0.9384    0.4007 H       1  UNL1        0.0717
     22 H          -2.2516    1.5996    1.7380 H       1  UNL1        0.0481
     23 H          -2.1943   -0.1802    2.0224 H       1  UNL1        0.0481
     24 H          -0.0674    1.1647    2.6291 H       1  UNL1        0.1476
     25 H           3.3320   -0.6387   -1.6800 H       1  UNL1        0.1716
@<TRIPOS>BOND
     1     1     2    1
     2     2     3   ar
     3     3     4   ar
     4     4     5   ar
     5     5     6    1
     6     6     7    1
     7     7     8    1
     8     8     9    1
     9     9    10    1
    10    10    11    2
    11     7    12    1
    12    12    13    1
    13     5    14   ar
    14    14    15    2
    15    14    16   ar
    16    16     2   ar
    17    13     4    1
    18    10     6   am
    19     1    17    1
    20     1    18    1
    21     7    19    1
    22     8    20    1
    23     8    21    1
    24    12    22    1
    25    12    23    1
    26    13    24    1
    27    16    25    1
