
     RDKit          3D

 18 18  0  0  0  0  0  0  0  0999 V2000
    3.2072   -0.7207    0.9810 O   0  0  0  0  0  0  0  0  0  0  0  0
    2.5767   -0.0999    0.0943 C   0  0  0  0  0  0  0  0  0  0  0  0
    3.3217    0.5527   -0.8739 O   0  0  0  0  0  0  0  0  0  0  0  0
    1.1229   -0.0502    0.0595 C   0  0  0  0  0  0  0  0  0  0  0  0
    0.3745   -0.6947    1.0160 C   0  0  0  0  0  0  0  0  0  0  0  0
   -1.0089   -0.6752    1.0232 C   0  0  0  0  0  0  0  0  0  0  0  0
   -1.7660   -1.3263    1.9896 O   0  0  0  0  0  0  0  0  0  0  0  0
   -1.6563    0.0343    0.0080 C   0  0  0  0  0  0  0  0  0  0  0  0
   -3.0420    0.0799   -0.0228 O   0  0  0  0  0  0  0  0  0  0  0  0
   -0.9391    0.6903   -0.9645 C   0  0  0  0  0  0  0  0  0  0  0  0
   -1.6375    1.3772   -1.9456 O   0  0  0  0  0  0  0  0  0  0  0  0
    0.4426    0.6358   -0.9207 C   0  0  0  0  0  0  0  0  0  0  0  0
    4.1910    0.1825   -1.2405 H   0  0  0  0  0  0  0  0  0  0  0  0
    0.8553   -1.2463    1.8060 H   0  0  0  0  0  0  0  0  0  0  0  0
   -1.4272   -1.5162    2.9241 H   0  0  0  0  0  0  0  0  0  0  0  0
   -3.5255   -0.6454   -0.5733 H   0  0  0  0  0  0  0  0  0  0  0  0
   -2.0729    2.2575   -1.6565 H   0  0  0  0  0  0  0  0  0  0  0  0
    0.9835    1.1647   -1.7039 H   0  0  0  0  0  0  0  0  0  0  0  0
  1  2  2  0
  2  3  1  0
  2  4  1  0
  4  5  2  0
  5  6  1  0
  6  7  1  0
  6  8  2  0
  8  9  1  0
  8 10  1  0
 10 11  1  0
 10 12  2  0
 12  4  1  0
  3 13  1  0
  5 14  1  0
  7 15  1  0
  9 16  1  0
 11 17  1  0
 12 18  1  0
M  END
$$$$
