@<TRIPOS>MOLECULE
*****
 18 18 0 0 0
SMALL
GASTEIGER

@<TRIPOS>ATOM
      1 O           3.2072   -0.7207    0.9810 O.2     1  UNL1       -0.2451
      2 C           2.5767   -0.0999    0.0943 C.2     1  UNL1        0.3370
      3 O           3.3217    0.5527   -0.8739 O.3     1  UNL1       -0.4771
      4 C           1.1229   -0.0502    0.0595 C.ar    1  UNL1        0.0660
      5 C           0.3745   -0.6947    1.0160 C.ar    1  UNL1       -0.0023
      6 C          -1.0089   -0.6752    1.0232 C.ar    1  UNL1        0.1628
      7 O          -1.7660   -1.3263    1.9896 O.3     1  UNL1       -0.5032
      8 C          -1.6563    0.0343    0.0080 C.ar    1  UNL1        0.2006
      9 O          -3.0420    0.0799   -0.0228 O.3     1  UNL1       -0.5009
     10 C          -0.9391    0.6903   -0.9645 C.ar    1  UNL1        0.1628
     11 O          -1.6375    1.3772   -1.9456 O.3     1  UNL1       -0.5032
     12 C           0.4426    0.6358   -0.9207 C.ar    1  UNL1       -0.0023
     13 H           4.1910    0.1825   -1.2405 H       1  UNL1        0.2954
     14 H           0.8553   -1.2463    1.8060 H       1  UNL1        0.0663
     15 H          -1.4272   -1.5162    2.9241 H       1  UNL1        0.2923
     16 H          -3.5255   -0.6454   -0.5733 H       1  UNL1        0.2924
     17 H          -2.0729    2.2575   -1.6565 H       1  UNL1        0.2923
     18 H           0.9835    1.1647   -1.7039 H       1  UNL1        0.0663
@<TRIPOS>BOND
     1     1     2    2
     2     2     3    1
     3     2     4    1
     4     4     5   ar
     5     5     6   ar
     6     6     7    1
     7     6     8   ar
     8     8     9    1
     9     8    10   ar
    10    10    11    1
    11    10    12   ar
    12    12     4   ar
    13     3    13    1
    14     5    14    1
    15     7    15    1
    16     9    16    1
    17    11    17    1
    18    12    18    1
