
     RDKit          3D

 57 61  0  0  0  0  0  0  0  0999 V2000
   -2.7291    2.6036    2.0739 C   0  0  0  0  0  0  0  0  0  0  0  0
   -2.8952    1.7702    0.9714 O   0  0  0  0  0  0  0  0  0  0  0  0
   -1.9267    1.1131    0.2600 C   0  0  0  0  0  0  0  0  0  0  0  0
   -0.6152    1.2212    0.5751 C   0  0  0  0  0  0  0  0  0  0  0  0
    0.3345    0.5413   -0.1689 C   0  0  0  0  0  0  0  0  0  0  0  0
    1.7033    0.6018    0.0854 N   0  0  0  0  0  0  0  0  0  0  0  0
    2.3118    1.7552    0.3811 C   0  0  0  0  0  0  0  0  0  0  0  0
    3.6069    1.9023    0.6380 N   0  0  0  0  0  0  0  0  0  0  0  0
    4.4614    0.8139    0.6164 C   0  0  0  0  0  0  0  0  0  0  0  0
    5.7853    0.8140    0.8547 C   0  0  0  0  0  0  0  0  0  0  0  0
    6.4695   -0.3470    0.7900 C   0  0  0  0  0  0  0  0  0  0  0  0
    7.8476   -0.6844    0.9825 C   0  0  0  0  0  0  0  0  0  0  0  0
    8.7433    0.2948    1.3026 C   0  0  0  0  0  0  0  0  0  0  0  0
   10.0867    0.0255    1.5008 C   0  0  0  0  0  0  0  0  0  0  0  0
   10.5468   -1.2718    1.3737 C   0  0  0  0  0  0  0  0  0  0  0  0
   12.2551   -1.6591    1.6196 Cl  0  0  0  0  0  0  0  0  0  0  0  0
    9.6317   -2.2480    1.0508 C   0  0  0  0  0  0  0  0  0  0  0  0
    8.2892   -1.9752    0.8529 C   0  0  0  0  0  0  0  0  0  0  0  0
    5.2135   -1.5227    0.3742 S   0  0  0  0  0  0  0  0  0  0  0  0
    3.8441   -0.3598    0.3158 C   0  0  0  0  0  0  0  0  0  0  0  0
    2.4825   -0.4922    0.0494 C   0  0  0  0  0  0  0  0  0  0  0  0
    2.0515   -1.6351   -0.2120 O   0  0  0  0  0  0  0  0  0  0  0  0
   -0.0830   -0.2491   -1.2384 C   0  0  0  0  0  0  0  0  0  0  0  0
   -1.4035   -0.3724   -1.5737 C   0  0  0  0  0  0  0  0  0  0  0  0
   -2.3176    0.3205   -0.8084 C   0  0  0  0  0  0  0  0  0  0  0  0
   -3.6607    0.2331   -1.0995 O   0  0  0  0  0  0  0  0  0  0  0  0
   -4.1343   -0.5547   -2.1620 C   0  0  0  0  0  0  0  0  0  0  0  0
   -5.6395   -0.4939   -2.2909 C   0  0  0  0  0  0  0  0  0  0  0  0
   -6.2722   -0.9592   -1.0980 N   0  0  0  0  0  0  0  0  0  0  0  0
   -6.1247   -0.1383    0.0530 C   0  0  0  0  0  0  0  0  0  0  0  0
   -7.4820    0.0399    0.6945 C   0  0  0  0  0  0  0  0  0  0  0  0
   -8.4595   -0.5745   -0.2501 C   0  0  0  0  0  0  0  0  0  0  0  0
   -7.6295   -1.3654   -1.2343 C   0  0  0  0  0  0  0  0  0  0  0  0
   -3.0668    2.0208    2.9796 H   0  0  0  0  0  0  0  0  0  0  0  0
   -3.4328    3.4792    2.0563 H   0  0  0  0  0  0  0  0  0  0  0  0
   -1.6899    2.9649    2.1797 H   0  0  0  0  0  0  0  0  0  0  0  0
   -0.2330    1.8158    1.3893 H   0  0  0  0  0  0  0  0  0  0  0  0
    1.7206    2.6884    0.4243 H   0  0  0  0  0  0  0  0  0  0  0  0
    6.3695    1.7486    1.1115 H   0  0  0  0  0  0  0  0  0  0  0  0
    8.4385    1.3298    1.4147 H   0  0  0  0  0  0  0  0  0  0  0  0
   10.7885    0.8201    1.7565 H   0  0  0  0  0  0  0  0  0  0  0  0
    9.9908   -3.2674    0.9493 H   0  0  0  0  0  0  0  0  0  0  0  0
    7.6363   -2.8058    0.6017 H   0  0  0  0  0  0  0  0  0  0  0  0
    0.6372   -0.8026   -1.8530 H   0  0  0  0  0  0  0  0  0  0  0  0
   -1.7247   -0.9987   -2.4206 H   0  0  0  0  0  0  0  0  0  0  0  0
   -3.6504   -0.2279   -3.1054 H   0  0  0  0  0  0  0  0  0  0  0  0
   -3.8365   -1.6131   -1.9748 H   0  0  0  0  0  0  0  0  0  0  0  0
   -5.9708    0.5439   -2.5304 H   0  0  0  0  0  0  0  0  0  0  0  0
   -5.9266   -1.1064   -3.1662 H   0  0  0  0  0  0  0  0  0  0  0  0
   -5.7431    0.8596   -0.2638 H   0  0  0  0  0  0  0  0  0  0  0  0
   -5.4142   -0.5294    0.8010 H   0  0  0  0  0  0  0  0  0  0  0  0
   -7.5363   -0.5089    1.6770 H   0  0  0  0  0  0  0  0  0  0  0  0
   -7.6736    1.0983    0.9436 H   0  0  0  0  0  0  0  0  0  0  0  0
   -9.0464    0.2296   -0.7460 H   0  0  0  0  0  0  0  0  0  0  0  0
   -9.1521   -1.2990    0.2708 H   0  0  0  0  0  0  0  0  0  0  0  0
   -7.7750   -2.4571   -1.0930 H   0  0  0  0  0  0  0  0  0  0  0  0
   -8.0011   -1.1303   -2.2674 H   0  0  0  0  0  0  0  0  0  0  0  0
  1  2  1  0
  2  3  1  0
  3  4  2  0
  4  5  1  0
  5  6  1  0
  6  7  1  0
  7  8  2  0
  8  9  1  0
  9 10  1  0
 10 11  2  0
 11 12  1  0
 12 13  2  0
 13 14  1  0
 14 15  2  0
 15 16  1  0
 15 17  1  0
 17 18  2  0
 11 19  1  0
 19 20  1  0
 20 21  1  0
 21 22  2  0
  5 23  2  0
 23 24  1  0
 24 25  2  0
 25 26  1  0
 26 27  1  0
 27 28  1  0
 28 29  1  0
 29 30  1  0
 30 31  1  0
 31 32  1  0
 32 33  1  0
 25  3  1  0
 33 29  1  0
 21  6  1  0
 20  9  2  0
 18 12  1  0
  1 34  1  0
  1 35  1  0
  1 36  1  0
  4 37  1  0
  7 38  1  0
 10 39  1  0
 13 40  1  0
 14 41  1  0
 17 42  1  0
 18 43  1  0
 23 44  1  0
 24 45  1  0
 27 46  1  0
 27 47  1  0
 28 48  1  0
 28 49  1  0
 30 50  1  0
 30 51  1  0
 31 52  1  0
 31 53  1  0
 32 54  1  0
 32 55  1  0
 33 56  1  0
 33 57  1  0
M  END
$$$$
