@<TRIPOS>MOLECULE
*****
 57 61 0 0 0
SMALL
GASTEIGER

@<TRIPOS>ATOM
      1 C          -2.7291    2.6036    2.0739 C.3     1  UNL1        0.0790
      2 O          -2.8952    1.7702    0.9714 O.3     1  UNL1       -0.4914
      3 C          -1.9267    1.1131    0.2600 C.ar    1  UNL1        0.1635
      4 C          -0.6152    1.2212    0.5751 C.ar    1  UNL1        0.0077
      5 C           0.3345    0.5413   -0.1689 C.ar    1  UNL1        0.0546
      6 N           1.7033    0.6018    0.0854 N.ar    1  UNL1       -0.2665
      7 C           2.3118    1.7552    0.3811 C.ar    1  UNL1        0.1039
      8 N           3.6069    1.9023    0.6380 N.ar    1  UNL1       -0.2360
      9 C           4.4614    0.8139    0.6164 C.ar    1  UNL1        0.0856
     10 C           5.7853    0.8140    0.8547 C.ar    1  UNL1       -0.0207
     11 C           6.4695   -0.3470    0.7900 C.ar    1  UNL1        0.0221
     12 C           7.8476   -0.6844    0.9825 C.ar    1  UNL1       -0.0111
     13 C           8.7433    0.2948    1.3026 C.ar    1  UNL1       -0.0522
     14 C          10.0867    0.0255    1.5008 C.ar    1  UNL1       -0.0428
     15 C          10.5468   -1.2718    1.3737 C.ar    1  UNL1        0.0410
     16 CL         12.2551   -1.6591    1.6196 Cl      1  UNL1       -0.0835
     17 C           9.6317   -2.2480    1.0508 C.ar    1  UNL1       -0.0428
     18 C           8.2892   -1.9752    0.8529 C.ar    1  UNL1       -0.0522
     19 S           5.2135   -1.5227    0.3742 S.2     1  UNL1       -0.0813
     20 C           3.8441   -0.3598    0.3158 C.ar    1  UNL1        0.1030
     21 C           2.4825   -0.4922    0.0494 C.ar    1  UNL1        0.2727
     22 O           2.0515   -1.6351   -0.2120 O.2     1  UNL1       -0.2660
     23 C          -0.0830   -0.2491   -1.2384 C.ar    1  UNL1       -0.0340
     24 C          -1.4035   -0.3724   -1.5737 C.ar    1  UNL1       -0.0143
     25 C          -2.3176    0.3205   -0.8084 C.ar    1  UNL1        0.1621
     26 O          -3.6607    0.2331   -1.0995 O.3     1  UNL1       -0.4870
     27 C          -4.1343   -0.5547   -2.1620 C.3     1  UNL1        0.1024
     28 C          -5.6395   -0.4939   -2.2909 C.3     1  UNL1        0.0331
     29 N          -6.2722   -0.9592   -1.0980 N.3     1  UNL1       -0.2991
     30 C          -6.1247   -0.1383    0.0530 C.3     1  UNL1       -0.0010
     31 C          -7.4820    0.0399    0.6945 C.3     1  UNL1       -0.0390
     32 C          -8.4595   -0.5745   -0.2501 C.3     1  UNL1       -0.0390
     33 C          -7.6295   -1.3654   -1.2343 C.3     1  UNL1       -0.0010
     34 H          -3.0668    2.0208    2.9796 H       1  UNL1        0.0660
     35 H          -3.4328    3.4792    2.0563 H       1  UNL1        0.0660
     36 H          -1.6899    2.9649    2.1797 H       1  UNL1        0.0660
     37 H          -0.2330    1.8158    1.3893 H       1  UNL1        0.0676
     38 H           1.7206    2.6884    0.4243 H       1  UNL1        0.1033
     39 H           6.3695    1.7486    1.1115 H       1  UNL1        0.0650
     40 H           8.4385    1.3298    1.4147 H       1  UNL1        0.0624
     41 H          10.7885    0.8201    1.7565 H       1  UNL1        0.0632
     42 H           9.9908   -3.2674    0.9493 H       1  UNL1        0.0632
     43 H           7.6363   -2.8058    0.6017 H       1  UNL1        0.0624
     44 H           0.6372   -0.8026   -1.8530 H       1  UNL1        0.0639
     45 H          -1.7247   -0.9987   -2.4206 H       1  UNL1        0.0656
     46 H          -3.6504   -0.2279   -3.1054 H       1  UNL1        0.0709
     47 H          -3.8365   -1.6131   -1.9748 H       1  UNL1        0.0709
     48 H          -5.9708    0.5439   -2.5304 H       1  UNL1        0.0460
     49 H          -5.9266   -1.1064   -3.1662 H       1  UNL1        0.0460
     50 H          -5.7431    0.8596   -0.2638 H       1  UNL1        0.0427
     51 H          -5.4142   -0.5294    0.8010 H       1  UNL1        0.0427
     52 H          -7.5363   -0.5089    1.6770 H       1  UNL1        0.0278
     53 H          -7.6736    1.0983    0.9436 H       1  UNL1        0.0278
     54 H          -9.0464    0.2296   -0.7460 H       1  UNL1        0.0278
     55 H          -9.1521   -1.2990    0.2708 H       1  UNL1        0.0278
     56 H          -7.7750   -2.4571   -1.0930 H       1  UNL1        0.0427
     57 H          -8.0011   -1.1303   -2.2674 H       1  UNL1        0.0427
@<TRIPOS>BOND
     1     1     2    1
     2     2     3    1
     3     3     4   ar
     4     4     5   ar
     5     5     6    1
     6     6     7   ar
     7     7     8   ar
     8     8     9   ar
     9     9    10   ar
    10    10    11   ar
    11    11    12    1
    12    12    13   ar
    13    13    14   ar
    14    14    15   ar
    15    15    16    1
    16    15    17   ar
    17    17    18   ar
    18    11    19   ar
    19    19    20   ar
    20    20    21   ar
    21    21    22    2
    22     5    23   ar
    23    23    24   ar
    24    24    25   ar
    25    25    26    1
    26    26    27    1
    27    27    28    1
    28    28    29    1
    29    29    30    1
    30    30    31    1
    31    31    32    1
    32    32    33    1
    33    25     3   ar
    34    33    29    1
    35    21     6   ar
    36    20     9   ar
    37    18    12   ar
    38     1    34    1
    39     1    35    1
    40     1    36    1
    41     4    37    1
    42     7    38    1
    43    10    39    1
    44    13    40    1
    45    14    41    1
    46    17    42    1
    47    18    43    1
    48    23    44    1
    49    24    45    1
    50    27    46    1
    51    27    47    1
    52    28    48    1
    53    28    49    1
    54    30    50    1
    55    30    51    1
    56    31    52    1
    57    31    53    1
    58    32    54    1
    59    32    55    1
    60    33    56    1
    61    33    57    1
