@<TRIPOS>MOLECULE
*****
 71 74 0 0 0
SMALL
GASTEIGER

@<TRIPOS>ATOM
      1 C          -8.1005    3.1374   -0.3932 C.3     1  UNL1       -0.0652
      2 C          -8.4211    1.6819   -0.5309 C.3     1  UNL1       -0.0545
      3 C          -7.9059    0.8716    0.6517 C.3     1  UNL1       -0.0376
      4 C          -6.4151    0.9869    0.7865 C.3     1  UNL1        0.0118
      5 N          -5.7255    0.5025   -0.4066 N.pl3   1  UNL1       -0.3134
      6 C          -4.2902    0.5750   -0.3625 C.ar    1  UNL1        0.2169
      7 N          -3.6498    1.6552   -0.7888 N.ar    1  UNL1       -0.2221
      8 C          -2.3026    1.8096   -0.7843 C.ar    1  UNL1        0.0466
      9 C          -1.5529    0.7307   -0.2861 C.ar    1  UNL1        0.0948
     10 C          -0.1073    0.9065   -0.2885 C.2     1  UNL1        0.2530
     11 O           0.7172    0.0166    0.1250 O.2     1  UNL1       -0.2697
     12 N           0.5432    2.0807   -0.7485 N.am    1  UNL1       -0.2814
     13 C           1.9918    2.1660   -0.7131 C.ar    1  UNL1        0.0338
     14 C           2.6577    2.6528    0.3646 C.ar    1  UNL1       -0.0386
     15 C           4.0520    2.7129    0.3453 C.ar    1  UNL1       -0.0336
     16 C           4.7752    2.2887   -0.7453 C.ar    1  UNL1        0.1056
     17 S           6.5113    2.3945   -0.6982 S.O2    1  UNL1        0.0610
     18 O           6.9876    3.5577    0.1170 O.2     1  UNL1       -0.1528
     19 O           7.0472    2.5970   -2.0958 O.2     1  UNL1       -0.1528
     20 N           7.2359    0.9738   -0.0660 N.3     1  UNL1       -0.1722
     21 C           6.8654    0.6795    1.2805 C.3     1  UNL1        0.0440
     22 C           7.3957   -0.7235    1.5947 C.3     1  UNL1        0.0621
     23 O           8.7718   -0.7561    1.4587 O.3     1  UNL1       -0.3771
     24 C           9.1972   -0.3741    0.1953 C.3     1  UNL1        0.0621
     25 C           8.6820    1.0213   -0.1409 C.3     1  UNL1        0.0440
     26 C           4.1109    1.7933   -1.8435 C.ar    1  UNL1       -0.0336
     27 C           2.7111    1.7397   -1.8080 C.ar    1  UNL1       -0.0386
     28 C          -2.1760   -0.3997    0.1626 C.ar    1  UNL1        0.1363
     29 N          -1.4752   -1.4986    0.6709 N.pl3   1  UNL1       -0.3254
     30 C          -2.1834   -2.6986    1.1378 C.3     1  UNL1        0.0243
     31 C          -1.2154   -3.7402    1.6643 C.3     1  UNL1       -0.0219
     32 C          -1.9106   -5.0810    1.7338 C.3     1  UNL1       -0.0024
     33 N          -2.1233   -5.5558    0.3978 N.3     1  UNL1       -0.3159
     34 C          -2.3469   -4.5286   -0.5679 C.3     1  UNL1       -0.0024
     35 C          -2.9603   -3.2652   -0.0034 C.3     1  UNL1       -0.0219
     36 N          -3.5498   -0.4336    0.1054 N.ar    1  UNL1       -0.1990
     37 H          -7.3711    3.3947   -1.2090 H       1  UNL1        0.0230
     38 H          -7.6593    3.4074    0.5900 H       1  UNL1        0.0230
     39 H          -8.9765    3.8040   -0.5470 H       1  UNL1        0.0230
     40 H          -9.5426    1.5562   -0.5091 H       1  UNL1        0.0263
     41 H          -7.9772    1.2151   -1.4343 H       1  UNL1        0.0263
     42 H          -8.3528    1.2178    1.5994 H       1  UNL1        0.0280
     43 H          -8.1512   -0.1898    0.5173 H       1  UNL1        0.0280
     44 H          -6.1095    0.3546    1.6407 H       1  UNL1        0.0462
     45 H          -6.1229    2.0185    1.0148 H       1  UNL1        0.0462
     46 H          -6.2396    0.1364   -1.2178 H       1  UNL1        0.1489
     47 H          -1.8695    2.7250   -1.1516 H       1  UNL1        0.0839
     48 H          -0.0147    2.8705   -1.1064 H       1  UNL1        0.1551
     49 H           2.1580    2.9965    1.2387 H       1  UNL1        0.0637
     50 H           4.5676    3.1033    1.2122 H       1  UNL1        0.0638
     51 H           5.7712    0.6219    1.4446 H       1  UNL1        0.0466
     52 H           7.2633    1.3754    2.0320 H       1  UNL1        0.0466
     53 H           7.1290   -1.0325    2.6080 H       1  UNL1        0.0573
     54 H           6.8875   -1.3965    0.8444 H       1  UNL1        0.0573
     55 H          10.3048   -0.2952    0.2413 H       1  UNL1        0.0573
     56 H           8.8960   -1.0718   -0.5942 H       1  UNL1        0.0573
     57 H           9.0400    1.2933   -1.1521 H       1  UNL1        0.0466
     58 H           9.0570    1.7185    0.6507 H       1  UNL1        0.0466
     59 H           4.6724    1.4577   -2.7052 H       1  UNL1        0.0638
     60 H           2.2288    1.3456   -2.6870 H       1  UNL1        0.0637
     61 H          -0.4603   -1.5276    0.7449 H       1  UNL1        0.1478
     62 H          -2.8578   -2.3692    1.9462 H       1  UNL1        0.0499
     63 H          -0.8526   -3.4398    2.6743 H       1  UNL1        0.0295
     64 H          -0.3302   -3.7779    0.9946 H       1  UNL1        0.0295
     65 H          -1.2596   -5.7857    2.2763 H       1  UNL1        0.0425
     66 H          -2.8779   -4.9065    2.2488 H       1  UNL1        0.0425
     67 H          -1.3034   -6.1561    0.1208 H       1  UNL1        0.1219
     68 H          -3.0788   -4.9221   -1.3123 H       1  UNL1        0.0425
     69 H          -1.4134   -4.2567   -1.0990 H       1  UNL1        0.0425
     70 H          -2.9845   -2.5356   -0.8344 H       1  UNL1        0.0295
     71 H          -4.0116   -3.4267    0.3224 H       1  UNL1        0.0295
@<TRIPOS>BOND
     1     1     2    1
     2     2     3    1
     3     3     4    1
     4     4     5    1
     5     5     6    1
     6     6     7   ar
     7     7     8   ar
     8     8     9   ar
     9     9    10    1
    10    10    11    2
    11    10    12   am
    12    12    13    1
    13    13    14   ar
    14    14    15   ar
    15    15    16   ar
    16    16    17    1
    17    17    18    2
    18    17    19    2
    19    17    20    1
    20    20    21    1
    21    21    22    1
    22    22    23    1
    23    23    24    1
    24    24    25    1
    25    16    26   ar
    26    26    27   ar
    27     9    28   ar
    28    28    29    1
    29    29    30    1
    30    30    31    1
    31    31    32    1
    32    32    33    1
    33    33    34    1
    34    34    35    1
    35    28    36   ar
    36    36     6   ar
    37    27    13   ar
    38    35    30    1
    39    25    20    1
    40     1    37    1
    41     1    38    1
    42     1    39    1
    43     2    40    1
    44     2    41    1
    45     3    42    1
    46     3    43    1
    47     4    44    1
    48     4    45    1
    49     5    46    1
    50     8    47    1
    51    12    48    1
    52    14    49    1
    53    15    50    1
    54    21    51    1
    55    21    52    1
    56    22    53    1
    57    22    54    1
    58    24    55    1
    59    24    56    1
    60    25    57    1
    61    25    58    1
    62    26    59    1
    63    27    60    1
    64    29    61    1
    65    30    62    1
    66    31    63    1
    67    31    64    1
    68    32    65    1
    69    32    66    1
    70    33    67    1
    71    34    68    1
    72    34    69    1
    73    35    70    1
    74    35    71    1
