
     RDKit          3D

 71 74  0  0  0  0  0  0  0  0999 V2000
   -8.1005    3.1374   -0.3932 C   0  0  0  0  0  0  0  0  0  0  0  0
   -8.4211    1.6819   -0.5309 C   0  0  0  0  0  0  0  0  0  0  0  0
   -7.9059    0.8716    0.6517 C   0  0  0  0  0  0  0  0  0  0  0  0
   -6.4151    0.9869    0.7865 C   0  0  0  0  0  0  0  0  0  0  0  0
   -5.7255    0.5025   -0.4066 N   0  0  0  0  0  0  0  0  0  0  0  0
   -4.2902    0.5750   -0.3625 C   0  0  0  0  0  0  0  0  0  0  0  0
   -3.6498    1.6552   -0.7888 N   0  0  0  0  0  0  0  0  0  0  0  0
   -2.3026    1.8096   -0.7843 C   0  0  0  0  0  0  0  0  0  0  0  0
   -1.5529    0.7307   -0.2861 C   0  0  0  0  0  0  0  0  0  0  0  0
   -0.1073    0.9065   -0.2885 C   0  0  0  0  0  0  0  0  0  0  0  0
    0.7172    0.0166    0.1250 O   0  0  0  0  0  0  0  0  0  0  0  0
    0.5432    2.0807   -0.7485 N   0  0  0  0  0  0  0  0  0  0  0  0
    1.9918    2.1660   -0.7131 C   0  0  0  0  0  0  0  0  0  0  0  0
    2.6577    2.6528    0.3646 C   0  0  0  0  0  0  0  0  0  0  0  0
    4.0520    2.7129    0.3453 C   0  0  0  0  0  0  0  0  0  0  0  0
    4.7752    2.2887   -0.7453 C   0  0  0  0  0  0  0  0  0  0  0  0
    6.5113    2.3945   -0.6982 S   0  0  0  0  0  6  0  0  0  0  0  0
    6.9876    3.5577    0.1170 O   0  0  0  0  0  0  0  0  0  0  0  0
    7.0472    2.5970   -2.0958 O   0  0  0  0  0  0  0  0  0  0  0  0
    7.2359    0.9738   -0.0660 N   0  0  0  0  0  0  0  0  0  0  0  0
    6.8654    0.6795    1.2805 C   0  0  0  0  0  0  0  0  0  0  0  0
    7.3957   -0.7235    1.5947 C   0  0  0  0  0  0  0  0  0  0  0  0
    8.7718   -0.7561    1.4587 O   0  0  0  0  0  0  0  0  0  0  0  0
    9.1972   -0.3741    0.1953 C   0  0  0  0  0  0  0  0  0  0  0  0
    8.6820    1.0213   -0.1409 C   0  0  0  0  0  0  0  0  0  0  0  0
    4.1109    1.7933   -1.8435 C   0  0  0  0  0  0  0  0  0  0  0  0
    2.7111    1.7397   -1.8080 C   0  0  0  0  0  0  0  0  0  0  0  0
   -2.1760   -0.3997    0.1626 C   0  0  0  0  0  0  0  0  0  0  0  0
   -1.4752   -1.4986    0.6709 N   0  0  0  0  0  0  0  0  0  0  0  0
   -2.1834   -2.6986    1.1378 C   0  0  0  0  0  0  0  0  0  0  0  0
   -1.2154   -3.7402    1.6643 C   0  0  0  0  0  0  0  0  0  0  0  0
   -1.9106   -5.0810    1.7338 C   0  0  0  0  0  0  0  0  0  0  0  0
   -2.1233   -5.5558    0.3978 N   0  0  0  0  0  0  0  0  0  0  0  0
   -2.3469   -4.5286   -0.5679 C   0  0  0  0  0  0  0  0  0  0  0  0
   -2.9603   -3.2652   -0.0034 C   0  0  0  0  0  0  0  0  0  0  0  0
   -3.5498   -0.4336    0.1054 N   0  0  0  0  0  0  0  0  0  0  0  0
   -7.3711    3.3947   -1.2090 H   0  0  0  0  0  0  0  0  0  0  0  0
   -7.6593    3.4074    0.5900 H   0  0  0  0  0  0  0  0  0  0  0  0
   -8.9765    3.8040   -0.5470 H   0  0  0  0  0  0  0  0  0  0  0  0
   -9.5426    1.5562   -0.5091 H   0  0  0  0  0  0  0  0  0  0  0  0
   -7.9772    1.2151   -1.4343 H   0  0  0  0  0  0  0  0  0  0  0  0
   -8.3528    1.2178    1.5994 H   0  0  0  0  0  0  0  0  0  0  0  0
   -8.1512   -0.1898    0.5173 H   0  0  0  0  0  0  0  0  0  0  0  0
   -6.1095    0.3546    1.6407 H   0  0  0  0  0  0  0  0  0  0  0  0
   -6.1229    2.0185    1.0148 H   0  0  0  0  0  0  0  0  0  0  0  0
   -6.2396    0.1364   -1.2178 H   0  0  0  0  0  0  0  0  0  0  0  0
   -1.8695    2.7250   -1.1516 H   0  0  0  0  0  0  0  0  0  0  0  0
   -0.0147    2.8705   -1.1064 H   0  0  0  0  0  0  0  0  0  0  0  0
    2.1580    2.9965    1.2387 H   0  0  0  0  0  0  0  0  0  0  0  0
    4.5676    3.1033    1.2122 H   0  0  0  0  0  0  0  0  0  0  0  0
    5.7712    0.6219    1.4446 H   0  0  0  0  0  0  0  0  0  0  0  0
    7.2633    1.3754    2.0320 H   0  0  0  0  0  0  0  0  0  0  0  0
    7.1290   -1.0325    2.6080 H   0  0  0  0  0  0  0  0  0  0  0  0
    6.8875   -1.3965    0.8444 H   0  0  0  0  0  0  0  0  0  0  0  0
   10.3048   -0.2952    0.2413 H   0  0  0  0  0  0  0  0  0  0  0  0
    8.8960   -1.0718   -0.5942 H   0  0  0  0  0  0  0  0  0  0  0  0
    9.0400    1.2933   -1.1521 H   0  0  0  0  0  0  0  0  0  0  0  0
    9.0570    1.7185    0.6507 H   0  0  0  0  0  0  0  0  0  0  0  0
    4.6724    1.4577   -2.7052 H   0  0  0  0  0  0  0  0  0  0  0  0
    2.2288    1.3456   -2.6870 H   0  0  0  0  0  0  0  0  0  0  0  0
   -0.4603   -1.5276    0.7449 H   0  0  0  0  0  0  0  0  0  0  0  0
   -2.8578   -2.3692    1.9462 H   0  0  0  0  0  0  0  0  0  0  0  0
   -0.8526   -3.4398    2.6743 H   0  0  0  0  0  0  0  0  0  0  0  0
   -0.3302   -3.7779    0.9946 H   0  0  0  0  0  0  0  0  0  0  0  0
   -1.2596   -5.7857    2.2763 H   0  0  0  0  0  0  0  0  0  0  0  0
   -2.8779   -4.9065    2.2488 H   0  0  0  0  0  0  0  0  0  0  0  0
   -1.3034   -6.1561    0.1208 H   0  0  0  0  0  0  0  0  0  0  0  0
   -3.0788   -4.9221   -1.3123 H   0  0  0  0  0  0  0  0  0  0  0  0
   -1.4134   -4.2567   -1.0990 H   0  0  0  0  0  0  0  0  0  0  0  0
   -2.9845   -2.5356   -0.8344 H   0  0  0  0  0  0  0  0  0  0  0  0
   -4.0116   -3.4267    0.3224 H   0  0  0  0  0  0  0  0  0  0  0  0
  1  2  1  0
  2  3  1  0
  3  4  1  0
  4  5  1  0
  5  6  1  0
  6  7  2  0
  7  8  1  0
  8  9  2  0
  9 10  1  0
 10 11  2  0
 10 12  1  0
 12 13  1  0
 13 14  2  0
 14 15  1  0
 15 16  2  0
 16 17  1  0
 17 18  2  0
 17 19  2  0
 17 20  1  0
 20 21  1  0
 21 22  1  0
 22 23  1  0
 23 24  1  0
 24 25  1  0
 16 26  1  0
 26 27  2  0
  9 28  1  0
 28 29  1  0
 29 30  1  0
 30 31  1  0
 31 32  1  0
 32 33  1  0
 33 34  1  0
 34 35  1  0
 28 36  2  0
 36  6  1  0
 27 13  1  0
 35 30  1  0
 25 20  1  0
  1 37  1  0
  1 38  1  0
  1 39  1  0
  2 40  1  0
  2 41  1  0
  3 42  1  0
  3 43  1  0
  4 44  1  0
  4 45  1  0
  5 46  1  0
  8 47  1  0
 12 48  1  0
 14 49  1  0
 15 50  1  0
 21 51  1  0
 21 52  1  0
 22 53  1  0
 22 54  1  0
 24 55  1  0
 24 56  1  0
 25 57  1  0
 25 58  1  0
 26 59  1  0
 27 60  1  0
 29 61  1  0
 30 62  1  0
 31 63  1  0
 31 64  1  0
 32 65  1  0
 32 66  1  0
 33 67  1  0
 34 68  1  0
 34 69  1  0
 35 70  1  0
 35 71  1  0
M  END
$$$$
