@<TRIPOS>MOLECULE
*****
 31 30 0 0 0
SMALL
GASTEIGER

@<TRIPOS>ATOM
      1 N          -3.9290   -1.2073    0.3527 N.3     1  UNL1       -0.3184
      2 CA         -2.8970   -0.4079    0.9398 C.3     1  UNL1        0.1033
      3 C          -1.5074   -0.8942    0.6003 C.3     1  UNL1       -0.0260
      4 C          -1.2774   -0.8781   -0.8781 C.3     1  UNL1       -0.0355
      5 C           0.0775   -1.3459   -1.3009 C.3     1  UNL1        0.0117
      6 N           1.1907   -0.6148   -0.8048 N.am    1  UNL1       -0.3148
      7 C           1.4510    0.7547   -1.0184 C.2     1  UNL1        0.2247
      8 O           0.6562    1.4441   -1.7057 O.2     1  UNL1       -0.2752
      9 C           2.5820    1.5405   -0.5264 C.3     1  UNL1        0.1255
     10 P           3.7608    0.6070    0.4682 P.3     1  UNL1        0.3366
     11 O           4.2709   -0.8148   -0.2868 O.3     1  UNL1       -0.3237
     12 O           5.1625    1.5672    0.6501 O.3     1  UNL1       -0.3237
     13 O           3.2509    0.2719    1.8322 O.2     1  UNL1       -0.2583
     14 C          -3.0760    0.9881    0.4463 C.2     1  UNL1        0.3217
     15 O          -4.0470    1.4714   -0.4214 O.3     1  UNL1       -0.4795
     16 OXT        -2.3462    1.9615    0.7574 O.2     1  UNL1       -0.2493
     17 H1         -4.2769   -0.8734   -0.5725 H       1  UNL1        0.1190
     18 H2         -3.7434   -2.2312    0.3758 H       1  UNL1        0.1190
     19 HA         -3.0255   -0.3872    2.0378 H       1  UNL1        0.0574
     20 H          -0.7963   -0.2292    1.1568 H       1  UNL1        0.0286
     21 H          -1.3598   -1.9067    1.0270 H       1  UNL1        0.0286
     22 H          -1.5652    0.1034   -1.2895 H       1  UNL1        0.0281
     23 H          -2.0020   -1.5972   -1.3191 H       1  UNL1        0.0281
     24 H           0.1622   -2.3960   -0.9502 H       1  UNL1        0.0462
     25 H           0.0502   -1.4240   -2.4128 H       1  UNL1        0.0462
     26 H           1.9476   -1.0649   -0.2071 H       1  UNL1        0.1487
     27 H           2.2087    2.3635    0.1145 H       1  UNL1        0.0483
     28 H           3.1310    2.0349   -1.3613 H       1  UNL1        0.0483
     29 H           5.1135   -1.0926    0.1503 H       1  UNL1        0.2198
     30 H           5.4403    1.9723   -0.2096 H       1  UNL1        0.2198
     31 H          -4.6069    2.2849   -0.2071 H       1  UNL1        0.2951
@<TRIPOS>BOND
     1     1     2    1
     2     2     3    1
     3     3     4    1
     4     4     5    1
     5     5     6    1
     6     6     7   am
     7     7     8    2
     8     7     9    1
     9     9    10    1
    10    10    11    1
    11    10    12    1
    12    10    13    2
    13     2    14    1
    14    14    15    1
    15    14    16    2
    16     1    17    1
    17     1    18    1
    18     2    19    1
    19     3    20    1
    20     3    21    1
    21     4    22    1
    22     4    23    1
    23     5    24    1
    24     5    25    1
    25     6    26    1
    26     9    27    1
    27     9    28    1
    28    11    29    1
    29    12    30    1
    30    15    31    1
