
     RDKit          3D

 31 30  0  0  0  0  0  0  0  0999 V2000
   -3.9290   -1.2073    0.3527 N   0  0  0  0  0  0  0  0  0  0  0  0
   -2.8970   -0.4079    0.9398 C   0  0  1  0  0  0  0  0  0  0  0  0
   -1.5074   -0.8942    0.6003 C   0  0  0  0  0  0  0  0  0  0  0  0
   -1.2774   -0.8781   -0.8781 C   0  0  0  0  0  0  0  0  0  0  0  0
    0.0775   -1.3459   -1.3009 C   0  0  0  0  0  0  0  0  0  0  0  0
    1.1907   -0.6148   -0.8048 N   0  0  0  0  0  0  0  0  0  0  0  0
    1.4510    0.7547   -1.0184 C   0  0  0  0  0  0  0  0  0  0  0  0
    0.6562    1.4441   -1.7057 O   0  0  0  0  0  0  0  0  0  0  0  0
    2.5820    1.5405   -0.5264 C   0  0  0  0  0  0  0  0  0  0  0  0
    3.7608    0.6070    0.4682 P   0  0  0  0  0  0  0  0  0  0  0  0
    4.2709   -0.8148   -0.2868 O   0  0  0  0  0  0  0  0  0  0  0  0
    5.1625    1.5672    0.6501 O   0  0  0  0  0  0  0  0  0  0  0  0
    3.2509    0.2719    1.8322 O   0  0  0  0  0  0  0  0  0  0  0  0
   -3.0760    0.9881    0.4463 C   0  0  0  0  0  0  0  0  0  0  0  0
   -4.0470    1.4714   -0.4214 O   0  0  0  0  0  0  0  0  0  0  0  0
   -2.3462    1.9615    0.7574 O   0  0  0  0  0  0  0  0  0  0  0  0
   -4.2769   -0.8734   -0.5725 H   0  0  0  0  0  0  0  0  0  0  0  0
   -3.7434   -2.2312    0.3758 H   0  0  0  0  0  0  0  0  0  0  0  0
   -3.0255   -0.3872    2.0378 H   0  0  0  0  0  0  0  0  0  0  0  0
   -0.7963   -0.2292    1.1568 H   0  0  0  0  0  0  0  0  0  0  0  0
   -1.3598   -1.9067    1.0270 H   0  0  0  0  0  0  0  0  0  0  0  0
   -1.5652    0.1034   -1.2895 H   0  0  0  0  0  0  0  0  0  0  0  0
   -2.0020   -1.5972   -1.3191 H   0  0  0  0  0  0  0  0  0  0  0  0
    0.1622   -2.3960   -0.9502 H   0  0  0  0  0  0  0  0  0  0  0  0
    0.0502   -1.4240   -2.4128 H   0  0  0  0  0  0  0  0  0  0  0  0
    1.9476   -1.0649   -0.2071 H   0  0  0  0  0  0  0  0  0  0  0  0
    2.2087    2.3635    0.1145 H   0  0  0  0  0  0  0  0  0  0  0  0
    3.1310    2.0349   -1.3613 H   0  0  0  0  0  0  0  0  0  0  0  0
    5.1135   -1.0926    0.1503 H   0  0  0  0  0  0  0  0  0  0  0  0
    5.4403    1.9723   -0.2096 H   0  0  0  0  0  0  0  0  0  0  0  0
   -4.6069    2.2849   -0.2071 H   0  0  0  0  0  0  0  0  0  0  0  0
  1  2  1  0
  2  3  1  0
  3  4  1  0
  4  5  1  0
  5  6  1  0
  6  7  1  0
  7  8  2  0
  7  9  1  0
  9 10  1  0
 10 11  1  0
 10 12  1  0
 10 13  2  0
  2 14  1  0
 14 15  1  0
 14 16  2  0
  1 17  1  0
  1 18  1  0
  2 19  1  1
  3 20  1  0
  3 21  1  0
  4 22  1  0
  4 23  1  0
  5 24  1  0
  5 25  1  0
  6 26  1  0
  9 27  1  0
  9 28  1  0
 11 29  1  0
 12 30  1  0
 15 31  1  0
M  END
$$$$
