@<TRIPOS>MOLECULE
*****
 49 51 0 0 0
SMALL
GASTEIGER

@<TRIPOS>ATOM
      1 N           6.8979    2.0084    2.5047 N.pl3   1  UNL1       -0.1298
      2 C           5.7678    2.5166    2.1680 C.cat   1  UNL1        0.3765
      3 N           5.5212    3.8931    2.3935 N.pl3   1  UNL1       -0.2893
      4 N           4.7662    1.7167    1.5734 N.pl3   1  UNL1       -0.2721
      5 C           5.0246    0.3634    1.1035 C.3     1  UNL1        0.0899
      6 C           3.7871   -0.1830    0.5407 C.ar    1  UNL1       -0.0140
      7 C           3.5440    0.0150   -0.8069 C.ar    1  UNL1       -0.0549
      8 C           2.4015   -0.4786   -1.3681 C.ar    1  UNL1       -0.0493
      9 C           1.4472   -1.1807   -0.6621 C.ar    1  UNL1        0.0370
     10 C           0.2464   -1.6837   -1.3156 C.2     1  UNL1        0.2483
     11 O           0.0909   -1.4588   -2.5432 O.2     1  UNL1       -0.2699
     12 N          -0.7634   -2.4127   -0.6598 N.am    1  UNL1       -0.2808
     13 C          -1.9314   -2.9029   -1.2923 C.ar    1  UNL1        0.0459
     14 C          -2.0295   -4.1397   -1.8845 C.ar    1  UNL1       -0.0384
     15 C          -3.2023   -4.5628   -2.4898 C.ar    1  UNL1       -0.0416
     16 C          -4.3123   -3.7375   -2.5099 C.ar    1  UNL1        0.0418
     17 CL         -5.7672   -4.3038   -3.2790 Cl      1  UNL1       -0.0835
     18 C          -4.2190   -2.4880   -1.9136 C.ar    1  UNL1       -0.0295
     19 C          -3.0501   -2.0713   -1.3127 C.ar    1  UNL1        0.0596
     20 C          -2.9458   -0.7652   -0.6867 C.2     1  UNL1        0.2511
     21 O          -1.8806   -0.3816   -0.1354 O.2     1  UNL1       -0.2697
     22 N          -4.0246    0.1496   -0.6577 N.am    1  UNL1       -0.2663
     23 C          -3.9245    1.4351   -0.0434 C.ar    1  UNL1        0.1252
     24 C          -4.2395    1.5970    1.2816 C.ar    1  UNL1       -0.0201
     25 C          -4.1269    2.8529    1.8248 C.ar    1  UNL1       -0.0387
     26 C          -3.7004    3.8858    0.9996 C.ar    1  UNL1        0.0592
     27 CL         -3.5534    5.4877    1.6836 Cl      1  UNL1       -0.0820
     28 C          -3.3899    3.6956   -0.3300 C.ar    1  UNL1        0.0480
     29 N          -3.5140    2.4490   -0.8221 N.ar    1  UNL1       -0.2387
     30 C           1.7029   -1.3700    0.6790 C.ar    1  UNL1       -0.0493
     31 C           2.8502   -0.8830    1.2773 C.ar    1  UNL1       -0.0549
     32 H           7.0681    1.0064    2.3368 H       1  UNL1        0.3062
     33 H           4.7569    4.4226    1.9236 H       1  UNL1        0.2546
     34 H           6.1310    4.4104    3.0628 H       1  UNL1        0.2546
     35 H           3.8197    2.1317    1.4799 H       1  UNL1        0.2582
     36 H           5.8022    0.4573    0.2938 H       1  UNL1        0.0706
     37 H           5.4377   -0.2293    1.9346 H       1  UNL1        0.0706
     38 H           4.2586    0.5601   -1.4144 H       1  UNL1        0.0621
     39 H           2.2346   -0.3105   -2.4227 H       1  UNL1        0.0625
     40 H          -0.6543   -2.6102    0.3562 H       1  UNL1        0.1552
     41 H          -1.1388   -4.7695   -1.8535 H       1  UNL1        0.0637
     42 H          -3.2116   -5.5361   -2.9317 H       1  UNL1        0.0633
     43 H          -5.1089   -1.8831   -1.9550 H       1  UNL1        0.0640
     44 H          -4.9407   -0.0869   -1.0892 H       1  UNL1        0.1566
     45 H          -4.5715    0.7903    1.9210 H       1  UNL1        0.0652
     46 H          -4.3690    3.0260    2.8814 H       1  UNL1        0.0634
     47 H          -3.0562    4.4915   -0.9850 H       1  UNL1        0.0845
     48 H           1.0052   -1.9096    1.3018 H       1  UNL1        0.0625
     49 H           3.0641   -1.0238    2.3274 H       1  UNL1        0.0621
@<TRIPOS>BOND
     1     1     2    2
     2     2     3    1
     3     2     4    1
     4     4     5    1
     5     5     6    1
     6     6     7   ar
     7     7     8   ar
     8     8     9   ar
     9     9    10    1
    10    10    11    2
    11    10    12   am
    12    12    13    1
    13    13    14   ar
    14    14    15   ar
    15    15    16   ar
    16    16    17    1
    17    16    18   ar
    18    18    19   ar
    19    19    20    1
    20    20    21    2
    21    20    22   am
    22    22    23    1
    23    23    24   ar
    24    24    25   ar
    25    25    26   ar
    26    26    27    1
    27    26    28   ar
    28    28    29   ar
    29     9    30   ar
    30    30    31   ar
    31    31     6   ar
    32    19    13   ar
    33    29    23   ar
    34     1    32    1
    35     3    33    1
    36     3    34    1
    37     4    35    1
    38     5    36    1
    39     5    37    1
    40     7    38    1
    41     8    39    1
    42    12    40    1
    43    14    41    1
    44    15    42    1
    45    18    43    1
    46    22    44    1
    47    24    45    1
    48    25    46    1
    49    28    47    1
    50    30    48    1
    51    31    49    1
