
     RDKit          3D

 49 51  0  0  0  0  0  0  0  0999 V2000
    6.8979    2.0084    2.5047 N   0  0  0  0  0  0  0  0  0  0  0  0
    5.7678    2.5166    2.1680 C   0  0  0  0  0  0  0  0  0  0  0  0
    5.5212    3.8931    2.3935 N   0  0  0  0  0  0  0  0  0  0  0  0
    4.7662    1.7167    1.5734 N   0  0  0  0  0  0  0  0  0  0  0  0
    5.0246    0.3634    1.1035 C   0  0  0  0  0  0  0  0  0  0  0  0
    3.7871   -0.1830    0.5407 C   0  0  0  0  0  0  0  0  0  0  0  0
    3.5440    0.0150   -0.8069 C   0  0  0  0  0  0  0  0  0  0  0  0
    2.4015   -0.4786   -1.3681 C   0  0  0  0  0  0  0  0  0  0  0  0
    1.4472   -1.1807   -0.6621 C   0  0  0  0  0  0  0  0  0  0  0  0
    0.2464   -1.6837   -1.3156 C   0  0  0  0  0  0  0  0  0  0  0  0
    0.0909   -1.4588   -2.5432 O   0  0  0  0  0  0  0  0  0  0  0  0
   -0.7634   -2.4127   -0.6598 N   0  0  0  0  0  0  0  0  0  0  0  0
   -1.9314   -2.9029   -1.2923 C   0  0  0  0  0  0  0  0  0  0  0  0
   -2.0295   -4.1397   -1.8845 C   0  0  0  0  0  0  0  0  0  0  0  0
   -3.2023   -4.5628   -2.4898 C   0  0  0  0  0  0  0  0  0  0  0  0
   -4.3123   -3.7375   -2.5099 C   0  0  0  0  0  0  0  0  0  0  0  0
   -5.7672   -4.3038   -3.2790 Cl  0  0  0  0  0  0  0  0  0  0  0  0
   -4.2190   -2.4880   -1.9136 C   0  0  0  0  0  0  0  0  0  0  0  0
   -3.0501   -2.0713   -1.3127 C   0  0  0  0  0  0  0  0  0  0  0  0
   -2.9458   -0.7652   -0.6867 C   0  0  0  0  0  0  0  0  0  0  0  0
   -1.8806   -0.3816   -0.1354 O   0  0  0  0  0  0  0  0  0  0  0  0
   -4.0246    0.1496   -0.6577 N   0  0  0  0  0  0  0  0  0  0  0  0
   -3.9245    1.4351   -0.0434 C   0  0  0  0  0  0  0  0  0  0  0  0
   -4.2395    1.5970    1.2816 C   0  0  0  0  0  0  0  0  0  0  0  0
   -4.1269    2.8529    1.8248 C   0  0  0  0  0  0  0  0  0  0  0  0
   -3.7004    3.8858    0.9996 C   0  0  0  0  0  0  0  0  0  0  0  0
   -3.5534    5.4877    1.6836 Cl  0  0  0  0  0  0  0  0  0  0  0  0
   -3.3899    3.6956   -0.3300 C   0  0  0  0  0  0  0  0  0  0  0  0
   -3.5140    2.4490   -0.8221 N   0  0  0  0  0  0  0  0  0  0  0  0
    1.7029   -1.3700    0.6790 C   0  0  0  0  0  0  0  0  0  0  0  0
    2.8502   -0.8830    1.2773 C   0  0  0  0  0  0  0  0  0  0  0  0
    7.0681    1.0064    2.3368 H   0  0  0  0  0  0  0  0  0  0  0  0
    4.7569    4.4226    1.9236 H   0  0  0  0  0  0  0  0  0  0  0  0
    6.1310    4.4104    3.0628 H   0  0  0  0  0  0  0  0  0  0  0  0
    3.8197    2.1317    1.4799 H   0  0  0  0  0  0  0  0  0  0  0  0
    5.8022    0.4573    0.2938 H   0  0  0  0  0  0  0  0  0  0  0  0
    5.4377   -0.2293    1.9346 H   0  0  0  0  0  0  0  0  0  0  0  0
    4.2586    0.5601   -1.4144 H   0  0  0  0  0  0  0  0  0  0  0  0
    2.2346   -0.3105   -2.4227 H   0  0  0  0  0  0  0  0  0  0  0  0
   -0.6543   -2.6102    0.3562 H   0  0  0  0  0  0  0  0  0  0  0  0
   -1.1388   -4.7695   -1.8535 H   0  0  0  0  0  0  0  0  0  0  0  0
   -3.2116   -5.5361   -2.9317 H   0  0  0  0  0  0  0  0  0  0  0  0
   -5.1089   -1.8831   -1.9550 H   0  0  0  0  0  0  0  0  0  0  0  0
   -4.9407   -0.0869   -1.0892 H   0  0  0  0  0  0  0  0  0  0  0  0
   -4.5715    0.7903    1.9210 H   0  0  0  0  0  0  0  0  0  0  0  0
   -4.3690    3.0260    2.8814 H   0  0  0  0  0  0  0  0  0  0  0  0
   -3.0562    4.4915   -0.9850 H   0  0  0  0  0  0  0  0  0  0  0  0
    1.0052   -1.9096    1.3018 H   0  0  0  0  0  0  0  0  0  0  0  0
    3.0641   -1.0238    2.3274 H   0  0  0  0  0  0  0  0  0  0  0  0
  1  2  2  3
  2  3  1  0
  2  4  1  0
  4  5  1  0
  5  6  1  0
  6  7  2  0
  7  8  1  0
  8  9  2  0
  9 10  1  0
 10 11  2  0
 10 12  1  0
 12 13  1  0
 13 14  2  0
 14 15  1  0
 15 16  2  0
 16 17  1  0
 16 18  1  0
 18 19  2  0
 19 20  1  0
 20 21  2  0
 20 22  1  0
 22 23  1  0
 23 24  2  0
 24 25  1  0
 25 26  2  0
 26 27  1  0
 26 28  1  0
 28 29  2  0
  9 30  1  0
 30 31  2  0
 31  6  1  0
 19 13  1  0
 29 23  1  0
  1 32  1  0
  3 33  1  0
  3 34  1  0
  4 35  1  0
  5 36  1  0
  5 37  1  0
  7 38  1  0
  8 39  1  0
 12 40  1  0
 14 41  1  0
 15 42  1  0
 18 43  1  0
 22 44  1  0
 24 45  1  0
 25 46  1  0
 28 47  1  0
 30 48  1  0
 31 49  1  0
M  END
$$$$
