
     RDKit          3D

 81 82  0  0  0  0  0  0  0  0999 V2000
    9.2518   -1.5033    0.3802 C   0  0  0  0  0  0  0  0  0  0  0  0
    8.6735   -0.2372    0.9485 C   0  0  0  0  0  0  0  0  0  0  0  0
    8.3171   -0.3925    2.3936 C   0  0  0  0  0  0  0  0  0  0  0  0
    7.4406    0.1005    0.0920 C   0  0  0  0  0  0  0  0  0  0  0  0
    6.4341   -0.9769    0.1365 C   0  0  0  0  0  0  0  0  0  0  0  0
    5.2483   -0.7748   -0.7001 C   0  0  0  0  0  0  0  0  0  0  0  0
    4.3632    0.4073   -0.4932 C   0  0  1  0  0  0  0  0  0  0  0  0
    4.9736    1.7395   -0.7191 C   0  0  0  0  0  0  0  0  0  0  0  0
    3.1526    0.2050   -1.3602 C   0  0  0  0  0  0  0  0  0  0  0  0
    2.0970    1.2372   -1.3027 C   0  0  0  0  0  0  0  0  0  0  0  0
    1.5275    1.4342    0.0806 C   0  0  0  0  0  0  0  0  0  0  0  0
    0.9101    0.2007    0.6741 C   0  0  1  0  0  0  0  0  0  0  0  0
    0.4015    0.5919    2.0461 C   0  0  0  0  0  0  0  0  0  0  0  0
   -0.2317   -0.2403   -0.2286 C   0  0  0  0  0  0  0  0  0  0  0  0
   -0.9201   -1.4500    0.2707 C   0  0  0  0  0  0  0  0  0  0  0  0
   -2.0420   -1.9331   -0.5727 C   0  0  0  0  0  0  0  0  0  0  0  0
   -3.2483   -1.1204   -0.7480 C   0  0  2  0  0  0  0  0  0  0  0  0
   -4.1687   -1.9397   -1.6855 C   0  0  0  0  0  0  0  0  0  0  0  0
   -3.1457    0.2306   -1.3646 C   0  0  0  0  0  0  0  0  0  0  0  0
   -4.5224    0.5805   -1.9645 C   0  0  0  0  0  0  0  0  0  0  0  0
   -5.5350    0.5946   -0.8664 C   0  0  0  0  0  0  0  0  0  0  0  0
   -5.1777   -0.1760    0.2439 C   0  0  0  0  0  0  0  0  0  0  0  0
   -4.0194   -0.9561    0.4783 O   0  0  0  0  0  0  0  0  0  0  0  0
   -6.0782   -0.1963    1.2888 C   0  0  0  0  0  0  0  0  0  0  0  0
   -5.8423   -0.9705    2.5418 C   0  0  0  0  0  0  0  0  0  0  0  0
   -7.2774    0.4857    1.2918 C   0  0  0  0  0  0  0  0  0  0  0  0
   -8.2472    0.4664    2.4119 C   0  0  0  0  0  0  0  0  0  0  0  0
   -7.6111    1.2406    0.1857 C   0  0  0  0  0  0  0  0  0  0  0  0
   -8.7884    1.9708    0.0699 O   0  0  0  0  0  0  0  0  0  0  0  0
   -6.7233    1.2723   -0.8673 C   0  0  0  0  0  0  0  0  0  0  0  0
   -6.9996    2.0574   -2.0964 C   0  0  0  0  0  0  0  0  0  0  0  0
   10.3664   -1.4582    0.4874 H   0  0  0  0  0  0  0  0  0  0  0  0
    8.9881   -1.5984   -0.7035 H   0  0  0  0  0  0  0  0  0  0  0  0
    8.8445   -2.4116    0.8795 H   0  0  0  0  0  0  0  0  0  0  0  0
    9.3642    0.6189    0.8428 H   0  0  0  0  0  0  0  0  0  0  0  0
    9.2289   -0.2287    3.0035 H   0  0  0  0  0  0  0  0  0  0  0  0
    7.9894   -1.4525    2.5755 H   0  0  0  0  0  0  0  0  0  0  0  0
    7.5369    0.3277    2.6793 H   0  0  0  0  0  0  0  0  0  0  0  0
    7.7663    0.2971   -0.9314 H   0  0  0  0  0  0  0  0  0  0  0  0
    7.0064    1.0468    0.5145 H   0  0  0  0  0  0  0  0  0  0  0  0
    6.1850   -1.2952    1.1896 H   0  0  0  0  0  0  0  0  0  0  0  0
    6.9541   -1.9170   -0.2605 H   0  0  0  0  0  0  0  0  0  0  0  0
    4.5513   -1.6734   -0.6628 H   0  0  0  0  0  0  0  0  0  0  0  0
    5.5261   -0.7520   -1.8089 H   0  0  0  0  0  0  0  0  0  0  0  0
    3.9817    0.4240    0.5948 H   0  0  0  0  0  0  0  0  0  0  0  0
    5.9085    1.7287   -1.3455 H   0  0  0  0  0  0  0  0  0  0  0  0
    5.1456    2.3651    0.1647 H   0  0  0  0  0  0  0  0  0  0  0  0
    4.2783    2.3484   -1.3671 H   0  0  0  0  0  0  0  0  0  0  0  0
    2.7124   -0.8014   -1.1453 H   0  0  0  0  0  0  0  0  0  0  0  0
    3.5498    0.2098   -2.4241 H   0  0  0  0  0  0  0  0  0  0  0  0
    1.2360    1.0023   -1.9907 H   0  0  0  0  0  0  0  0  0  0  0  0
    2.4556    2.2086   -1.6621 H   0  0  0  0  0  0  0  0  0  0  0  0
    0.6920    2.1841   -0.0252 H   0  0  0  0  0  0  0  0  0  0  0  0
    2.3098    1.8268    0.7600 H   0  0  0  0  0  0  0  0  0  0  0  0
    1.6527   -0.6029    0.7012 H   0  0  0  0  0  0  0  0  0  0  0  0
   -0.1321   -0.2026    2.5700 H   0  0  0  0  0  0  0  0  0  0  0  0
    1.3288    0.7872    2.6599 H   0  0  0  0  0  0  0  0  0  0  0  0
   -0.1067    1.5565    1.9693 H   0  0  0  0  0  0  0  0  0  0  0  0
   -0.8047    0.6172   -0.4909 H   0  0  0  0  0  0  0  0  0  0  0  0
    0.3007   -0.5631   -1.1847 H   0  0  0  0  0  0  0  0  0  0  0  0
   -0.1996   -2.3220    0.3859 H   0  0  0  0  0  0  0  0  0  0  0  0
   -1.3364   -1.3242    1.3055 H   0  0  0  0  0  0  0  0  0  0  0  0
   -2.3960   -2.9441   -0.1803 H   0  0  0  0  0  0  0  0  0  0  0  0
   -1.6847   -2.2014   -1.6135 H   0  0  0  0  0  0  0  0  0  0  0  0
   -3.8628   -1.8665   -2.7294 H   0  0  0  0  0  0  0  0  0  0  0  0
   -5.2195   -1.6912   -1.5790 H   0  0  0  0  0  0  0  0  0  0  0  0
   -4.0408   -3.0190   -1.3726 H   0  0  0  0  0  0  0  0  0  0  0  0
   -2.9518    1.0110   -0.5791 H   0  0  0  0  0  0  0  0  0  0  0  0
   -2.4387    0.2169   -2.1948 H   0  0  0  0  0  0  0  0  0  0  0  0
   -4.8171   -0.0996   -2.7691 H   0  0  0  0  0  0  0  0  0  0  0  0
   -4.4410    1.6031   -2.3728 H   0  0  0  0  0  0  0  0  0  0  0  0
   -4.7987   -1.3418    2.5962 H   0  0  0  0  0  0  0  0  0  0  0  0
   -6.5675   -1.8016    2.6029 H   0  0  0  0  0  0  0  0  0  0  0  0
   -5.9821   -0.3254    3.4320 H   0  0  0  0  0  0  0  0  0  0  0  0
   -9.2312    0.1520    1.9644 H   0  0  0  0  0  0  0  0  0  0  0  0
   -8.3728    1.4320    2.9193 H   0  0  0  0  0  0  0  0  0  0  0  0
   -8.0008   -0.3720    3.1154 H   0  0  0  0  0  0  0  0  0  0  0  0
   -9.5094    1.6812   -0.5920 H   0  0  0  0  0  0  0  0  0  0  0  0
   -8.0823    2.2853   -2.1413 H   0  0  0  0  0  0  0  0  0  0  0  0
   -6.3694    2.9679   -2.1611 H   0  0  0  0  0  0  0  0  0  0  0  0
   -6.7259    1.4194   -2.9639 H   0  0  0  0  0  0  0  0  0  0  0  0
  1  2  1  0
  2  3  1  0
  2  4  1  0
  4  5  1  0
  5  6  1  0
  6  7  1  0
  7  8  1  0
  7  9  1  0
  9 10  1  0
 10 11  1  0
 11 12  1  0
 12 13  1  0
 12 14  1  0
 14 15  1  0
 15 16  1  0
 17 16  1  1
 17 18  1  0
 17 19  1  0
 19 20  1  0
 20 21  1  0
 21 22  2  0
 22 23  1  0
 22 24  1  0
 24 25  1  0
 24 26  2  0
 26 27  1  0
 26 28  1  0
 28 29  1  0
 28 30  2  0
 30 31  1  0
 23 17  1  0
 30 21  1  0
  1 32  1  0
  1 33  1  0
  1 34  1  0
  2 35  1  0
  3 36  1  0
  3 37  1  0
  3 38  1  0
  4 39  1  0
  4 40  1  0
  5 41  1  0
  5 42  1  0
  6 43  1  0
  6 44  1  0
  7 45  1  1
  8 46  1  0
  8 47  1  0
  8 48  1  0
  9 49  1  0
  9 50  1  0
 10 51  1  0
 10 52  1  0
 11 53  1  0
 11 54  1  0
 12 55  1  1
 13 56  1  0
 13 57  1  0
 13 58  1  0
 14 59  1  0
 14 60  1  0
 15 61  1  0
 15 62  1  0
 16 63  1  0
 16 64  1  0
 18 65  1  0
 18 66  1  0
 18 67  1  0
 19 68  1  0
 19 69  1  0
 20 70  1  0
 20 71  1  0
 25 72  1  0
 25 73  1  0
 25 74  1  0
 27 75  1  0
 27 76  1  0
 27 77  1  0
 29 78  1  0
 31 79  1  0
 31 80  1  0
 31 81  1  0
M  END
$$$$
