@<TRIPOS>MOLECULE
*****
 57 60 0 0 0
SMALL
GASTEIGER

@<TRIPOS>ATOM
      1 C          -5.1919   -2.2118   -0.6540 C.3     1  UNL1       -0.0129
      2 N          -4.1043   -2.1349    0.3305 N.3     1  UNL1       -0.3051
      3 C          -3.5403   -3.4458    0.4285 C.3     1  UNL1       -0.0129
      4 C          -3.1619   -1.1601   -0.1954 C.3     1  UNL1        0.0325
      5 C          -1.9854   -0.9564    0.6884 C.3     1  UNL1        0.1023
      6 O          -1.0865   -0.0299    0.2045 O.3     1  UNL1       -0.4888
      7 C          -1.1830    1.3183   -0.0280 C.ar    1  UNL1        0.1424
      8 C          -2.2966    2.0922    0.2249 C.ar    1  UNL1       -0.0075
      9 C          -2.3263    3.4484   -0.0310 C.ar    1  UNL1        0.0238
     10 C          -3.5008    4.2738    0.2328 C.ar    1  UNL1        0.0222
     11 C          -3.5608    5.5204    0.8413 C.ar    1  UNL1        0.0569
     12 N          -4.8419    5.9256    0.8845 N.ar    1  UNL1       -0.1817
     13 N          -5.5940    4.9836    0.3268 N.ar    1  UNL1       -0.2841
     14 C          -4.8003    3.9648   -0.0791 C.ar    1  UNL1        0.0301
     15 C          -1.1769    4.0053   -0.5574 C.ar    1  UNL1        0.1331
     16 F          -1.2115    5.3548   -0.8101 F       1  UNL1       -0.2048
     17 C          -0.0564    3.2423   -0.8139 C.ar    1  UNL1       -0.0010
     18 C          -0.0116    1.8944   -0.5657 C.ar    1  UNL1        0.0784
     19 N           1.1374    1.1023   -0.8267 N.am    1  UNL1       -0.2812
     20 C           2.1430    0.8991    0.1359 C.2     1  UNL1        0.2346
     21 O           1.9850    1.4555    1.2594 O.2     1  UNL1       -0.2737
     22 C           3.3575    0.0880   -0.0762 C.3     1  UNL1        0.0893
     23 C           3.4466   -0.9470    1.0118 C.3     1  UNL1       -0.0034
     24 C           4.5445   -1.8839    0.6586 C.ar    1  UNL1       -0.0410
     25 C           4.9080   -2.8136    1.6250 C.ar    1  UNL1       -0.0582
     26 C           5.9287   -3.7045    1.3304 C.ar    1  UNL1       -0.0615
     27 C           6.5967   -3.7106    0.1280 C.ar    1  UNL1       -0.0614
     28 C           6.2322   -2.7858   -0.8280 C.ar    1  UNL1       -0.0571
     29 C           5.2038   -1.8758   -0.5527 C.ar    1  UNL1       -0.0303
     30 C           4.8159   -0.8754   -1.5978 C.3     1  UNL1        0.0222
     31 N           3.4322   -0.4937   -1.3837 N.3     1  UNL1       -0.3014
     32 H          -5.2529   -1.2765   -1.2091 H       1  UNL1        0.0391
     33 H          -5.1578   -3.1255   -1.2469 H       1  UNL1        0.0391
     34 H          -6.1287   -2.2661   -0.0292 H       1  UNL1        0.0391
     35 H          -4.3894   -4.1835    0.3746 H       1  UNL1        0.0391
     36 H          -2.8663   -3.7080   -0.3965 H       1  UNL1        0.0391
     37 H          -3.0792   -3.6047    1.4370 H       1  UNL1        0.0391
     38 H          -2.7550   -1.6316   -1.1500 H       1  UNL1        0.0460
     39 H          -3.6124   -0.2221   -0.5049 H       1  UNL1        0.0460
     40 H          -2.2857   -0.6457    1.7211 H       1  UNL1        0.0709
     41 H          -1.4356   -1.9427    0.7378 H       1  UNL1        0.0709
     42 H          -3.1951    1.6537    0.6617 H       1  UNL1        0.0662
     43 H          -2.7073    6.0760    1.2205 H       1  UNL1        0.0854
     44 H          -6.6287    5.0892    0.2522 H       1  UNL1        0.1882
     45 H          -5.2023    3.0818   -0.5647 H       1  UNL1        0.0830
     46 H           0.8316    3.7337   -1.2322 H       1  UNL1        0.0666
     47 H           1.2283    0.6640   -1.7601 H       1  UNL1        0.1550
     48 H           4.2453    0.7608    0.0454 H       1  UNL1        0.0560
     49 H           3.7547   -0.3949    1.9446 H       1  UNL1        0.0333
     50 H           2.4825   -1.4627    1.1577 H       1  UNL1        0.0333
     51 H           4.3976   -2.8178    2.5590 H       1  UNL1        0.0620
     52 H           6.2375   -4.4438    2.0628 H       1  UNL1        0.0618
     53 H           7.3872   -4.4247   -0.0580 H       1  UNL1        0.0618
     54 H           6.7343   -2.7539   -1.7955 H       1  UNL1        0.0621
     55 H           4.9624   -1.3153   -2.6090 H       1  UNL1        0.0474
     56 H           5.4627    0.0093   -1.4655 H       1  UNL1        0.0474
     57 H           2.8713   -1.3882   -1.4643 H       1  UNL1        0.1230
@<TRIPOS>BOND
     1     1     2    1
     2     2     3    1
     3     2     4    1
     4     4     5    1
     5     5     6    1
     6     6     7    1
     7     7     8   ar
     8     8     9   ar
     9     9    10    1
    10    10    11   ar
    11    11    12   ar
    12    12    13   ar
    13    13    14   ar
    14     9    15   ar
    15    15    16    1
    16    15    17   ar
    17    17    18   ar
    18    18    19    1
    19    19    20   am
    20    20    21    2
    21    20    22    1
    22    22    23    1
    23    23    24    1
    24    24    25   ar
    25    25    26   ar
    26    26    27   ar
    27    27    28   ar
    28    28    29   ar
    29    29    30    1
    30    30    31    1
    31    18     7   ar
    32    31    22    1
    33    14    10   ar
    34    29    24   ar
    35     1    32    1
    36     1    33    1
    37     1    34    1
    38     3    35    1
    39     3    36    1
    40     3    37    1
    41     4    38    1
    42     4    39    1
    43     5    40    1
    44     5    41    1
    45     8    42    1
    46    11    43    1
    47    13    44    1
    48    14    45    1
    49    17    46    1
    50    19    47    1
    51    22    48    1
    52    23    49    1
    53    23    50    1
    54    25    51    1
    55    26    52    1
    56    27    53    1
    57    28    54    1
    58    30    55    1
    59    30    56    1
    60    31    57    1
