
     RDKit          3D

 57 60  0  0  0  0  0  0  0  0999 V2000
   -5.1919   -2.2118   -0.6540 C   0  0  0  0  0  0  0  0  0  0  0  0
   -4.1043   -2.1349    0.3305 N   0  0  0  0  0  0  0  0  0  0  0  0
   -3.5403   -3.4458    0.4285 C   0  0  0  0  0  0  0  0  0  0  0  0
   -3.1619   -1.1601   -0.1954 C   0  0  0  0  0  0  0  0  0  0  0  0
   -1.9854   -0.9564    0.6884 C   0  0  0  0  0  0  0  0  0  0  0  0
   -1.0865   -0.0299    0.2045 O   0  0  0  0  0  0  0  0  0  0  0  0
   -1.1830    1.3183   -0.0280 C   0  0  0  0  0  0  0  0  0  0  0  0
   -2.2966    2.0922    0.2249 C   0  0  0  0  0  0  0  0  0  0  0  0
   -2.3263    3.4484   -0.0310 C   0  0  0  0  0  0  0  0  0  0  0  0
   -3.5008    4.2738    0.2328 C   0  0  0  0  0  0  0  0  0  0  0  0
   -3.5608    5.5204    0.8413 C   0  0  0  0  0  0  0  0  0  0  0  0
   -4.8419    5.9256    0.8845 N   0  0  0  0  0  0  0  0  0  0  0  0
   -5.5940    4.9836    0.3268 N   0  0  0  0  0  0  0  0  0  0  0  0
   -4.8003    3.9648   -0.0791 C   0  0  0  0  0  0  0  0  0  0  0  0
   -1.1769    4.0053   -0.5574 C   0  0  0  0  0  0  0  0  0  0  0  0
   -1.2115    5.3548   -0.8101 F   0  0  0  0  0  0  0  0  0  0  0  0
   -0.0564    3.2423   -0.8139 C   0  0  0  0  0  0  0  0  0  0  0  0
   -0.0116    1.8944   -0.5657 C   0  0  0  0  0  0  0  0  0  0  0  0
    1.1374    1.1023   -0.8267 N   0  0  0  0  0  0  0  0  0  0  0  0
    2.1430    0.8991    0.1359 C   0  0  0  0  0  0  0  0  0  0  0  0
    1.9850    1.4555    1.2594 O   0  0  0  0  0  0  0  0  0  0  0  0
    3.3575    0.0880   -0.0762 C   0  0  1  0  0  0  0  0  0  0  0  0
    3.4466   -0.9470    1.0118 C   0  0  0  0  0  0  0  0  0  0  0  0
    4.5445   -1.8839    0.6586 C   0  0  0  0  0  0  0  0  0  0  0  0
    4.9080   -2.8136    1.6250 C   0  0  0  0  0  0  0  0  0  0  0  0
    5.9287   -3.7045    1.3304 C   0  0  0  0  0  0  0  0  0  0  0  0
    6.5967   -3.7106    0.1280 C   0  0  0  0  0  0  0  0  0  0  0  0
    6.2322   -2.7858   -0.8280 C   0  0  0  0  0  0  0  0  0  0  0  0
    5.2038   -1.8758   -0.5527 C   0  0  0  0  0  0  0  0  0  0  0  0
    4.8159   -0.8754   -1.5978 C   0  0  0  0  0  0  0  0  0  0  0  0
    3.4322   -0.4937   -1.3837 N   0  0  0  0  0  0  0  0  0  0  0  0
   -5.2529   -1.2765   -1.2091 H   0  0  0  0  0  0  0  0  0  0  0  0
   -5.1578   -3.1255   -1.2469 H   0  0  0  0  0  0  0  0  0  0  0  0
   -6.1287   -2.2661   -0.0292 H   0  0  0  0  0  0  0  0  0  0  0  0
   -4.3894   -4.1835    0.3746 H   0  0  0  0  0  0  0  0  0  0  0  0
   -2.8663   -3.7080   -0.3965 H   0  0  0  0  0  0  0  0  0  0  0  0
   -3.0792   -3.6047    1.4370 H   0  0  0  0  0  0  0  0  0  0  0  0
   -2.7550   -1.6316   -1.1500 H   0  0  0  0  0  0  0  0  0  0  0  0
   -3.6124   -0.2221   -0.5049 H   0  0  0  0  0  0  0  0  0  0  0  0
   -2.2857   -0.6457    1.7211 H   0  0  0  0  0  0  0  0  0  0  0  0
   -1.4356   -1.9427    0.7378 H   0  0  0  0  0  0  0  0  0  0  0  0
   -3.1951    1.6537    0.6617 H   0  0  0  0  0  0  0  0  0  0  0  0
   -2.7073    6.0760    1.2205 H   0  0  0  0  0  0  0  0  0  0  0  0
   -6.6287    5.0892    0.2522 H   0  0  0  0  0  0  0  0  0  0  0  0
   -5.2023    3.0818   -0.5647 H   0  0  0  0  0  0  0  0  0  0  0  0
    0.8316    3.7337   -1.2322 H   0  0  0  0  0  0  0  0  0  0  0  0
    1.2283    0.6640   -1.7601 H   0  0  0  0  0  0  0  0  0  0  0  0
    4.2453    0.7608    0.0454 H   0  0  0  0  0  0  0  0  0  0  0  0
    3.7547   -0.3949    1.9446 H   0  0  0  0  0  0  0  0  0  0  0  0
    2.4825   -1.4627    1.1577 H   0  0  0  0  0  0  0  0  0  0  0  0
    4.3976   -2.8178    2.5590 H   0  0  0  0  0  0  0  0  0  0  0  0
    6.2375   -4.4438    2.0628 H   0  0  0  0  0  0  0  0  0  0  0  0
    7.3872   -4.4247   -0.0580 H   0  0  0  0  0  0  0  0  0  0  0  0
    6.7343   -2.7539   -1.7955 H   0  0  0  0  0  0  0  0  0  0  0  0
    4.9624   -1.3153   -2.6090 H   0  0  0  0  0  0  0  0  0  0  0  0
    5.4627    0.0093   -1.4655 H   0  0  0  0  0  0  0  0  0  0  0  0
    2.8713   -1.3882   -1.4643 H   0  0  0  0  0  0  0  0  0  0  0  0
  1  2  1  0
  2  3  1  0
  2  4  1  0
  4  5  1  0
  5  6  1  0
  6  7  1  0
  7  8  2  0
  8  9  1  0
  9 10  1  0
 10 11  1  0
 11 12  2  0
 12 13  1  0
 13 14  1  0
  9 15  2  0
 15 16  1  0
 15 17  1  0
 17 18  2  0
 18 19  1  0
 19 20  1  0
 20 21  2  0
 20 22  1  0
 22 23  1  0
 23 24  1  0
 24 25  2  0
 25 26  1  0
 26 27  2  0
 27 28  1  0
 28 29  2  0
 29 30  1  0
 30 31  1  0
 18  7  1  0
 31 22  1  0
 14 10  2  0
 29 24  1  0
  1 32  1  0
  1 33  1  0
  1 34  1  0
  3 35  1  0
  3 36  1  0
  3 37  1  0
  4 38  1  0
  4 39  1  0
  5 40  1  0
  5 41  1  0
  8 42  1  0
 11 43  1  0
 13 44  1  0
 14 45  1  0
 17 46  1  0
 19 47  1  0
 22 48  1  1
 23 49  1  0
 23 50  1  0
 25 51  1  0
 26 52  1  0
 27 53  1  0
 28 54  1  0
 30 55  1  0
 30 56  1  0
 31 57  1  0
M  END
$$$$
