@<TRIPOS>MOLECULE
*****
 32 33 0 0 0
SMALL
GASTEIGER

@<TRIPOS>ATOM
      1 C           4.4259    0.8195   -1.8535 C.3     1  UNL1       -0.0014
      2 C           4.0788    1.0228   -0.4278 C.2     1  UNL1        0.1601
      3 O           4.7807    1.7691    0.3300 O.2     1  UNL1       -0.2924
      4 C           2.9175    0.3671    0.1401 C.ar    1  UNL1        0.0172
      5 C           2.5634    0.5319    1.4602 C.ar    1  UNL1       -0.0494
      6 C           1.4680   -0.0954    1.9687 C.ar    1  UNL1       -0.0344
      7 C           0.6885   -0.9034    1.1929 C.ar    1  UNL1        0.1085
      8 S          -0.6929   -1.7660    1.7547 S.O2    1  UNL1        0.0723
      9 O          -0.3455   -2.4737    3.0663 O.2     1  UNL1       -0.1500
     10 O          -1.0022   -2.9217    0.8005 O.2     1  UNL1       -0.1500
     11 N          -2.1232   -0.8558    1.9150 N.pl3   1  UNL1       -0.2163
     12 C          -2.7243   -0.2257    0.8125 C.ar    1  UNL1        0.0480
     13 C          -2.0340    0.6158   -0.0153 C.ar    1  UNL1       -0.0393
     14 C          -2.7033    1.2137   -1.0624 C.ar    1  UNL1       -0.0600
     15 C          -4.0334    1.0152   -1.3279 C.ar    1  UNL1       -0.0616
     16 C          -4.7039    0.1635   -0.4777 C.ar    1  UNL1       -0.0600
     17 C          -4.0691   -0.4495    0.5749 C.ar    1  UNL1       -0.0393
     18 C           1.0584   -1.0633   -0.1475 C.ar    1  UNL1       -0.0344
     19 C           2.1541   -0.4391   -0.6659 C.ar    1  UNL1       -0.0494
     20 H           3.5866    0.9151   -2.5393 H       1  UNL1        0.0309
     21 H           4.9429   -0.1510   -1.9960 H       1  UNL1        0.0309
     22 H           5.1662    1.6251   -2.1213 H       1  UNL1        0.0309
     23 H           3.1802    1.1734    2.0805 H       1  UNL1        0.0625
     24 H           1.1684    0.0234    3.0206 H       1  UNL1        0.0637
     25 H          -2.5738   -0.7607    2.8707 H       1  UNL1        0.1737
     26 H          -0.9726    0.8448    0.1299 H       1  UNL1        0.0636
     27 H          -2.1553    1.8934   -1.7358 H       1  UNL1        0.0618
     28 H          -4.5431    1.5053   -2.1707 H       1  UNL1        0.0618
     29 H          -5.7597   -0.0003   -0.6797 H       1  UNL1        0.0618
     30 H          -4.6426   -1.1267    1.2350 H       1  UNL1        0.0636
     31 H           0.4520   -1.7060   -0.7951 H       1  UNL1        0.0637
     32 H           2.4473   -0.5605   -1.7117 H       1  UNL1        0.0625
@<TRIPOS>BOND
     1     1     2    1
     2     2     3    2
     3     2     4    1
     4     4     5   ar
     5     5     6   ar
     6     6     7   ar
     7     7     8    1
     8     8     9    2
     9     8    10    2
    10     8    11    1
    11    11    12    1
    12    12    13   ar
    13    13    14   ar
    14    14    15   ar
    15    15    16   ar
    16    16    17   ar
    17     7    18   ar
    18    18    19   ar
    19    19     4   ar
    20    17    12   ar
    21     1    20    1
    22     1    21    1
    23     1    22    1
    24     5    23    1
    25     6    24    1
    26    11    25    1
    27    13    26    1
    28    14    27    1
    29    15    28    1
    30    16    29    1
    31    17    30    1
    32    18    31    1
    33    19    32    1
