
     RDKit          3D

 32 33  0  0  0  0  0  0  0  0999 V2000
    4.4259    0.8195   -1.8535 C   0  0  0  0  0  0  0  0  0  0  0  0
    4.0788    1.0228   -0.4278 C   0  0  0  0  0  0  0  0  0  0  0  0
    4.7807    1.7691    0.3300 O   0  0  0  0  0  0  0  0  0  0  0  0
    2.9175    0.3671    0.1401 C   0  0  0  0  0  0  0  0  0  0  0  0
    2.5634    0.5319    1.4602 C   0  0  0  0  0  0  0  0  0  0  0  0
    1.4680   -0.0954    1.9687 C   0  0  0  0  0  0  0  0  0  0  0  0
    0.6885   -0.9034    1.1929 C   0  0  0  0  0  0  0  0  0  0  0  0
   -0.6929   -1.7660    1.7547 S   0  0  0  0  0  6  0  0  0  0  0  0
   -0.3455   -2.4737    3.0663 O   0  0  0  0  0  0  0  0  0  0  0  0
   -1.0022   -2.9217    0.8005 O   0  0  0  0  0  0  0  0  0  0  0  0
   -2.1232   -0.8558    1.9150 N   0  0  0  0  0  0  0  0  0  0  0  0
   -2.7243   -0.2257    0.8125 C   0  0  0  0  0  0  0  0  0  0  0  0
   -2.0340    0.6158   -0.0153 C   0  0  0  0  0  0  0  0  0  0  0  0
   -2.7033    1.2137   -1.0624 C   0  0  0  0  0  0  0  0  0  0  0  0
   -4.0334    1.0152   -1.3279 C   0  0  0  0  0  0  0  0  0  0  0  0
   -4.7039    0.1635   -0.4777 C   0  0  0  0  0  0  0  0  0  0  0  0
   -4.0691   -0.4495    0.5749 C   0  0  0  0  0  0  0  0  0  0  0  0
    1.0584   -1.0633   -0.1475 C   0  0  0  0  0  0  0  0  0  0  0  0
    2.1541   -0.4391   -0.6659 C   0  0  0  0  0  0  0  0  0  0  0  0
    3.5866    0.9151   -2.5393 H   0  0  0  0  0  0  0  0  0  0  0  0
    4.9429   -0.1510   -1.9960 H   0  0  0  0  0  0  0  0  0  0  0  0
    5.1662    1.6251   -2.1213 H   0  0  0  0  0  0  0  0  0  0  0  0
    3.1802    1.1734    2.0805 H   0  0  0  0  0  0  0  0  0  0  0  0
    1.1684    0.0234    3.0206 H   0  0  0  0  0  0  0  0  0  0  0  0
   -2.5738   -0.7607    2.8707 H   0  0  0  0  0  0  0  0  0  0  0  0
   -0.9726    0.8448    0.1299 H   0  0  0  0  0  0  0  0  0  0  0  0
   -2.1553    1.8934   -1.7358 H   0  0  0  0  0  0  0  0  0  0  0  0
   -4.5431    1.5053   -2.1707 H   0  0  0  0  0  0  0  0  0  0  0  0
   -5.7597   -0.0003   -0.6797 H   0  0  0  0  0  0  0  0  0  0  0  0
   -4.6426   -1.1267    1.2350 H   0  0  0  0  0  0  0  0  0  0  0  0
    0.4520   -1.7060   -0.7951 H   0  0  0  0  0  0  0  0  0  0  0  0
    2.4473   -0.5605   -1.7117 H   0  0  0  0  0  0  0  0  0  0  0  0
  1  2  1  0
  2  3  2  0
  2  4  1  0
  4  5  2  0
  5  6  1  0
  6  7  2  0
  7  8  1  0
  8  9  2  0
  8 10  2  0
  8 11  1  0
 11 12  1  0
 12 13  2  0
 13 14  1  0
 14 15  2  0
 15 16  1  0
 16 17  2  0
  7 18  1  0
 18 19  2  0
 19  4  1  0
 17 12  1  0
  1 20  1  0
  1 21  1  0
  1 22  1  0
  5 23  1  0
  6 24  1  0
 11 25  1  0
 13 26  1  0
 14 27  1  0
 15 28  1  0
 16 29  1  0
 17 30  1  0
 18 31  1  0
 19 32  1  0
M  END
$$$$
