
     RDKit          3D

 59 63  0  0  0  0  0  0  0  0999 V2000
   -9.0442   -1.7248   -1.0479 C   0  0  0  0  0  0  0  0  0  0  0  0
   -8.0555   -2.1564   -2.0267 N   0  0  0  0  0  0  0  0  0  0  0  0
   -6.7491   -1.6069   -1.9449 C   0  0  0  0  0  0  0  0  0  0  0  0
   -5.8121   -1.9686   -2.8143 N   0  0  0  0  0  0  0  0  0  0  0  0
   -4.5673   -1.4690   -2.7657 C   0  0  0  0  0  0  0  0  0  0  0  0
   -4.2764   -0.5667   -1.7899 N   0  0  0  0  0  0  0  0  0  0  0  0
   -5.1931   -0.1787   -0.8974 C   0  0  0  0  0  0  0  0  0  0  0  0
   -4.9218    0.7973    0.1781 C   0  0  0  0  0  0  0  0  0  0  0  0
   -5.9177    1.1534    1.0664 C   0  0  0  0  0  0  0  0  0  0  0  0
   -5.6594    2.0586    2.0613 C   0  0  0  0  0  0  0  0  0  0  0  0
   -4.4056    2.5986    2.1568 C   0  0  0  0  0  0  0  0  0  0  0  0
   -3.4398    2.2535    1.2956 N   0  0  0  0  0  0  0  0  0  0  0  0
   -3.6890    1.3731    0.3272 C   0  0  0  0  0  0  0  0  0  0  0  0
   -2.6780    1.0303   -0.5513 O   0  0  0  0  0  0  0  0  0  0  0  0
   -1.3910    1.5514   -0.4980 C   0  0  0  0  0  0  0  0  0  0  0  0
   -0.3595    0.6748   -0.3104 C   0  0  0  0  0  0  0  0  0  0  0  0
    0.9846    1.0286   -0.2335 C   0  0  0  0  0  0  0  0  0  0  0  0
    1.9617    0.0306   -0.0369 N   0  0  0  0  0  0  0  0  0  0  0  0
    3.3361    0.2309    0.0584 C   0  0  0  0  0  0  0  0  0  0  0  0
    3.8427    1.3765   -0.0278 O   0  0  0  0  0  0  0  0  0  0  0  0
    4.2700   -0.8871    0.2650 C   0  0  0  0  0  0  0  0  0  0  0  0
    3.8657   -2.1914    0.3792 C   0  0  0  0  0  0  0  0  0  0  0  0
    4.7589   -3.2489    0.5754 C   0  0  0  0  0  0  0  0  0  0  0  0
    6.0914   -2.9835    0.6582 C   0  0  0  0  0  0  0  0  0  0  0  0
    6.5415   -1.6785    0.5478 C   0  0  0  0  0  0  0  0  0  0  0  0
    7.9571   -1.4733    0.6444 N   0  0  0  0  0  0  0  0  0  0  0  0
    8.9241   -2.2575    0.1480 C   0  0  0  0  0  0  0  0  0  0  0  0
   10.1507   -1.7432    0.4363 C   0  0  0  0  0  0  0  0  0  0  0  0
    9.9149   -0.5906    1.1424 C   0  0  0  0  0  0  0  0  0  0  0  0
    8.5600   -0.4473    1.2566 C   0  0  0  0  0  0  0  0  0  0  0  0
    5.6391   -0.6562    0.3549 C   0  0  0  0  0  0  0  0  0  0  0  0
    1.2485    2.3643   -0.3603 C   0  0  0  0  0  0  0  0  0  0  0  0
    0.1931    3.2850   -0.5549 C   0  0  0  0  0  0  0  0  0  0  0  0
   -1.1134    2.8759   -0.6223 C   0  0  0  0  0  0  0  0  0  0  0  0
   -2.1736    3.8639   -0.8270 C   0  0  0  0  0  0  0  0  0  0  0  0
   -6.4250   -0.7049   -0.9844 N   0  0  0  0  0  0  0  0  0  0  0  0
   -9.7915   -2.5513   -0.8828 H   0  0  0  0  0  0  0  0  0  0  0  0
   -9.5788   -0.8202   -1.3935 H   0  0  0  0  0  0  0  0  0  0  0  0
   -8.5122   -1.4708   -0.1241 H   0  0  0  0  0  0  0  0  0  0  0  0
   -8.3223   -2.8428   -2.7484 H   0  0  0  0  0  0  0  0  0  0  0  0
   -3.8132   -1.7693   -3.4769 H   0  0  0  0  0  0  0  0  0  0  0  0
   -6.9054    0.6884    0.9425 H   0  0  0  0  0  0  0  0  0  0  0  0
   -6.4285    2.3319    2.7452 H   0  0  0  0  0  0  0  0  0  0  0  0
   -4.1240    3.3241    2.9205 H   0  0  0  0  0  0  0  0  0  0  0  0
   -0.6079   -0.3876   -0.2130 H   0  0  0  0  0  0  0  0  0  0  0  0
    1.5995   -0.9790    0.0462 H   0  0  0  0  0  0  0  0  0  0  0  0
    2.8431   -2.4816    0.3255 H   0  0  0  0  0  0  0  0  0  0  0  0
    4.4005   -4.2583    0.6599 H   0  0  0  0  0  0  0  0  0  0  0  0
    6.8073   -3.8026    0.8122 H   0  0  0  0  0  0  0  0  0  0  0  0
    8.7843   -3.1832   -0.4125 H   0  0  0  0  0  0  0  0  0  0  0  0
   11.1027   -2.1647    0.1609 H   0  0  0  0  0  0  0  0  0  0  0  0
   10.7095    0.0447    1.5130 H   0  0  0  0  0  0  0  0  0  0  0  0
    8.0918    0.3859    1.7730 H   0  0  0  0  0  0  0  0  0  0  0  0
    6.0240    0.3527    0.2727 H   0  0  0  0  0  0  0  0  0  0  0  0
    2.2387    2.7562   -0.3183 H   0  0  0  0  0  0  0  0  0  0  0  0
    0.4589    4.3392   -0.6499 H   0  0  0  0  0  0  0  0  0  0  0  0
   -1.8609    4.5721   -1.6512 H   0  0  0  0  0  0  0  0  0  0  0  0
   -2.3769    4.5149    0.0392 H   0  0  0  0  0  0  0  0  0  0  0  0
   -3.1076    3.3877   -1.2392 H   0  0  0  0  0  0  0  0  0  0  0  0
  1  2  1  0
  2  3  1  0
  3  4  2  0
  4  5  1  0
  5  6  2  0
  6  7  1  0
  7  8  1  0
  8  9  2  0
  9 10  1  0
 10 11  2  0
 11 12  1  0
 12 13  2  0
 13 14  1  0
 14 15  1  0
 15 16  2  0
 16 17  1  0
 17 18  1  0
 18 19  1  0
 19 20  2  0
 19 21  1  0
 21 22  2  0
 22 23  1  0
 23 24  2  0
 24 25  1  0
 25 26  1  0
 26 27  1  0
 27 28  2  0
 28 29  1  0
 29 30  2  0
 25 31  2  0
 17 32  2  0
 32 33  1  0
 33 34  2  0
 34 35  1  0
  7 36  2  0
 36  3  1  0
 13  8  1  0
 34 15  1  0
 31 21  1  0
 30 26  1  0
  1 37  1  0
  1 38  1  0
  1 39  1  0
  2 40  1  0
  5 41  1  0
  9 42  1  0
 10 43  1  0
 11 44  1  0
 16 45  1  0
 18 46  1  0
 22 47  1  0
 23 48  1  0
 24 49  1  0
 27 50  1  0
 28 51  1  0
 29 52  1  0
 30 53  1  0
 31 54  1  0
 32 55  1  0
 33 56  1  0
 35 57  1  0
 35 58  1  0
 35 59  1  0
M  END
$$$$
