@<TRIPOS>MOLECULE
*****
 59 63 0 0 0
SMALL
GASTEIGER

@<TRIPOS>ATOM
      1 C          -9.0442   -1.7248   -1.0479 C.3     1  UNL1        0.0003
      2 N          -8.0555   -2.1564   -2.0267 N.pl3   1  UNL1       -0.3164
      3 C          -6.7491   -1.6069   -1.9449 C.ar    1  UNL1        0.2183
      4 N          -5.8121   -1.9686   -2.8143 N.ar    1  UNL1       -0.2030
      5 C          -4.5673   -1.4690   -2.7657 C.ar    1  UNL1        0.1219
      6 N          -4.2764   -0.5667   -1.7899 N.ar    1  UNL1       -0.2157
      7 C          -5.1931   -0.1787   -0.8974 C.ar    1  UNL1        0.1700
      8 C          -4.9218    0.7973    0.1781 C.ar    1  UNL1        0.0811
      9 C          -5.9177    1.1534    1.0664 C.ar    1  UNL1       -0.0445
     10 C          -5.6594    2.0586    2.0613 C.ar    1  UNL1       -0.0427
     11 C          -4.4056    2.5986    2.1568 C.ar    1  UNL1        0.0314
     12 N          -3.4398    2.2535    1.2956 N.ar    1  UNL1       -0.2204
     13 C          -3.6890    1.3731    0.3272 C.ar    1  UNL1        0.2312
     14 O          -2.6780    1.0303   -0.5513 O.3     1  UNL1       -0.4370
     15 C          -1.3910    1.5514   -0.4980 C.ar    1  UNL1        0.1350
     16 C          -0.3595    0.6748   -0.3104 C.ar    1  UNL1        0.0022
     17 C           0.9846    1.0286   -0.2335 C.ar    1  UNL1        0.0372
     18 N           1.9617    0.0306   -0.0369 N.am    1  UNL1       -0.2814
     19 C           3.3361    0.2309    0.0584 C.2     1  UNL1        0.2483
     20 O           3.8427    1.3765   -0.0278 O.2     1  UNL1       -0.2699
     21 C           4.2700   -0.8871    0.2650 C.ar    1  UNL1        0.0390
     22 C           3.8657   -2.1914    0.3792 C.ar    1  UNL1       -0.0495
     23 C           4.7589   -3.2489    0.5754 C.ar    1  UNL1       -0.0591
     24 C           6.0914   -2.9835    0.6582 C.ar    1  UNL1       -0.0378
     25 C           6.5415   -1.6785    0.5478 C.ar    1  UNL1        0.0467
     26 N           7.9571   -1.4733    0.6444 N.ar    1  UNL1       -0.3230
     27 C           8.9241   -2.2575    0.1480 C.ar    1  UNL1        0.0098
     28 C          10.1507   -1.7432    0.4363 C.ar    1  UNL1       -0.0438
     29 C           9.9149   -0.5906    1.1424 C.ar    1  UNL1       -0.0438
     30 C           8.5600   -0.4473    1.2566 C.ar    1  UNL1        0.0098
     31 C           5.6391   -0.6562    0.3549 C.ar    1  UNL1       -0.0257
     32 C           1.2485    2.3643   -0.3603 C.ar    1  UNL1       -0.0400
     33 C           0.1931    3.2850   -0.5549 C.ar    1  UNL1       -0.0536
     34 C          -1.1134    2.8759   -0.6223 C.ar    1  UNL1       -0.0080
     35 C          -2.1736    3.8639   -0.8270 C.3     1  UNL1       -0.0362
     36 N          -6.4250   -0.7049   -0.9844 N.ar    1  UNL1       -0.1946
     37 H          -9.7915   -2.5513   -0.8828 H       1  UNL1        0.0426
     38 H          -9.5788   -0.8202   -1.3935 H       1  UNL1        0.0426
     39 H          -8.5122   -1.4708   -0.1241 H       1  UNL1        0.0426
     40 H          -8.3223   -2.8428   -2.7484 H       1  UNL1        0.1486
     41 H          -3.8132   -1.7693   -3.4769 H       1  UNL1        0.1049
     42 H          -6.9054    0.6884    0.9425 H       1  UNL1        0.0627
     43 H          -6.4285    2.3319    2.7452 H       1  UNL1        0.0633
     44 H          -4.1240    3.3241    2.9205 H       1  UNL1        0.0831
     45 H          -0.6079   -0.3876   -0.2130 H       1  UNL1        0.0673
     46 H           1.5995   -0.9790    0.0462 H       1  UNL1        0.1551
     47 H           2.8431   -2.4816    0.3255 H       1  UNL1        0.0625
     48 H           4.4005   -4.2583    0.6599 H       1  UNL1        0.0618
     49 H           6.8073   -3.8026    0.8122 H       1  UNL1        0.0638
     50 H           8.7843   -3.1832   -0.4125 H       1  UNL1        0.0813
     51 H          11.1027   -2.1647    0.1609 H       1  UNL1        0.0633
     52 H          10.7095    0.0447    1.5130 H       1  UNL1        0.0633
     53 H           8.0918    0.3859    1.7730 H       1  UNL1        0.0813
     54 H           6.0240    0.3527    0.2727 H       1  UNL1        0.0646
     55 H           2.2387    2.7562   -0.3183 H       1  UNL1        0.0636
     56 H           0.4589    4.3392   -0.6499 H       1  UNL1        0.0622
     57 H          -1.8609    4.5721   -1.6512 H       1  UNL1        0.0279
     58 H          -2.3769    4.5149    0.0392 H       1  UNL1        0.0279
     59 H          -3.1076    3.3877   -1.2392 H       1  UNL1        0.0279
@<TRIPOS>BOND
     1     1     2    1
     2     2     3    1
     3     3     4   ar
     4     4     5   ar
     5     5     6   ar
     6     6     7   ar
     7     7     8    1
     8     8     9   ar
     9     9    10   ar
    10    10    11   ar
    11    11    12   ar
    12    12    13   ar
    13    13    14    1
    14    14    15    1
    15    15    16   ar
    16    16    17   ar
    17    17    18    1
    18    18    19   am
    19    19    20    2
    20    19    21    1
    21    21    22   ar
    22    22    23   ar
    23    23    24   ar
    24    24    25   ar
    25    25    26    1
    26    26    27   ar
    27    27    28   ar
    28    28    29   ar
    29    29    30   ar
    30    25    31   ar
    31    17    32   ar
    32    32    33   ar
    33    33    34   ar
    34    34    35    1
    35     7    36   ar
    36    36     3   ar
    37    13     8   ar
    38    34    15   ar
    39    31    21   ar
    40    30    26   ar
    41     1    37    1
    42     1    38    1
    43     1    39    1
    44     2    40    1
    45     5    41    1
    46     9    42    1
    47    10    43    1
    48    11    44    1
    49    16    45    1
    50    18    46    1
    51    22    47    1
    52    23    48    1
    53    24    49    1
    54    27    50    1
    55    28    51    1
    56    29    52    1
    57    30    53    1
    58    31    54    1
    59    32    55    1
    60    33    56    1
    61    35    57    1
    62    35    58    1
    63    35    59    1
