
     RDKit          3D

 41 44  0  0  0  0  0  0  0  0999 V2000
    4.3966   -1.6860    0.3930 C   0  0  0  0  0  0  0  0  0  0  0  0
    2.9855   -1.5962    0.2467 N   0  0  0  0  0  0  0  0  0  0  0  0
    2.2398   -1.3669    1.4436 C   0  0  0  0  0  0  0  0  0  0  0  0
    1.5865   -0.0060    1.4056 C   0  0  0  0  0  0  0  0  0  0  0  0
    0.6254    0.0636    0.3091 C   0  0  0  0  0  0  0  0  0  0  0  0
    1.4972    0.0263   -0.8912 C   0  0  0  0  0  0  0  0  0  0  0  0
    2.4636   -1.1014   -0.9490 C   0  0  0  0  0  0  0  0  0  0  0  0
   -0.6967    0.2233    0.3567 C   0  0  0  0  0  0  0  0  0  0  0  0
   -1.3153    0.3579    1.6840 C   0  0  0  0  0  0  0  0  0  0  0  0
   -2.3450    1.4085    1.8091 C   0  0  0  0  0  0  0  0  0  0  0  0
   -2.8124    1.2648    3.6237 S   0  0  0  0  0  0  0  0  0  0  0  0
   -1.6036   -0.1525    3.9844 C   0  0  0  0  0  0  0  0  0  0  0  0
   -0.9939   -0.3636    2.7443 C   0  0  0  0  0  0  0  0  0  0  0  0
   -2.9924    2.3870    0.8664 C   0  0  0  0  0  0  0  0  0  0  0  0
   -3.7259    3.0959    1.5907 O   0  0  0  0  0  0  0  0  0  0  0  0
   -2.8218    2.5025   -0.5610 C   0  0  0  0  0  0  0  0  0  0  0  0
   -2.2984    1.3048   -1.2147 C   0  0  0  0  0  0  0  0  0  0  0  0
   -2.8592    1.1788   -2.4990 C   0  0  0  0  0  0  0  0  0  0  0  0
   -2.5193    0.1191   -3.3424 C   0  0  0  0  0  0  0  0  0  0  0  0
   -1.6155   -0.8679   -2.9696 C   0  0  0  0  0  0  0  0  0  0  0  0
   -1.0167   -0.8315   -1.7357 C   0  0  0  0  0  0  0  0  0  0  0  0
   -1.4109    0.2635   -0.9521 C   0  0  0  0  0  0  0  0  0  0  0  0
    4.5986   -2.4622    1.1834 H   0  0  0  0  0  0  0  0  0  0  0  0
    4.8715   -0.7236    0.6539 H   0  0  0  0  0  0  0  0  0  0  0  0
    4.8087   -2.0349   -0.5803 H   0  0  0  0  0  0  0  0  0  0  0  0
    1.5911   -2.1899    1.7442 H   0  0  0  0  0  0  0  0  0  0  0  0
    3.0087   -1.2942    2.2665 H   0  0  0  0  0  0  0  0  0  0  0  0
    2.5129    0.6304    1.1264 H   0  0  0  0  0  0  0  0  0  0  0  0
    1.2350    0.3760    2.3714 H   0  0  0  0  0  0  0  0  0  0  0  0
    1.0030    0.2492   -1.8293 H   0  0  0  0  0  0  0  0  0  0  0  0
    2.1562    0.9781   -0.7542 H   0  0  0  0  0  0  0  0  0  0  0  0
    3.3234   -0.7431   -1.5935 H   0  0  0  0  0  0  0  0  0  0  0  0
    2.0098   -1.9360   -1.5248 H   0  0  0  0  0  0  0  0  0  0  0  0
   -1.3820   -0.7326    4.9597 H   0  0  0  0  0  0  0  0  0  0  0  0
   -0.2924   -1.1449    2.7006 H   0  0  0  0  0  0  0  0  0  0  0  0
   -3.8500    2.6919   -0.9981 H   0  0  0  0  0  0  0  0  0  0  0  0
   -2.1774    3.3702   -0.8652 H   0  0  0  0  0  0  0  0  0  0  0  0
   -3.5719    1.9022   -2.8698 H   0  0  0  0  0  0  0  0  0  0  0  0
   -2.9747    0.0477   -4.3427 H   0  0  0  0  0  0  0  0  0  0  0  0
   -1.3256   -1.6960   -3.5823 H   0  0  0  0  0  0  0  0  0  0  0  0
   -0.3124   -1.5122   -1.2777 H   0  0  0  0  0  0  0  0  0  0  0  0
  1  2  1  0
  2  3  1  0
  3  4  1  0
  4  5  1  0
  5  6  1  0
  6  7  1  0
  5  8  2  3
  8  9  1  0
  9 10  2  0
 10 11  1  0
 11 12  1  0
 12 13  2  0
 10 14  1  0
 14 15  2  0
 14 16  1  0
 16 17  1  0
 17 18  2  0
 18 19  1  0
 19 20  2  0
 20 21  1  0
 21 22  2  0
  7  2  1  0
 22  8  1  0
 13  9  1  0
 22 17  1  0
  1 23  1  0
  1 24  1  0
  1 25  1  0
  3 26  1  0
  3 27  1  0
  4 28  1  0
  4 29  1  0
  6 30  1  0
  6 31  1  0
  7 32  1  0
  7 33  1  0
 12 34  1  0
 13 35  1  0
 16 36  1  0
 16 37  1  0
 18 38  1  0
 19 39  1  0
 20 40  1  0
 21 41  1  0
M  END
$$$$
