@<TRIPOS>MOLECULE
*****
 67 71 0 0 0
SMALL
GASTEIGER

@<TRIPOS>ATOM
      1 C           2.2184   -6.0821    1.8306 C.3     1  UNL1        0.0365
      2 O           1.4754   -5.2399    2.6430 O.3     1  UNL1       -0.3814
      3 C           1.7533   -3.9077    2.4710 C.3     1  UNL1        0.0630
      4 C           1.4825   -3.4634    1.0739 C.3     1  UNL1        0.0384
      5 N           1.7775   -2.0314    0.9048 N.am    1  UNL1       -0.2950
      6 C           0.7350   -1.1015    1.1211 C.3     1  UNL1        0.0190
      7 C          -0.1339   -0.8220   -0.0989 C.3     1  UNL1       -0.0124
      8 C           0.6325   -0.2731   -1.2508 C.3     1  UNL1       -0.0465
      9 C          -0.3308   -0.0686   -2.3902 C.3     1  UNL1       -0.0399
     10 C          -1.7739   -0.1825   -1.9386 C.3     1  UNL1       -0.0008
     11 N          -1.9576    0.6726   -0.7847 N.3     1  UNL1       -0.2985
     12 C          -3.3148    0.7044   -0.3379 C.3     1  UNL1        0.0184
     13 C          -3.5506    1.6099    0.8390 C.3     1  UNL1       -0.0114
     14 C          -5.0248    1.7250    0.8195 C.ar    1  UNL1       -0.0427
     15 C          -5.9462    1.9412    1.8120 C.ar    1  UNL1       -0.0583
     16 C          -7.3127    2.0156    1.5553 C.ar    1  UNL1       -0.0615
     17 C          -7.7180    1.8631    0.2528 C.ar    1  UNL1       -0.0615
     18 C          -6.7777    1.6435   -0.7562 C.ar    1  UNL1       -0.0583
     19 C          -5.4345    1.5724   -0.4878 C.ar    1  UNL1       -0.0427
     20 C          -4.2538    1.3498   -1.3582 C.3     1  UNL1       -0.0114
     21 C          -1.1503    0.2138    0.3264 C.3     1  UNL1        0.0034
     22 C           3.0736   -1.6500    0.5183 C.2     1  UNL1        0.2467
     23 O           3.9622   -2.5364    0.3127 O.2     1  UNL1       -0.2700
     24 C           3.5218   -0.2737    0.3223 C.ar    1  UNL1        0.0375
     25 C           3.5395    0.6751    1.3207 C.ar    1  UNL1       -0.0490
     26 C           3.9823    1.9654    1.0517 C.ar    1  UNL1       -0.0533
     27 C           4.4162    2.3585   -0.1898 C.ar    1  UNL1       -0.0178
     28 C           4.8488    3.6541   -0.4168 C.ar    1  UNL1       -0.0540
     29 C           5.2704    3.9939   -1.6726 C.ar    1  UNL1       -0.0612
     30 C           5.2713    3.0735   -2.7082 C.ar    1  UNL1       -0.0612
     31 C           4.8363    1.7997   -2.4473 C.ar    1  UNL1       -0.0540
     32 C           4.4016    1.4096   -1.1975 C.ar    1  UNL1       -0.0172
     33 C           3.9648    0.1362   -0.9344 C.ar    1  UNL1       -0.0419
     34 H           1.9540   -7.1563    2.0505 H       1  UNL1        0.0523
     35 H           3.3020   -5.9924    2.0157 H       1  UNL1        0.0523
     36 H           1.9662   -5.9323    0.7456 H       1  UNL1        0.0523
     37 H           1.1068   -3.3443    3.1809 H       1  UNL1        0.0575
     38 H           2.8297   -3.7498    2.7670 H       1  UNL1        0.0575
     39 H           2.0966   -4.0114    0.3272 H       1  UNL1        0.0487
     40 H           0.4190   -3.6208    0.8409 H       1  UNL1        0.0487
     41 H           0.0466   -1.4957    1.9095 H       1  UNL1        0.0468
     42 H           1.0716   -0.0910    1.4672 H       1  UNL1        0.0468
     43 H          -0.7200   -1.7406   -0.3736 H       1  UNL1        0.0328
     44 H           1.3856   -1.0142   -1.5391 H       1  UNL1        0.0269
     45 H           1.0894    0.6862   -0.9125 H       1  UNL1        0.0269
     46 H          -0.1221   -0.8313   -3.1654 H       1  UNL1        0.0278
     47 H          -0.1438    0.9447   -2.8239 H       1  UNL1        0.0278
     48 H          -2.0890   -1.2209   -1.7894 H       1  UNL1        0.0427
     49 H          -2.4033    0.2571   -2.7544 H       1  UNL1        0.0427
     50 H          -3.7344   -0.2872   -0.1153 H       1  UNL1        0.0469
     51 H          -3.1667    1.1963    1.7922 H       1  UNL1        0.0328
     52 H          -3.0706    2.5953    0.6591 H       1  UNL1        0.0328
     53 H          -5.6646    2.0650    2.8481 H       1  UNL1        0.0620
     54 H          -8.0267    2.1925    2.3764 H       1  UNL1        0.0618
     55 H          -8.7745    1.9193    0.0476 H       1  UNL1        0.0618
     56 H          -7.1449    1.5319   -1.7576 H       1  UNL1        0.0620
     57 H          -3.8716    2.3255   -1.6970 H       1  UNL1        0.0328
     58 H          -4.4693    0.6531   -2.1924 H       1  UNL1        0.0328
     59 H          -0.6407    1.1413    0.7120 H       1  UNL1        0.0430
     60 H          -1.7881   -0.1485    1.1540 H       1  UNL1        0.0430
     61 H           3.2228    0.4288    2.3027 H       1  UNL1        0.0625
     62 H           4.0055    2.7397    1.8278 H       1  UNL1        0.0624
     63 H           4.8495    4.3763    0.3908 H       1  UNL1        0.0624
     64 H           5.6113    5.0121   -1.8515 H       1  UNL1        0.0618
     65 H           5.6060    3.3578   -3.6917 H       1  UNL1        0.0618
     66 H           4.8195    1.0523   -3.2202 H       1  UNL1        0.0624
     67 H           3.9643   -0.5834   -1.7366 H       1  UNL1        0.0631
@<TRIPOS>BOND
     1     1     2    1
     2     2     3    1
     3     3     4    1
     4     4     5    1
     5     5     6    1
     6     6     7    1
     7     7     8    1
     8     8     9    1
     9     9    10    1
    10    10    11    1
    11    11    12    1
    12    12    13    1
    13    13    14    1
    14    14    15   ar
    15    15    16   ar
    16    16    17   ar
    17    17    18   ar
    18    18    19   ar
    19    19    20    1
    20    11    21    1
    21     5    22   am
    22    22    23    2
    23    22    24    1
    24    24    25   ar
    25    25    26   ar
    26    26    27   ar
    27    27    28   ar
    28    28    29   ar
    29    29    30   ar
    30    30    31   ar
    31    31    32   ar
    32    32    33   ar
    33    21     7    1
    34    33    24   ar
    35    20    12    1
    36    32    27   ar
    37    19    14   ar
    38     1    34    1
    39     1    35    1
    40     1    36    1
    41     3    37    1
    42     3    38    1
    43     4    39    1
    44     4    40    1
    45     6    41    1
    46     6    42    1
    47     7    43    1
    48     8    44    1
    49     8    45    1
    50     9    46    1
    51     9    47    1
    52    10    48    1
    53    10    49    1
    54    12    50    1
    55    13    51    1
    56    13    52    1
    57    15    53    1
    58    16    54    1
    59    17    55    1
    60    18    56    1
    61    20    57    1
    62    20    58    1
    63    21    59    1
    64    21    60    1
    65    25    61    1
    66    26    62    1
    67    28    63    1
    68    29    64    1
    69    30    65    1
    70    31    66    1
    71    33    67    1
