@<TRIPOS>MOLECULE
*****
 49 51 0 0 0
SMALL
GASTEIGER

@<TRIPOS>ATOM
      1 N          -5.6551   -1.5345    0.8795 N.3     1  UNL1       -0.3272
      2 C          -4.6309   -0.4795    0.7749 C.3     1  UNL1        0.0049
      3 C          -4.0567   -0.3189    2.1433 C.3     1  UNL1       -0.0375
      4 C          -2.7161    0.3362    2.1643 C.3     1  UNL1       -0.0488
      5 C          -2.5097    0.9456    0.7459 C.3     1  UNL1       -0.0395
      6 C          -1.4165    1.9518    0.8004 C.3     1  UNL1       -0.0346
      7 C          -1.1671    2.6287   -0.5010 C.3     1  UNL1        0.0094
      8 N          -0.7464    1.8685   -1.6145 N.pl3   1  UNL1       -0.3426
      9 C           0.5476    1.3074   -1.7500 C.ar    1  UNL1        0.0485
     10 C           1.5245    1.5170   -0.8098 C.ar    1  UNL1       -0.0022
     11 C           2.8005    0.9908   -0.9529 C.ar    1  UNL1        0.1517
     12 F           3.7048    1.2979    0.0142 F       1  UNL1       -0.2034
     13 C           3.1233    0.2484   -2.0314 C.ar    1  UNL1        0.1450
     14 S           4.6608   -0.4947   -2.2597 S.O2    1  UNL1        0.0766
     15 O           4.7980   -0.9393   -3.7137 O.2     1  UNL1       -0.1498
     16 O           5.7726    0.5485   -2.0001 O.2     1  UNL1       -0.1498
     17 N           5.0071   -1.8219   -1.2654 N.pl3   1  UNL1       -0.1937
     18 C           5.0847   -1.7203    0.1565 C.ar    1  UNL1        0.1774
     19 N           5.0134   -1.0503    1.0935 N.ar    1  UNL1       -0.2321
     20 C           5.1523   -1.2988    2.3753 C.ar    1  UNL1        0.0369
     21 C           5.4387   -2.6145    2.6572 C.ar    1  UNL1       -0.0030
     22 S           5.4846   -3.3797    1.0727 S.2     1  UNL1       -0.0594
     23 C           2.1488    0.0200   -3.0059 C.ar    1  UNL1       -0.0121
     24 C           0.8847    0.5371   -2.8723 C.ar    1  UNL1        0.0638
     25 CL         -0.3457    0.2496   -4.1008 Cl      1  UNL1       -0.0816
     26 C          -2.2877   -0.2561   -0.1160 C.3     1  UNL1       -0.0488
     27 C          -3.6323   -0.9832   -0.2342 C.3     1  UNL1       -0.0375
     28 H          -6.5174   -1.1437    1.3646 H       1  UNL1        0.1185
     29 H          -5.9622   -1.7196   -0.0999 H       1  UNL1        0.1185
     30 H          -5.2024    0.4119    0.4161 H       1  UNL1        0.0458
     31 H          -3.9782   -1.3507    2.5871 H       1  UNL1        0.0280
     32 H          -4.7945    0.2236    2.7668 H       1  UNL1        0.0280
     33 H          -2.5948    1.1058    2.9329 H       1  UNL1        0.0268
     34 H          -1.9145   -0.4186    2.3120 H       1  UNL1        0.0268
     35 H          -3.4598    1.4496    0.5163 H       1  UNL1        0.0301
     36 H          -0.4895    1.5106    1.2646 H       1  UNL1        0.0283
     37 H          -1.6909    2.7668    1.5315 H       1  UNL1        0.0283
     38 H          -0.5382    3.5617   -0.3604 H       1  UNL1        0.0461
     39 H          -2.1725    3.0891   -0.7959 H       1  UNL1        0.0461
     40 H          -1.3966    1.6857   -2.4482 H       1  UNL1        0.1461
     41 H           1.3663    2.1106    0.0791 H       1  UNL1        0.0666
     42 H           5.1748   -2.7754   -1.7134 H       1  UNL1        0.1758
     43 H           5.0389   -0.4866    3.1243 H       1  UNL1        0.0835
     44 H           5.6064   -3.0866    3.6983 H       1  UNL1        0.0710
     45 H           2.3885   -0.5734   -3.8824 H       1  UNL1        0.0653
     46 H          -1.5861   -0.9380    0.4619 H       1  UNL1        0.0268
     47 H          -1.8221   -0.1157   -1.0748 H       1  UNL1        0.0268
     48 H          -3.9827   -0.8042   -1.2741 H       1  UNL1        0.0280
     49 H          -3.4545   -2.0588   -0.0625 H       1  UNL1        0.0280
@<TRIPOS>BOND
     1     1     2    1
     2     2     3    1
     3     3     4    1
     4     4     5    1
     5     5     6    1
     6     6     7    1
     7     7     8    1
     8     8     9    1
     9     9    10   ar
    10    10    11   ar
    11    11    12    1
    12    11    13   ar
    13    13    14    1
    14    14    15    2
    15    14    16    2
    16    14    17    1
    17    17    18    1
    18    18    19   ar
    19    19    20   ar
    20    20    21   ar
    21    21    22   ar
    22    13    23   ar
    23    23    24   ar
    24    24    25    1
    25     5    26    1
    26    26    27    1
    27    27     2    1
    28    24     9   ar
    29    22    18   ar
    30     1    28    1
    31     1    29    1
    32     2    30    1
    33     3    31    1
    34     3    32    1
    35     4    33    1
    36     4    34    1
    37     5    35    1
    38     6    36    1
    39     6    37    1
    40     7    38    1
    41     7    39    1
    42     8    40    1
    43    10    41    1
    44    17    42    1
    45    20    43    1
    46    21    44    1
    47    23    45    1
    48    26    46    1
    49    26    47    1
    50    27    48    1
    51    27    49    1
