
     RDKit          3D

 49 51  0  0  0  0  0  0  0  0999 V2000
   -5.6551   -1.5345    0.8795 N   0  0  0  0  0  0  0  0  0  0  0  0
   -4.6309   -0.4795    0.7749 C   0  0  1  0  0  0  0  0  0  0  0  0
   -4.0567   -0.3189    2.1433 C   0  0  0  0  0  0  0  0  0  0  0  0
   -2.7161    0.3362    2.1643 C   0  0  0  0  0  0  0  0  0  0  0  0
   -2.5097    0.9456    0.7459 C   0  0  1  0  0  0  0  0  0  0  0  0
   -1.4165    1.9518    0.8004 C   0  0  0  0  0  0  0  0  0  0  0  0
   -1.1671    2.6287   -0.5010 C   0  0  0  0  0  0  0  0  0  0  0  0
   -0.7464    1.8685   -1.6145 N   0  0  0  0  0  0  0  0  0  0  0  0
    0.5476    1.3074   -1.7500 C   0  0  0  0  0  0  0  0  0  0  0  0
    1.5245    1.5170   -0.8098 C   0  0  0  0  0  0  0  0  0  0  0  0
    2.8005    0.9908   -0.9529 C   0  0  0  0  0  0  0  0  0  0  0  0
    3.7048    1.2979    0.0142 F   0  0  0  0  0  0  0  0  0  0  0  0
    3.1233    0.2484   -2.0314 C   0  0  0  0  0  0  0  0  0  0  0  0
    4.6608   -0.4947   -2.2597 S   0  0  0  0  0  6  0  0  0  0  0  0
    4.7980   -0.9393   -3.7137 O   0  0  0  0  0  0  0  0  0  0  0  0
    5.7726    0.5485   -2.0001 O   0  0  0  0  0  0  0  0  0  0  0  0
    5.0071   -1.8219   -1.2654 N   0  0  0  0  0  0  0  0  0  0  0  0
    5.0847   -1.7203    0.1565 C   0  0  0  0  0  0  0  0  0  0  0  0
    5.0134   -1.0503    1.0935 N   0  0  0  0  0  0  0  0  0  0  0  0
    5.1523   -1.2988    2.3753 C   0  0  0  0  0  0  0  0  0  0  0  0
    5.4387   -2.6145    2.6572 C   0  0  0  0  0  0  0  0  0  0  0  0
    5.4846   -3.3797    1.0727 S   0  0  0  0  0  0  0  0  0  0  0  0
    2.1488    0.0200   -3.0059 C   0  0  0  0  0  0  0  0  0  0  0  0
    0.8847    0.5371   -2.8723 C   0  0  0  0  0  0  0  0  0  0  0  0
   -0.3457    0.2496   -4.1008 Cl  0  0  0  0  0  0  0  0  0  0  0  0
   -2.2877   -0.2561   -0.1160 C   0  0  0  0  0  0  0  0  0  0  0  0
   -3.6323   -0.9832   -0.2342 C   0  0  0  0  0  0  0  0  0  0  0  0
   -6.5174   -1.1437    1.3646 H   0  0  0  0  0  0  0  0  0  0  0  0
   -5.9622   -1.7196   -0.0999 H   0  0  0  0  0  0  0  0  0  0  0  0
   -5.2024    0.4119    0.4161 H   0  0  0  0  0  0  0  0  0  0  0  0
   -3.9782   -1.3507    2.5871 H   0  0  0  0  0  0  0  0  0  0  0  0
   -4.7945    0.2236    2.7668 H   0  0  0  0  0  0  0  0  0  0  0  0
   -2.5948    1.1058    2.9329 H   0  0  0  0  0  0  0  0  0  0  0  0
   -1.9145   -0.4186    2.3120 H   0  0  0  0  0  0  0  0  0  0  0  0
   -3.4598    1.4496    0.5163 H   0  0  0  0  0  0  0  0  0  0  0  0
   -0.4895    1.5106    1.2646 H   0  0  0  0  0  0  0  0  0  0  0  0
   -1.6909    2.7668    1.5315 H   0  0  0  0  0  0  0  0  0  0  0  0
   -0.5382    3.5617   -0.3604 H   0  0  0  0  0  0  0  0  0  0  0  0
   -2.1725    3.0891   -0.7959 H   0  0  0  0  0  0  0  0  0  0  0  0
   -1.3966    1.6857   -2.4482 H   0  0  0  0  0  0  0  0  0  0  0  0
    1.3663    2.1106    0.0791 H   0  0  0  0  0  0  0  0  0  0  0  0
    5.1748   -2.7754   -1.7134 H   0  0  0  0  0  0  0  0  0  0  0  0
    5.0389   -0.4866    3.1243 H   0  0  0  0  0  0  0  0  0  0  0  0
    5.6064   -3.0866    3.6983 H   0  0  0  0  0  0  0  0  0  0  0  0
    2.3885   -0.5734   -3.8824 H   0  0  0  0  0  0  0  0  0  0  0  0
   -1.5861   -0.9380    0.4619 H   0  0  0  0  0  0  0  0  0  0  0  0
   -1.8221   -0.1157   -1.0748 H   0  0  0  0  0  0  0  0  0  0  0  0
   -3.9827   -0.8042   -1.2741 H   0  0  0  0  0  0  0  0  0  0  0  0
   -3.4545   -2.0588   -0.0625 H   0  0  0  0  0  0  0  0  0  0  0  0
  1  2  1  0
  2  3  1  0
  3  4  1  0
  4  5  1  0
  5  6  1  0
  6  7  1  0
  7  8  1  0
  8  9  1  0
  9 10  2  0
 10 11  1  0
 11 12  1  0
 11 13  2  0
 13 14  1  0
 14 15  2  0
 14 16  2  0
 14 17  1  0
 17 18  1  0
 18 19  2  0
 19 20  1  0
 20 21  2  0
 21 22  1  0
 13 23  1  0
 23 24  2  0
 24 25  1  0
  5 26  1  0
 26 27  1  0
 27  2  1  0
 24  9  1  0
 22 18  1  0
  1 28  1  0
  1 29  1  0
  2 30  1  6
  3 31  1  0
  3 32  1  0
  4 33  1  0
  4 34  1  0
  5 35  1  6
  6 36  1  0
  6 37  1  0
  7 38  1  0
  7 39  1  0
  8 40  1  0
 10 41  1  0
 17 42  1  0
 20 43  1  0
 21 44  1  0
 23 45  1  0
 26 46  1  0
 26 47  1  0
 27 48  1  0
 27 49  1  0
M  END
$$$$
