@<TRIPOS>MOLECULE
*****
 48 52 0 0 0
SMALL
GASTEIGER

@<TRIPOS>ATOM
      1 N           0.5858   -0.3497   -1.4676 N.3     1  UNL1       -0.3266
      2 C           1.6577    0.3488   -0.7799 C.3     1  UNL1        0.0132
      3 C           1.0952    1.5157   -0.0583 C.3     1  UNL1       -0.0215
      4 C           0.0258    1.0366    0.9013 C.3     1  UNL1        0.0126
      5 N          -1.1504    0.5622    0.1938 N.3     1  UNL1       -0.2893
      6 C          -1.7305    1.6190   -0.6158 C.3     1  UNL1        0.0439
      7 C          -3.1236    1.0735   -0.8043 C.ar    1  UNL1        0.0839
      8 N          -4.2060    1.0237   -1.5920 N.ar    1  UNL1       -0.1683
      9 N          -5.1395    0.2595   -1.0362 N.ar    1  UNL1       -0.2212
     10 C          -6.3770   -0.1002   -1.4183 C.ar    1  UNL1        0.0329
     11 C          -7.1703   -0.9235   -0.6483 C.ar    1  UNL1       -0.0253
     12 C          -6.6936   -1.4010    0.5538 C.ar    1  UNL1        0.0314
     13 N          -5.4559   -1.0334    0.9226 N.ar    1  UNL1       -0.2358
     14 C          -4.6901   -0.2147    0.1383 C.ar    1  UNL1        0.1601
     15 C          -3.4149    0.2957    0.2928 C.ar    1  UNL1        0.0349
     16 C          -2.2117    0.3547    1.1629 C.3     1  UNL1        0.0300
     17 C           0.5381    0.0115    1.8629 C.3     1  UNL1       -0.0367
     18 C           1.9429   -0.4331    1.6140 C.3     1  UNL1       -0.0433
     19 C           2.3192   -0.5759    0.1755 C.3     1  UNL1        0.0022
     20 C           3.8134   -0.5913    0.0349 C.ar    1  UNL1       -0.0048
     21 C           4.5501    0.5510   -0.1848 C.ar    1  UNL1       -0.0174
     22 C           5.9339    0.5180   -0.3142 C.ar    1  UNL1        0.1588
     23 F           6.6459    1.6461   -0.5296 F       1  UNL1       -0.2025
     24 C           6.6271   -0.6672   -0.2273 C.ar    1  UNL1        0.1611
     25 F           7.9953   -0.7031   -0.3550 F       1  UNL1       -0.2024
     26 C           5.8993   -1.8150   -0.0079 C.ar    1  UNL1        0.0119
     27 C           4.5263   -1.7780    0.1200 C.ar    1  UNL1        0.1298
     28 F           3.7959   -2.9018    0.3366 F       1  UNL1       -0.2051
     29 H           0.2129   -1.1155   -0.8721 H       1  UNL1        0.1185
     30 H           0.8343   -0.6343   -2.4284 H       1  UNL1        0.1185
     31 H           2.4149    0.6351   -1.5460 H       1  UNL1        0.0465
     32 H           0.5990    2.2360   -0.7479 H       1  UNL1        0.0295
     33 H           1.8672    2.0451    0.4938 H       1  UNL1        0.0295
     34 H          -0.3069    1.9459    1.4454 H       1  UNL1        0.0463
     35 H          -1.8599    2.5542   -0.0334 H       1  UNL1        0.0492
     36 H          -1.2623    1.7484   -1.5872 H       1  UNL1        0.0492
     37 H          -6.7464    0.2761   -2.3607 H       1  UNL1        0.0831
     38 H          -8.1626   -1.2124   -0.9539 H       1  UNL1        0.0648
     39 H          -7.3208   -2.0494    1.1584 H       1  UNL1        0.0831
     40 H          -2.1298   -0.5792    1.7175 H       1  UNL1        0.0478
     41 H          -2.3179    1.2504    1.8138 H       1  UNL1        0.0478
     42 H          -0.1143   -0.8817    1.7886 H       1  UNL1        0.0280
     43 H           0.4126    0.3861    2.8974 H       1  UNL1        0.0280
     44 H           2.1586   -1.3817    2.1494 H       1  UNL1        0.0272
     45 H           2.6329    0.3171    2.0574 H       1  UNL1        0.0272
     46 H           2.0070   -1.6245   -0.1307 H       1  UNL1        0.0365
     47 H           4.0571    1.5027   -0.2618 H       1  UNL1        0.0651
     48 H           6.4363   -2.7463    0.0611 H       1  UNL1        0.0676
@<TRIPOS>BOND
     1     1     2    1
     2     2     3    1
     3     3     4    1
     4     4     5    1
     5     5     6    1
     6     6     7    1
     7     7     8   ar
     8     8     9   ar
     9     9    10   ar
    10    10    11   ar
    11    11    12   ar
    12    12    13   ar
    13    13    14   ar
    14    14    15   ar
    15    15    16    1
    16     4    17    1
    17    17    18    1
    18    18    19    1
    19    19    20    1
    20    20    21   ar
    21    21    22   ar
    22    22    23    1
    23    22    24   ar
    24    24    25    1
    25    24    26   ar
    26    26    27   ar
    27    27    28    1
    28    19     2    1
    29    27    20   ar
    30    16     5    1
    31    15     7   ar
    32    14     9   ar
    33     1    29    1
    34     1    30    1
    35     2    31    1
    36     3    32    1
    37     3    33    1
    38     4    34    1
    39     6    35    1
    40     6    36    1
    41    10    37    1
    42    11    38    1
    43    12    39    1
    44    16    40    1
    45    16    41    1
    46    17    42    1
    47    17    43    1
    48    18    44    1
    49    18    45    1
    50    19    46    1
    51    21    47    1
    52    26    48    1
