
     RDKit          3D

 48 52  0  0  0  0  0  0  0  0999 V2000
    0.5858   -0.3497   -1.4676 N   0  0  0  0  0  0  0  0  0  0  0  0
    1.6577    0.3488   -0.7799 C   0  0  1  0  0  0  0  0  0  0  0  0
    1.0952    1.5157   -0.0583 C   0  0  0  0  0  0  0  0  0  0  0  0
    0.0258    1.0366    0.9013 C   0  0  1  0  0  0  0  0  0  0  0  0
   -1.1504    0.5622    0.1938 N   0  0  0  0  0  0  0  0  0  0  0  0
   -1.7305    1.6190   -0.6158 C   0  0  0  0  0  0  0  0  0  0  0  0
   -3.1236    1.0735   -0.8043 C   0  0  0  0  0  0  0  0  0  0  0  0
   -4.2060    1.0237   -1.5920 N   0  0  0  0  0  0  0  0  0  0  0  0
   -5.1395    0.2595   -1.0362 N   0  0  0  0  0  0  0  0  0  0  0  0
   -6.3770   -0.1002   -1.4183 C   0  0  0  0  0  0  0  0  0  0  0  0
   -7.1703   -0.9235   -0.6483 C   0  0  0  0  0  0  0  0  0  0  0  0
   -6.6936   -1.4010    0.5538 C   0  0  0  0  0  0  0  0  0  0  0  0
   -5.4559   -1.0334    0.9226 N   0  0  0  0  0  0  0  0  0  0  0  0
   -4.6901   -0.2147    0.1383 C   0  0  0  0  0  0  0  0  0  0  0  0
   -3.4149    0.2957    0.2928 C   0  0  0  0  0  0  0  0  0  0  0  0
   -2.2117    0.3547    1.1629 C   0  0  0  0  0  0  0  0  0  0  0  0
    0.5381    0.0115    1.8629 C   0  0  0  0  0  0  0  0  0  0  0  0
    1.9429   -0.4331    1.6140 C   0  0  0  0  0  0  0  0  0  0  0  0
    2.3192   -0.5759    0.1755 C   0  0  2  0  0  0  0  0  0  0  0  0
    3.8134   -0.5913    0.0349 C   0  0  0  0  0  0  0  0  0  0  0  0
    4.5501    0.5510   -0.1848 C   0  0  0  0  0  0  0  0  0  0  0  0
    5.9339    0.5180   -0.3142 C   0  0  0  0  0  0  0  0  0  0  0  0
    6.6459    1.6461   -0.5296 F   0  0  0  0  0  0  0  0  0  0  0  0
    6.6271   -0.6672   -0.2273 C   0  0  0  0  0  0  0  0  0  0  0  0
    7.9953   -0.7031   -0.3550 F   0  0  0  0  0  0  0  0  0  0  0  0
    5.8993   -1.8150   -0.0079 C   0  0  0  0  0  0  0  0  0  0  0  0
    4.5263   -1.7780    0.1200 C   0  0  0  0  0  0  0  0  0  0  0  0
    3.7959   -2.9018    0.3366 F   0  0  0  0  0  0  0  0  0  0  0  0
    0.2129   -1.1155   -0.8721 H   0  0  0  0  0  0  0  0  0  0  0  0
    0.8343   -0.6343   -2.4284 H   0  0  0  0  0  0  0  0  0  0  0  0
    2.4149    0.6351   -1.5460 H   0  0  0  0  0  0  0  0  0  0  0  0
    0.5990    2.2360   -0.7479 H   0  0  0  0  0  0  0  0  0  0  0  0
    1.8672    2.0451    0.4938 H   0  0  0  0  0  0  0  0  0  0  0  0
   -0.3069    1.9459    1.4454 H   0  0  0  0  0  0  0  0  0  0  0  0
   -1.8599    2.5542   -0.0334 H   0  0  0  0  0  0  0  0  0  0  0  0
   -1.2623    1.7484   -1.5872 H   0  0  0  0  0  0  0  0  0  0  0  0
   -6.7464    0.2761   -2.3607 H   0  0  0  0  0  0  0  0  0  0  0  0
   -8.1626   -1.2124   -0.9539 H   0  0  0  0  0  0  0  0  0  0  0  0
   -7.3208   -2.0494    1.1584 H   0  0  0  0  0  0  0  0  0  0  0  0
   -2.1298   -0.5792    1.7175 H   0  0  0  0  0  0  0  0  0  0  0  0
   -2.3179    1.2504    1.8138 H   0  0  0  0  0  0  0  0  0  0  0  0
   -0.1143   -0.8817    1.7886 H   0  0  0  0  0  0  0  0  0  0  0  0
    0.4126    0.3861    2.8974 H   0  0  0  0  0  0  0  0  0  0  0  0
    2.1586   -1.3817    2.1494 H   0  0  0  0  0  0  0  0  0  0  0  0
    2.6329    0.3171    2.0574 H   0  0  0  0  0  0  0  0  0  0  0  0
    2.0070   -1.6245   -0.1307 H   0  0  0  0  0  0  0  0  0  0  0  0
    4.0571    1.5027   -0.2618 H   0  0  0  0  0  0  0  0  0  0  0  0
    6.4363   -2.7463    0.0611 H   0  0  0  0  0  0  0  0  0  0  0  0
  1  2  1  0
  2  3  1  0
  3  4  1  0
  4  5  1  0
  5  6  1  0
  6  7  1  0
  7  8  2  0
  8  9  1  0
  9 10  1  0
 10 11  2  0
 11 12  1  0
 12 13  2  0
 13 14  1  0
 14 15  2  0
 15 16  1  0
  4 17  1  0
 17 18  1  0
 18 19  1  0
 19 20  1  0
 20 21  2  0
 21 22  1  0
 22 23  1  0
 22 24  2  0
 24 25  1  0
 24 26  1  0
 26 27  2  0
 27 28  1  0
 19  2  1  0
 27 20  1  0
 16  5  1  0
 15  7  1  0
 14  9  1  0
  1 29  1  0
  1 30  1  0
  2 31  1  6
  3 32  1  0
  3 33  1  0
  4 34  1  1
  6 35  1  0
  6 36  1  0
 10 37  1  0
 11 38  1  0
 12 39  1  0
 16 40  1  0
 16 41  1  0
 17 42  1  0
 17 43  1  0
 18 44  1  0
 18 45  1  0
 19 46  1  6
 21 47  1  0
 26 48  1  0
M  END
$$$$
