
     RDKit          3D

 64 69  0  0  0  0  0  0  0  0999 V2000
   -2.8711   -0.3493   -2.4038 C   0  0  0  0  0  0  0  0  0  0  0  0
   -2.3302   -1.3259   -1.2025 C   0  0  2  0  0  0  0  0  0  0  0  0
   -2.8912   -0.5619   -0.1363 N   0  0  0  0  0  0  0  0  0  0  0  0
   -3.9310   -0.8646    0.7483 C   0  0  0  0  0  0  0  0  0  0  0  0
   -4.4308   -1.9956    0.7136 O   0  0  0  0  0  0  0  0  0  0  0  0
   -4.4280    0.1547    1.6916 C   0  0  0  0  0  0  0  0  0  0  0  0
   -4.9712    0.2392    2.8322 C   0  0  0  0  0  0  0  0  0  0  0  0
   -5.0130   -0.7849    3.9260 N   0  0  0  0  0  0  0  0  0  0  0  0
   -5.4726    1.4685    3.1156 N   0  0  0  0  0  0  0  0  0  0  0  0
   -5.2224    2.2453    2.0610 N   0  0  0  0  0  0  0  0  0  0  0  0
   -5.4440    3.5406    1.7176 C   0  0  0  0  0  0  0  0  0  0  0  0
   -5.0758    4.0779    0.5475 C   0  0  0  0  0  0  0  0  0  0  0  0
   -4.4218    3.3112   -0.4175 C   0  0  0  0  0  0  0  0  0  0  0  0
   -4.2226    2.0195   -0.0205 N   0  0  0  0  0  0  0  0  0  0  0  0
   -4.5712    1.4877    1.1208 C   0  0  0  0  0  0  0  0  0  0  0  0
   -0.8694   -1.2436   -1.4233 C   0  0  0  0  0  0  0  0  0  0  0  0
   -0.4604   -1.0498   -2.7643 C   0  0  0  0  0  0  0  0  0  0  0  0
    0.8233   -0.8721   -3.0808 C   0  0  0  0  0  0  0  0  0  0  0  0
    1.2479   -0.7699   -4.4076 C   0  0  0  0  0  0  0  0  0  0  0  0
    2.5359   -0.6710   -4.6997 C   0  0  0  0  0  0  0  0  0  0  0  0
    3.4999   -0.6247   -3.6908 C   0  0  0  0  0  0  0  0  0  0  0  0
    3.0960   -0.7171   -2.3261 C   0  0  0  0  0  0  0  0  0  0  0  0
    4.0836   -0.2550   -1.4119 C   0  0  0  0  0  0  0  0  0  0  0  0
    4.9493    0.1746   -0.6025 C   0  0  0  0  0  0  0  0  0  0  0  0
    5.8871    0.6269    0.2461 C   0  0  0  0  0  0  0  0  0  0  0  0
    6.8552    0.1338    1.0935 C   0  0  0  0  0  0  0  0  0  0  0  0
    7.7139    1.1220    1.4426 N   0  0  0  0  0  0  0  0  0  0  0  0
    7.3994    2.2592    0.8939 N   0  0  0  0  0  0  0  0  0  0  0  0
    8.0760    3.5790    0.8395 C   0  0  0  0  0  0  0  0  0  0  0  0
    6.3091    2.0219    0.1766 C   0  0  0  0  0  0  0  0  0  0  0  0
    1.7783   -0.8560   -2.0669 C   0  0  0  0  0  0  0  0  0  0  0  0
    1.3662   -1.0433   -0.7217 C   0  0  0  0  0  0  0  0  0  0  0  0
    2.2338   -1.0145    0.1446 O   0  0  0  0  0  0  0  0  0  0  0  0
    0.0641   -1.2318   -0.4717 N   0  0  0  0  0  0  0  0  0  0  0  0
   -0.3248   -1.8870    0.7735 C   0  0  0  0  0  0  0  0  0  0  0  0
   -0.2880   -3.2569    0.7164 C   0  0  0  0  0  0  0  0  0  0  0  0
   -0.4456   -4.1489    1.7494 C   0  0  0  0  0  0  0  0  0  0  0  0
   -0.6852   -3.5614    3.0420 C   0  0  0  0  0  0  0  0  0  0  0  0
   -0.7169   -2.2312    3.0772 C   0  0  0  0  0  0  0  0  0  0  0  0
   -0.5588   -1.3185    2.0178 C   0  0  0  0  0  0  0  0  0  0  0  0
   -2.1410    0.4402   -2.5193 H   0  0  0  0  0  0  0  0  0  0  0  0
   -3.1685   -0.8368   -3.2759 H   0  0  0  0  0  0  0  0  0  0  0  0
   -3.7736    0.1347   -1.9601 H   0  0  0  0  0  0  0  0  0  0  0  0
   -2.8240   -2.2750   -1.3681 H   0  0  0  0  0  0  0  0  0  0  0  0
   -2.4353    0.4003    0.0731 H   0  0  0  0  0  0  0  0  0  0  0  0
   -5.7910   -1.3873    4.0830 H   0  0  0  0  0  0  0  0  0  0  0  0
   -4.1336   -0.6790    4.4663 H   0  0  0  0  0  0  0  0  0  0  0  0
   -5.9325    4.1888    2.4711 H   0  0  0  0  0  0  0  0  0  0  0  0
   -5.2173    5.1138    0.2350 H   0  0  0  0  0  0  0  0  0  0  0  0
   -4.0994    3.6920   -1.3318 H   0  0  0  0  0  0  0  0  0  0  0  0
   -1.2159   -1.0385   -3.5606 H   0  0  0  0  0  0  0  0  0  0  0  0
    0.4096   -0.7869   -5.1591 H   0  0  0  0  0  0  0  0  0  0  0  0
    2.9546   -0.6552   -5.7375 H   0  0  0  0  0  0  0  0  0  0  0  0
    4.5431   -0.5778   -3.9039 H   0  0  0  0  0  0  0  0  0  0  0  0
    6.8711   -0.9096    1.3758 H   0  0  0  0  0  0  0  0  0  0  0  0
    7.7294    4.1217   -0.1042 H   0  0  0  0  0  0  0  0  0  0  0  0
    9.1715    3.4738    0.7020 H   0  0  0  0  0  0  0  0  0  0  0  0
    7.7700    4.2495    1.6575 H   0  0  0  0  0  0  0  0  0  0  0  0
    5.7503    2.7515   -0.4051 H   0  0  0  0  0  0  0  0  0  0  0  0
   -0.0922   -3.7156   -0.2907 H   0  0  0  0  0  0  0  0  0  0  0  0
   -0.4245   -5.2238    1.7001 H   0  0  0  0  0  0  0  0  0  0  0  0
   -0.7652   -4.2853    3.8330 H   0  0  0  0  0  0  0  0  0  0  0  0
   -0.8856   -1.7672    4.0917 H   0  0  0  0  0  0  0  0  0  0  0  0
   -0.5730   -0.2554    2.0883 H   0  0  0  0  0  0  0  0  0  0  0  0
  1  2  1  0
  2  3  1  0
  3  4  1  0
  4  5  2  0
  4  6  1  0
  6  7  1  0
  7  8  1  0
  7  9  2  0
  9 10  1  0
 10 11  1  0
 11 12  2  0
 12 13  1  0
 13 14  2  0
 14 15  1  0
  2 16  1  0
 16 17  2  0
 17 18  1  0
 18 19  2  0
 19 20  1  0
 20 21  2  0
 21 22  1  0
 22 23  1  0
 23 24  3  0
 24 25  1  0
 25 26  1  0
 26 27  2  0
 27 28  1  0
 28 29  1  0
 28 30  1  0
 22 31  2  0
 31 32  1  0
 32 33  2  0
 32 34  1  0
 34 35  1  0
 35 36  2  0
 36 37  1  0
 37 38  2  0
 38 39  1  0
 39 40  2  0
 15  6  2  0
 34 16  1  0
 40 35  1  0
 15 10  1  0
 31 18  1  0
 30 25  2  0
  1 41  1  0
  1 42  1  0
  1 43  1  0
  2 44  1  6
  3 45  1  0
  8 46  1  0
  8 47  1  0
 11 48  1  0
 12 49  1  0
 13 50  1  0
 17 51  1  0
 19 52  1  0
 20 53  1  0
 21 54  1  0
 26 55  1  0
 29 56  1  0
 29 57  1  0
 29 58  1  0
 30 59  1  0
 36 60  1  0
 37 61  1  0
 38 62  1  0
 39 63  1  0
 40 64  1  0
M  END
$$$$
