@<TRIPOS>MOLECULE
*****
 64 69 0 0 0
SMALL
GASTEIGER

@<TRIPOS>ATOM
      1 C          -2.8711   -0.3493   -2.4038 C.3     1  UNL1       -0.0411
      2 C          -2.3302   -1.3259   -1.2025 C.3     1  UNL1        0.0614
      3 N          -2.8912   -0.5619   -0.1363 N.am    1  UNL1       -0.3032
      4 C          -3.9310   -0.8646    0.7483 C.2     1  UNL1        0.2516
      5 O          -4.4308   -1.9956    0.7136 O.2     1  UNL1       -0.2699
      6 C          -4.4280    0.1547    1.6916 C.ar    1  UNL1        0.1218
      7 C          -4.9712    0.2392    2.8322 C.ar    1  UNL1        0.1529
      8 N          -5.0130   -0.7849    3.9260 N.pl3   1  UNL1       -0.3411
      9 N          -5.4726    1.4685    3.1156 N.ar    1  UNL1       -0.1495
     10 N          -5.2224    2.2453    2.0610 N.ar    1  UNL1       -0.2192
     11 C          -5.4440    3.5406    1.7176 C.ar    1  UNL1        0.0329
     12 C          -5.0758    4.0779    0.5475 C.ar    1  UNL1       -0.0253
     13 C          -4.4218    3.3112   -0.4175 C.ar    1  UNL1        0.0314
     14 N          -4.2226    2.0195   -0.0205 N.ar    1  UNL1       -0.2354
     15 C          -4.5712    1.4877    1.1208 C.ar    1  UNL1        0.1695
     16 C          -0.8694   -1.2436   -1.4233 C.ar    1  UNL1        0.0477
     17 C          -0.4604   -1.0498   -2.7643 C.ar    1  UNL1       -0.0321
     18 C           0.8233   -0.8721   -3.0808 C.ar    1  UNL1       -0.0098
     19 C           1.2479   -0.7699   -4.4076 C.ar    1  UNL1       -0.0537
     20 C           2.5359   -0.6710   -4.6997 C.ar    1  UNL1       -0.0600
     21 C           3.4999   -0.6247   -3.6908 C.ar    1  UNL1       -0.0455
     22 C           3.0960   -0.7171   -2.3261 C.ar    1  UNL1        0.0382
     23 C           4.0836   -0.2550   -1.4119 C.1     1  UNL1       -0.0602
     24 C           4.9493    0.1746   -0.6025 C.1     1  UNL1       -0.0579
     25 C           5.8871    0.6269    0.2461 C.ar    1  UNL1        0.0626
     26 C           6.8552    0.1338    1.0935 C.ar    1  UNL1        0.0648
     27 N           7.7139    1.1220    1.4426 N.ar    1  UNL1       -0.1787
     28 N           7.3994    2.2592    0.8939 N.ar    1  UNL1       -0.2733
     29 C           8.0760    3.5790    0.8395 C.3     1  UNL1        0.0302
     30 C           6.3091    2.0219    0.1766 C.ar    1  UNL1        0.0406
     31 C           1.7783   -0.8560   -2.0669 C.ar    1  UNL1        0.0624
     32 C           1.3662   -1.0433   -0.7217 C.ar    1  UNL1        0.2649
     33 O           2.2338   -1.0145    0.1446 O.2     1  UNL1       -0.2666
     34 N           0.0641   -1.2318   -0.4717 N.ar    1  UNL1       -0.2789
     35 C          -0.3248   -1.8870    0.7735 C.ar    1  UNL1        0.0498
     36 C          -0.2880   -3.2569    0.7164 C.ar    1  UNL1       -0.0377
     37 C          -0.4456   -4.1489    1.7494 C.ar    1  UNL1       -0.0598
     38 C          -0.6852   -3.5614    3.0420 C.ar    1  UNL1       -0.0616
     39 C          -0.7169   -2.2312    3.0772 C.ar    1  UNL1       -0.0598
     40 C          -0.5588   -1.3185    2.0178 C.ar    1  UNL1       -0.0377
     41 H          -2.1410    0.4402   -2.5193 H       1  UNL1        0.0251
     42 H          -3.1685   -0.8368   -3.2759 H       1  UNL1        0.0251
     43 H          -3.7736    0.1347   -1.9601 H       1  UNL1        0.0251
     44 H          -2.8240   -2.2750   -1.3681 H       1  UNL1        0.0560
     45 H          -2.4353    0.4003    0.0731 H       1  UNL1        0.1497
     46 H          -5.7910   -1.3873    4.0830 H       1  UNL1        0.1438
     47 H          -4.1336   -0.6790    4.4663 H       1  UNL1        0.1438
     48 H          -5.9325    4.1888    2.4711 H       1  UNL1        0.0831
     49 H          -5.2173    5.1138    0.2350 H       1  UNL1        0.0648
     50 H          -4.0994    3.6920   -1.3318 H       1  UNL1        0.0831
     51 H          -1.2159   -1.0385   -3.5606 H       1  UNL1        0.0642
     52 H           0.4096   -0.7869   -5.1591 H       1  UNL1        0.0624
     53 H           2.9546   -0.6552   -5.7375 H       1  UNL1        0.0618
     54 H           4.5431   -0.5778   -3.9039 H       1  UNL1        0.0630
     55 H           6.8711   -0.9096    1.3758 H       1  UNL1        0.0860
     56 H           7.7294    4.1217   -0.1042 H       1  UNL1        0.0473
     57 H           9.1715    3.4738    0.7020 H       1  UNL1        0.0473
     58 H           7.7700    4.2495    1.6575 H       1  UNL1        0.0473
     59 H           5.7503    2.7515   -0.4051 H       1  UNL1        0.0838
     60 H          -0.0922   -3.7156   -0.2907 H       1  UNL1        0.0638
     61 H          -0.4245   -5.2238    1.7001 H       1  UNL1        0.0618
     62 H          -0.7652   -4.2853    3.8330 H       1  UNL1        0.0618
     63 H          -0.8856   -1.7672    4.0917 H       1  UNL1        0.0618
     64 H          -0.5730   -0.2554    2.0883 H       1  UNL1        0.0638
@<TRIPOS>BOND
     1     1     2    1
     2     2     3    1
     3     3     4   am
     4     4     5    2
     5     4     6    1
     6     6     7   ar
     7     7     8    1
     8     7     9   ar
     9     9    10   ar
    10    10    11   ar
    11    11    12   ar
    12    12    13   ar
    13    13    14   ar
    14    14    15   ar
    15     2    16    1
    16    16    17   ar
    17    17    18   ar
    18    18    19   ar
    19    19    20   ar
    20    20    21   ar
    21    21    22   ar
    22    22    23    1
    23    23    24    3
    24    24    25    1
    25    25    26   ar
    26    26    27   ar
    27    27    28   ar
    28    28    29    1
    29    28    30   ar
    30    22    31   ar
    31    31    32   ar
    32    32    33    2
    33    32    34   ar
    34    34    35    1
    35    35    36   ar
    36    36    37   ar
    37    37    38   ar
    38    38    39   ar
    39    39    40   ar
    40    15     6   ar
    41    34    16   ar
    42    40    35   ar
    43    15    10   ar
    44    31    18   ar
    45    30    25   ar
    46     1    41    1
    47     1    42    1
    48     1    43    1
    49     2    44    1
    50     3    45    1
    51     8    46    1
    52     8    47    1
    53    11    48    1
    54    12    49    1
    55    13    50    1
    56    17    51    1
    57    19    52    1
    58    20    53    1
    59    21    54    1
    60    26    55    1
    61    29    56    1
    62    29    57    1
    63    29    58    1
    64    30    59    1
    65    36    60    1
    66    37    61    1
    67    38    62    1
    68    39    63    1
    69    40    64    1
