@<TRIPOS>MOLECULE
*****
 50 52 0 0 0
SMALL
GASTEIGER

@<TRIPOS>ATOM
      1 C          -3.8573   -1.0502    1.7069 C.3     1  UNL1       -0.0612
      2 C          -3.4100   -0.3045    0.4620 C.3     1  UNL1       -0.0294
      3 C          -1.9720   -0.5679    0.2030 C.2     1  UNL1       -0.0322
      4 C          -1.0997    0.4502    0.2124 C.2     1  UNL1       -0.0070
      5 C          -1.5205    1.8451    0.4613 C.ar    1  UNL1       -0.0168
      6 C          -2.4435    2.5149   -0.3010 C.ar    1  UNL1       -0.0506
      7 C          -2.8500    3.8048   -0.0535 C.ar    1  UNL1       -0.0196
      8 C          -2.2989    4.4673    1.0229 C.ar    1  UNL1        0.1169
      9 O          -2.7096    5.7745    1.2758 O.3     1  UNL1       -0.5068
     10 C          -1.3630    3.8301    1.8192 C.ar    1  UNL1       -0.0196
     11 C          -0.9750    2.5361    1.5467 C.ar    1  UNL1       -0.0506
     12 C           0.3096    0.1628    0.0016 C.ar    1  UNL1       -0.0170
     13 C           1.0303    0.9699   -0.8483 C.ar    1  UNL1       -0.0534
     14 C           2.3878    0.7263   -1.0424 C.ar    1  UNL1       -0.0540
     15 C           3.0463   -0.3031   -0.4101 C.ar    1  UNL1       -0.0248
     16 C           4.4577   -0.5784   -0.6019 C.2     1  UNL1       -0.0478
     17 C           5.2447    0.1178   -1.3971 C.2     1  UNL1        0.0229
     18 C           6.6697   -0.2350   -1.5295 C.2     1  UNL1        0.3296
     19 O           7.1127   -1.2125   -0.8669 O.2     1  UNL1       -0.2458
     20 O           7.5102    0.4788   -2.3556 O.3     1  UNL1       -0.4775
     21 C           2.3124   -1.0977    0.4345 C.ar    1  UNL1       -0.0540
     22 C           0.9604   -0.8629    0.6346 C.ar    1  UNL1       -0.0534
     23 C          -1.5044   -1.8967   -0.1686 C.ar    1  UNL1       -0.0213
     24 C          -1.7402   -3.0431    0.4889 C.ar    1  UNL1       -0.0543
     25 C          -1.2801   -4.2748    0.0158 C.ar    1  UNL1       -0.0612
     26 C          -0.5676   -4.3237   -1.1497 C.ar    1  UNL1       -0.0617
     27 C          -0.2977   -3.1740   -1.8635 C.ar    1  UNL1       -0.0612
     28 C          -0.7753   -1.9695   -1.3564 C.ar    1  UNL1       -0.0543
     29 H          -4.7086   -0.4793    2.2017 H       1  UNL1        0.0233
     30 H          -4.3116   -1.9939    1.4046 H       1  UNL1        0.0233
     31 H          -3.0461   -1.1329    2.4228 H       1  UNL1        0.0233
     32 H          -3.6405    0.7505    0.6089 H       1  UNL1        0.0311
     33 H          -4.0429   -0.6383   -0.4089 H       1  UNL1        0.0311
     34 H          -2.8780    2.0188   -1.1643 H       1  UNL1        0.0625
     35 H          -3.5785    4.3243   -0.6608 H       1  UNL1        0.0654
     36 H          -3.6839    6.0346    1.3830 H       1  UNL1        0.2921
     37 H          -0.9688    4.4019    2.6467 H       1  UNL1        0.0654
     38 H          -0.2390    2.0523    2.1830 H       1  UNL1        0.0625
     39 H           0.5645    1.7879   -1.3679 H       1  UNL1        0.0624
     40 H           2.9045    1.3772   -1.7093 H       1  UNL1        0.0624
     41 H           4.9020   -1.4005   -0.0666 H       1  UNL1        0.0626
     42 H           4.8586    0.9522   -1.9611 H       1  UNL1        0.0689
     43 H           8.5010    0.4942   -2.1493 H       1  UNL1        0.2954
     44 H           2.7939   -1.9195    0.9530 H       1  UNL1        0.0624
     45 H           0.4626   -1.5325    1.3323 H       1  UNL1        0.0624
     46 H          -2.2792   -3.0575    1.4109 H       1  UNL1        0.0624
     47 H          -1.5025   -5.1754    0.5920 H       1  UNL1        0.0618
     48 H          -0.1995   -5.2916   -1.5306 H       1  UNL1        0.0618
     49 H           0.2634   -3.2584   -2.7701 H       1  UNL1        0.0618
     50 H          -0.5486   -1.0988   -1.9544 H       1  UNL1        0.0624
@<TRIPOS>BOND
     1     1     2    1
     2     2     3    1
     3     3     4    2
     4     4     5    1
     5     5     6   ar
     6     6     7   ar
     7     7     8   ar
     8     8     9    1
     9     8    10   ar
    10    10    11   ar
    11     4    12    1
    12    12    13   ar
    13    13    14   ar
    14    14    15   ar
    15    15    16    1
    16    16    17    2
    17    17    18    1
    18    18    19    2
    19    18    20    1
    20    15    21   ar
    21    21    22   ar
    22     3    23    1
    23    23    24   ar
    24    24    25   ar
    25    25    26   ar
    26    26    27   ar
    27    27    28   ar
    28    11     5   ar
    29    22    12   ar
    30    28    23   ar
    31     1    29    1
    32     1    30    1
    33     1    31    1
    34     2    32    1
    35     2    33    1
    36     6    34    1
    37     7    35    1
    38     9    36    1
    39    10    37    1
    40    11    38    1
    41    13    39    1
    42    14    40    1
    43    16    41    1
    44    17    42    1
    45    20    43    1
    46    21    44    1
    47    22    45    1
    48    24    46    1
    49    25    47    1
    50    26    48    1
    51    27    49    1
    52    28    50    1
