@<TRIPOS>MOLECULE
*****
 73 78 0 0 0
SMALL
GASTEIGER

@<TRIPOS>ATOM
      1 C          -2.4758    7.4643    2.7582 C.3     1  UNL1        0.0804
      2 O          -2.0067    6.2149    2.3639 O.3     1  UNL1       -0.4795
      3 C          -1.8116    5.8029    1.0530 C.ar    1  UNL1        0.2191
      4 C          -1.3445    4.5409    0.8455 C.ar    1  UNL1        0.0404
      5 C          -1.1066    4.0063   -0.4155 C.ar    1  UNL1        0.1364
      6 N          -0.6191    2.6836   -0.5688 N.am    1  UNL1       -0.2240
      7 C           0.7589    2.2802   -0.6293 C.2     1  UNL1        0.3219
      8 O           1.6787    3.0614   -1.0106 O.2     1  UNL1       -0.2512
      9 N           0.8650    0.9260   -0.2045 N.am    1  UNL1       -0.1920
     10 C           2.0235    0.1098   -0.1008 C.ar    1  UNL1        0.0455
     11 C           1.9780   -1.1989    0.3042 C.ar    1  UNL1       -0.0392
     12 C           3.1271   -1.9480    0.3911 C.ar    1  UNL1       -0.0523
     13 C           4.3731   -1.4405    0.0825 C.ar    1  UNL1       -0.0178
     14 C           5.6030   -2.2222    0.1691 C.ar    1  UNL1       -0.0178
     15 C           6.7981   -1.5820    0.4857 C.ar    1  UNL1       -0.0533
     16 C           7.9822   -2.2872    0.5767 C.ar    1  UNL1       -0.0472
     17 C           8.0268   -3.6500    0.3578 C.ar    1  UNL1        0.0589
     18 C           9.2398   -4.4305    0.4404 C.2     1  UNL1        0.3368
     19 O          10.3270   -3.8846    0.7216 O.2     1  UNL1       -0.2451
     20 O           9.1997   -5.7867    0.2082 O.3     1  UNL1       -0.4771
     21 C           6.8319   -4.2540    0.0471 C.ar    1  UNL1       -0.0472
     22 C           5.6507   -3.5716   -0.0471 C.ar    1  UNL1       -0.0533
     23 C           4.4247   -0.1351   -0.3222 C.ar    1  UNL1       -0.0523
     24 C           3.2554    0.6373   -0.4138 C.ar    1  UNL1       -0.0392
     25 C          -0.4847    0.5386    0.1104 C.2     1  UNL1        0.2516
     26 O          -0.8513   -0.3765    0.9087 O.2     1  UNL1       -0.2724
     27 C          -1.3429    1.4404   -0.6993 C.3     1  UNL1        0.1240
     28 C          -1.3758    0.8948   -2.0971 C.3     1  UNL1       -0.0095
     29 C          -1.7793   -0.5815   -1.9684 C.3     1  UNL1        0.0017
     30 N          -2.8894   -0.7213   -1.0440 N.3     1  UNL1       -0.2965
     31 C          -3.7081   -1.8054   -1.4770 C.3     1  UNL1        0.0415
     32 C          -4.8778   -2.0649   -0.6468 C.ar    1  UNL1        0.0581
     33 N          -6.0954   -1.6855   -1.0684 N.ar    1  UNL1       -0.2583
     34 C          -7.2095   -1.9012   -0.3409 C.ar    1  UNL1        0.0279
     35 C          -7.1459   -2.5288    0.8841 C.ar    1  UNL1       -0.0433
     36 C          -5.9261   -2.9303    1.3489 C.ar    1  UNL1       -0.0557
     37 C          -4.7972   -2.6931    0.5745 C.ar    1  UNL1       -0.0279
     38 C          -3.4873   -3.1249    1.0762 C.3     1  UNL1       -0.0380
     39 C          -3.6099    0.5084   -0.9400 C.3     1  UNL1        0.0017
     40 C          -2.7536    1.5349   -0.1863 C.3     1  UNL1       -0.0095
     41 N          -1.3674    4.8189   -1.4558 N.ar    1  UNL1       -0.2200
     42 C          -1.8346    6.0815   -1.2516 C.ar    1  UNL1        0.1219
     43 N          -2.0554    6.5721   -0.0190 N.ar    1  UNL1       -0.2013
     44 H          -2.8419    7.3698    3.8136 H       1  UNL1        0.0660
     45 H          -1.6068    8.1746    2.7657 H       1  UNL1        0.0660
     46 H          -3.2702    7.7893    2.0626 H       1  UNL1        0.0660
     47 H          -1.1281    3.8693    1.6800 H       1  UNL1        0.0705
     48 H           1.0316   -1.6404    0.5535 H       1  UNL1        0.0636
     49 H           3.1173   -2.9943    0.7115 H       1  UNL1        0.0624
     50 H           6.8182   -0.4973    0.6696 H       1  UNL1        0.0624
     51 H           8.9011   -1.7733    0.8233 H       1  UNL1        0.0626
     52 H           9.9016   -6.4284    0.5810 H       1  UNL1        0.2954
     53 H           6.7945   -5.3379   -0.1400 H       1  UNL1        0.0626
     54 H           4.7145   -4.0853   -0.2973 H       1  UNL1        0.0624
     55 H           5.3983    0.2916   -0.5720 H       1  UNL1        0.0624
     56 H           3.4261    1.6447   -0.7409 H       1  UNL1        0.0636
     57 H          -0.3624    0.9003   -2.5183 H       1  UNL1        0.0303
     58 H          -2.0443    1.4345   -2.7700 H       1  UNL1        0.0303
     59 H          -0.8852   -1.0729   -1.4949 H       1  UNL1        0.0427
     60 H          -1.9492   -1.0435   -2.9393 H       1  UNL1        0.0427
     61 H          -4.0416   -1.5694   -2.5257 H       1  UNL1        0.0491
     62 H          -3.0881   -2.7261   -1.5892 H       1  UNL1        0.0491
     63 H          -8.1990   -1.5953   -0.6794 H       1  UNL1        0.0829
     64 H          -8.0340   -2.7064    1.4762 H       1  UNL1        0.0633
     65 H          -5.8190   -3.4354    2.3193 H       1  UNL1        0.0621
     66 H          -2.8492   -3.6012    0.3210 H       1  UNL1        0.0278
     67 H          -3.6089   -3.8746    1.9069 H       1  UNL1        0.0278
     68 H          -2.9687   -2.2552    1.5766 H       1  UNL1        0.0278
     69 H          -4.4952    0.3296   -0.2922 H       1  UNL1        0.0427
     70 H          -3.9781    0.9016   -1.8964 H       1  UNL1        0.0427
     71 H          -2.8536    1.3497    0.8832 H       1  UNL1        0.0303
     72 H          -3.2168    2.5202   -0.4029 H       1  UNL1        0.0303
     73 H          -2.0501    6.7497   -2.0858 H       1  UNL1        0.1049
@<TRIPOS>BOND
     1     1     2    1
     2     2     3    1
     3     3     4   ar
     4     4     5   ar
     5     5     6    1
     6     6     7   am
     7     7     8    2
     8     7     9   am
     9     9    10    1
    10    10    11   ar
    11    11    12   ar
    12    12    13   ar
    13    13    14    1
    14    14    15   ar
    15    15    16   ar
    16    16    17   ar
    17    17    18    1
    18    18    19    2
    19    18    20    1
    20    17    21   ar
    21    21    22   ar
    22    13    23   ar
    23    23    24   ar
    24     9    25   am
    25    25    26    2
    26    25    27    1
    27    27    28    1
    28    28    29    1
    29    29    30    1
    30    30    31    1
    31    31    32    1
    32    32    33   ar
    33    33    34   ar
    34    34    35   ar
    35    35    36   ar
    36    36    37   ar
    37    37    38    1
    38    30    39    1
    39    39    40    1
    40     5    41   ar
    41    41    42   ar
    42    42    43   ar
    43    43     3   ar
    44    27     6    1
    45    37    32   ar
    46    24    10   ar
    47    40    27    1
    48    22    14   ar
    49     1    44    1
    50     1    45    1
    51     1    46    1
    52     4    47    1
    53    11    48    1
    54    12    49    1
    55    15    50    1
    56    16    51    1
    57    20    52    1
    58    21    53    1
    59    22    54    1
    60    23    55    1
    61    24    56    1
    62    28    57    1
    63    28    58    1
    64    29    59    1
    65    29    60    1
    66    31    61    1
    67    31    62    1
    68    34    63    1
    69    35    64    1
    70    36    65    1
    71    38    66    1
    72    38    67    1
    73    38    68    1
    74    39    69    1
    75    39    70    1
    76    40    71    1
    77    40    72    1
    78    42    73    1
