
     RDKit          3D

 13 13  0  0  0  0  0  0  0  0999 V2000
   -1.8605    0.0063    0.0215 C   0  0  0  0  0  0  0  0  0  0  0  0
   -0.3919   -0.0492   -0.0005 N   0  0  0  0  0  0  0  0  0  0  0  0
    0.3616   -1.1634   -0.0197 C   0  0  0  0  0  0  0  0  0  0  0  0
    1.6908   -0.7227   -0.0360 C   0  0  0  0  0  0  0  0  0  0  0  0
    1.6335    0.6290   -0.0254 N   0  0  0  0  0  0  0  0  0  0  0  0
    0.3625    1.0516   -0.0036 C   0  0  0  0  0  0  0  0  0  0  0  0
   -0.1246    2.6114    0.0149 S   0  0  0  0  0  0  0  0  0  0  0  0
   -2.1992    0.7205    0.8136 H   0  0  0  0  0  0  0  0  0  0  0  0
   -2.2204   -1.0044    0.3386 H   0  0  0  0  0  0  0  0  0  0  0  0
   -2.2193    0.2852   -0.9953 H   0  0  0  0  0  0  0  0  0  0  0  0
   -0.0575   -2.1557   -0.0207 H   0  0  0  0  0  0  0  0  0  0  0  0
    2.5204   -1.4185   -0.0533 H   0  0  0  0  0  0  0  0  0  0  0  0
    2.5045    1.2098   -0.0340 H   0  0  0  0  0  0  0  0  0  0  0  0
  1  2  1  0
  2  3  1  0
  3  4  2  0
  4  5  1  0
  5  6  1  0
  6  7  2  0
  6  2  1  0
  1  8  1  0
  1  9  1  0
  1 10  1  0
  3 11  1  0
  4 12  1  0
  5 13  1  0
M  END
$$$$
