@<TRIPOS>MOLECULE
*****
 42 45 0 0 0
SMALL
GASTEIGER

@<TRIPOS>ATOM
      1 C          -5.3520   -1.8839    1.5132 C.3     1  UNL1       -0.0206
      2 C          -4.1115   -1.1118    1.7744 C.ar    1  UNL1        0.0616
      3 C          -3.6086   -0.1434    0.9181 C.ar    1  UNL1        0.0006
      4 C          -2.4536    0.3494    1.5040 C.ar    1  UNL1        0.1196
      5 N          -1.6628    1.3503    0.9180 N.pl3   1  UNL1       -0.2829
      6 C          -0.7133    0.9270   -0.0668 C.ar    1  UNL1        0.1525
      7 N          -0.0131   -0.1862    0.0731 N.ar    1  UNL1       -0.1520
      8 N           0.8399   -0.6416   -0.8633 N.ar    1  UNL1       -0.2228
      9 C           1.5253   -1.8485   -0.5105 C.3     1  UNL1        0.0731
     10 C           2.7860   -1.5899    0.2311 C.ar    1  UNL1        0.0119
     11 C           2.7324   -1.5004    1.6269 C.ar    1  UNL1       -0.0188
     12 C           3.8256   -1.1972    2.3949 C.ar    1  UNL1        0.1239
     13 F           3.6883   -1.1171    3.7430 F       1  UNL1       -0.2055
     14 C           5.0551   -0.9631    1.8114 C.ar    1  UNL1       -0.0237
     15 C           5.1350   -1.0467    0.4327 C.ar    1  UNL1       -0.0234
     16 C           3.9994   -1.3597   -0.3348 C.ar    1  UNL1        0.1285
     17 F           4.1690   -1.4493   -1.6724 F       1  UNL1       -0.2051
     18 C           1.0141    0.0171   -1.9816 C.ar    1  UNL1        0.2754
     19 O           1.7815   -0.3315   -2.9125 O.2     1  UNL1       -0.2655
     20 C           0.2875    1.2063   -2.1654 C.ar    1  UNL1        0.0514
     21 C           0.4356    1.9309   -3.3230 C.ar    1  UNL1       -0.0487
     22 C          -0.2716    3.0951   -3.5133 C.ar    1  UNL1       -0.0610
     23 C          -1.1378    3.5577   -2.5548 C.ar    1  UNL1       -0.0611
     24 C          -1.3012    2.8465   -1.3883 C.ar    1  UNL1       -0.0505
     25 C          -0.5862    1.6737   -1.2026 C.ar    1  UNL1        0.0291
     26 N          -2.2853   -0.2930    2.6408 N.ar    1  UNL1       -0.2637
     27 N          -3.2773   -1.1814    2.8253 N.ar    1  UNL1       -0.1775
     28 H          -5.3705   -2.8377    2.0684 H       1  UNL1        0.0293
     29 H          -6.2141   -1.2867    1.8772 H       1  UNL1        0.0293
     30 H          -5.3951   -2.0479    0.4133 H       1  UNL1        0.0293
     31 H          -4.0143    0.1812   -0.0219 H       1  UNL1        0.0670
     32 H          -1.7245    2.3450    1.1606 H       1  UNL1        0.1550
     33 H           0.8704   -2.5216    0.1191 H       1  UNL1        0.0560
     34 H           1.7529   -2.4213   -1.4388 H       1  UNL1        0.0560
     35 H           1.7829   -1.6830    2.0857 H       1  UNL1        0.0650
     36 H           5.9230   -0.7168    2.4302 H       1  UNL1        0.0647
     37 H           6.0973   -0.8679   -0.0373 H       1  UNL1        0.0647
     38 H           1.1093    1.6004   -4.1076 H       1  UNL1        0.0625
     39 H          -0.1477    3.6578   -4.4196 H       1  UNL1        0.0618
     40 H          -1.6677    4.4809   -2.7582 H       1  UNL1        0.0618
     41 H          -1.9773    3.1961   -0.6330 H       1  UNL1        0.0625
     42 H          -1.5247   -0.1880    3.3443 H       1  UNL1        0.1903
@<TRIPOS>BOND
     1     1     2    1
     2     2     3   ar
     3     3     4   ar
     4     4     5    1
     5     5     6    1
     6     6     7   ar
     7     7     8   ar
     8     8     9    1
     9     9    10    1
    10    10    11   ar
    11    11    12   ar
    12    12    13    1
    13    12    14   ar
    14    14    15   ar
    15    15    16   ar
    16    16    17    1
    17     8    18   ar
    18    18    19    2
    19    18    20   ar
    20    20    21   ar
    21    21    22   ar
    22    22    23   ar
    23    23    24   ar
    24    24    25   ar
    25     4    26   ar
    26    26    27   ar
    27    27     2   ar
    28    25     6   ar
    29    16    10   ar
    30    25    20   ar
    31     1    28    1
    32     1    29    1
    33     1    30    1
    34     3    31    1
    35     5    32    1
    36     9    33    1
    37     9    34    1
    38    11    35    1
    39    14    36    1
    40    15    37    1
    41    21    38    1
    42    22    39    1
    43    23    40    1
    44    24    41    1
    45    26    42    1
