
     RDKit          3D

 42 45  0  0  0  0  0  0  0  0999 V2000
   -5.3520   -1.8839    1.5132 C   0  0  0  0  0  0  0  0  0  0  0  0
   -4.1115   -1.1118    1.7744 C   0  0  0  0  0  0  0  0  0  0  0  0
   -3.6086   -0.1434    0.9181 C   0  0  0  0  0  0  0  0  0  0  0  0
   -2.4536    0.3494    1.5040 C   0  0  0  0  0  0  0  0  0  0  0  0
   -1.6628    1.3503    0.9180 N   0  0  0  0  0  0  0  0  0  0  0  0
   -0.7133    0.9270   -0.0668 C   0  0  0  0  0  0  0  0  0  0  0  0
   -0.0131   -0.1862    0.0731 N   0  0  0  0  0  0  0  0  0  0  0  0
    0.8399   -0.6416   -0.8633 N   0  0  0  0  0  0  0  0  0  0  0  0
    1.5253   -1.8485   -0.5105 C   0  0  0  0  0  0  0  0  0  0  0  0
    2.7860   -1.5899    0.2311 C   0  0  0  0  0  0  0  0  0  0  0  0
    2.7324   -1.5004    1.6269 C   0  0  0  0  0  0  0  0  0  0  0  0
    3.8256   -1.1972    2.3949 C   0  0  0  0  0  0  0  0  0  0  0  0
    3.6883   -1.1171    3.7430 F   0  0  0  0  0  0  0  0  0  0  0  0
    5.0551   -0.9631    1.8114 C   0  0  0  0  0  0  0  0  0  0  0  0
    5.1350   -1.0467    0.4327 C   0  0  0  0  0  0  0  0  0  0  0  0
    3.9994   -1.3597   -0.3348 C   0  0  0  0  0  0  0  0  0  0  0  0
    4.1690   -1.4493   -1.6724 F   0  0  0  0  0  0  0  0  0  0  0  0
    1.0141    0.0171   -1.9816 C   0  0  0  0  0  0  0  0  0  0  0  0
    1.7815   -0.3315   -2.9125 O   0  0  0  0  0  0  0  0  0  0  0  0
    0.2875    1.2063   -2.1654 C   0  0  0  0  0  0  0  0  0  0  0  0
    0.4356    1.9309   -3.3230 C   0  0  0  0  0  0  0  0  0  0  0  0
   -0.2716    3.0951   -3.5133 C   0  0  0  0  0  0  0  0  0  0  0  0
   -1.1378    3.5577   -2.5548 C   0  0  0  0  0  0  0  0  0  0  0  0
   -1.3012    2.8465   -1.3883 C   0  0  0  0  0  0  0  0  0  0  0  0
   -0.5862    1.6737   -1.2026 C   0  0  0  0  0  0  0  0  0  0  0  0
   -2.2853   -0.2930    2.6408 N   0  0  0  0  0  0  0  0  0  0  0  0
   -3.2773   -1.1814    2.8253 N   0  0  0  0  0  0  0  0  0  0  0  0
   -5.3705   -2.8377    2.0684 H   0  0  0  0  0  0  0  0  0  0  0  0
   -6.2141   -1.2867    1.8772 H   0  0  0  0  0  0  0  0  0  0  0  0
   -5.3951   -2.0479    0.4133 H   0  0  0  0  0  0  0  0  0  0  0  0
   -4.0143    0.1812   -0.0219 H   0  0  0  0  0  0  0  0  0  0  0  0
   -1.7245    2.3450    1.1606 H   0  0  0  0  0  0  0  0  0  0  0  0
    0.8704   -2.5216    0.1191 H   0  0  0  0  0  0  0  0  0  0  0  0
    1.7529   -2.4213   -1.4388 H   0  0  0  0  0  0  0  0  0  0  0  0
    1.7829   -1.6830    2.0857 H   0  0  0  0  0  0  0  0  0  0  0  0
    5.9230   -0.7168    2.4302 H   0  0  0  0  0  0  0  0  0  0  0  0
    6.0973   -0.8679   -0.0373 H   0  0  0  0  0  0  0  0  0  0  0  0
    1.1093    1.6004   -4.1076 H   0  0  0  0  0  0  0  0  0  0  0  0
   -0.1477    3.6578   -4.4196 H   0  0  0  0  0  0  0  0  0  0  0  0
   -1.6677    4.4809   -2.7582 H   0  0  0  0  0  0  0  0  0  0  0  0
   -1.9773    3.1961   -0.6330 H   0  0  0  0  0  0  0  0  0  0  0  0
   -1.5247   -0.1880    3.3443 H   0  0  0  0  0  0  0  0  0  0  0  0
  1  2  1  0
  2  3  1  0
  3  4  2  0
  4  5  1  0
  5  6  1  0
  6  7  2  0
  7  8  1  0
  8  9  1  0
  9 10  1  0
 10 11  2  0
 11 12  1  0
 12 13  1  0
 12 14  2  0
 14 15  1  0
 15 16  2  0
 16 17  1  0
  8 18  1  0
 18 19  2  0
 18 20  1  0
 20 21  2  0
 21 22  1  0
 22 23  2  0
 23 24  1  0
 24 25  2  0
  4 26  1  0
 26 27  1  0
 27  2  2  0
 25  6  1  0
 16 10  1  0
 25 20  1  0
  1 28  1  0
  1 29  1  0
  1 30  1  0
  3 31  1  0
  5 32  1  0
  9 33  1  0
  9 34  1  0
 11 35  1  0
 14 36  1  0
 15 37  1  0
 21 38  1  0
 22 39  1  0
 23 40  1  0
 24 41  1  0
 26 42  1  0
M  END
$$$$
