@<TRIPOS>MOLECULE
*****
 51 54 0 0 0
SMALL
GASTEIGER

@<TRIPOS>ATOM
      1 C          -6.6491   -1.2939    2.0251 C.3     1  UNL1        0.0365
      2 O          -5.6724   -0.4759    2.4508 O.3     1  UNL1       -0.3814
      3 C          -4.4489   -0.4487    1.9215 C.3     1  UNL1        0.0645
      4 C          -4.2740   -0.1190    0.4712 C.3     1  UNL1        0.0552
      5 C          -4.8801   -1.1801   -0.3734 C.3     1  UNL1       -0.0323
      6 C          -3.7356   -1.6195   -1.2822 C.3     1  UNL1       -0.0370
      7 C          -2.5014   -1.3262   -0.4231 C.3     1  UNL1        0.0209
      8 N          -2.8641   -0.1000    0.1854 N.3     1  UNL1       -0.1713
      9 S          -2.3897    1.2282   -0.7738 S.O2    1  UNL1        0.0612
     10 O          -2.9794    1.2042   -2.1534 O.2     1  UNL1       -0.1528
     11 O          -2.7814    2.5389   -0.1525 O.2     1  UNL1       -0.1528
     12 C          -0.6567    1.2190   -0.9440 C.ar    1  UNL1        0.1063
     13 C           0.0924    1.8963    0.0093 C.ar    1  UNL1       -0.0335
     14 C           1.4601    1.9047   -0.1030 C.ar    1  UNL1       -0.0377
     15 C           2.1327    1.2662   -1.1277 C.ar    1  UNL1        0.0481
     16 C           1.3950    0.5890   -2.0819 C.ar    1  UNL1        0.0502
     17 C           0.0091    0.5802   -1.9686 C.ar    1  UNL1       -0.0226
     18 C           2.2883   -0.0090   -3.0659 C.2     1  UNL1        0.2496
     19 O           2.0122   -0.6980   -4.0800 O.2     1  UNL1       -0.2817
     20 C           3.6418    0.3738   -2.6119 C.2     1  UNL1        0.2915
     21 O           4.7134    0.0655   -3.1749 O.2     1  UNL1       -0.2661
     22 N           3.5204    1.1562   -1.4205 N.am    1  UNL1       -0.2598
     23 C           4.6269    1.7153   -0.6781 C.3     1  UNL1        0.0452
     24 C           5.0995    0.7689    0.3548 C.ar    1  UNL1       -0.0296
     25 C           4.6161    0.7285    1.6378 C.ar    1  UNL1       -0.0561
     26 C           5.1009   -0.1795    2.5519 C.ar    1  UNL1       -0.0483
     27 C           6.0887   -1.0873    2.2277 C.ar    1  UNL1        0.0134
     28 I           6.8011   -2.4600    3.6594 I       1  UNL1       -0.0438
     29 C           6.5811   -1.0547    0.9405 C.ar    1  UNL1       -0.0483
     30 C           6.0869   -0.1316    0.0147 C.ar    1  UNL1       -0.0561
     31 H          -7.5511   -1.0810    2.7011 H       1  UNL1        0.0523
     32 H          -6.5072   -2.3772    2.1250 H       1  UNL1        0.0523
     33 H          -7.0775   -1.1009    1.0167 H       1  UNL1        0.0523
     34 H          -3.8538    0.3436    2.4770 H       1  UNL1        0.0576
     35 H          -3.8333   -1.3793    2.1098 H       1  UNL1        0.0576
     36 H          -4.6444    0.9054    0.2215 H       1  UNL1        0.0502
     37 H          -5.7685   -0.9033   -0.9445 H       1  UNL1        0.0282
     38 H          -5.1041   -2.0927    0.2342 H       1  UNL1        0.0282
     39 H          -3.7352   -2.7125   -1.4606 H       1  UNL1        0.0279
     40 H          -3.6477   -1.0352   -2.1947 H       1  UNL1        0.0279
     41 H          -2.3888   -2.1006    0.3715 H       1  UNL1        0.0444
     42 H          -1.5963   -1.2997   -1.0286 H       1  UNL1        0.0444
     43 H          -0.4067    2.3963    0.8092 H       1  UNL1        0.0638
     44 H           2.0240    2.4450    0.6605 H       1  UNL1        0.0637
     45 H          -0.5571    0.0559   -2.7091 H       1  UNL1        0.0645
     46 H           5.4893    1.9497   -1.3372 H       1  UNL1        0.0518
     47 H           4.3316    2.6727   -0.1948 H       1  UNL1        0.0518
     48 H           3.8383    1.4464    1.8861 H       1  UNL1        0.0621
     49 H           4.7162   -0.2055    3.5587 H       1  UNL1        0.0628
     50 H           7.3559   -1.7558    0.6609 H       1  UNL1        0.0628
     51 H           6.4825   -0.1146   -0.9982 H       1  UNL1        0.0621
@<TRIPOS>BOND
     1     1     2    1
     2     2     3    1
     3     3     4    1
     4     4     5    1
     5     5     6    1
     6     6     7    1
     7     7     8    1
     8     8     9    1
     9     9    10    2
    10     9    11    2
    11     9    12    1
    12    12    13   ar
    13    13    14   ar
    14    14    15   ar
    15    15    16   ar
    16    16    17   ar
    17    16    18    1
    18    18    19    2
    19    18    20    1
    20    20    21    2
    21    20    22   am
    22    22    23    1
    23    23    24    1
    24    24    25   ar
    25    25    26   ar
    26    26    27   ar
    27    27    28    1
    28    27    29   ar
    29    29    30   ar
    30     8     4    1
    31    17    12   ar
    32    30    24   ar
    33    22    15    1
    34     1    31    1
    35     1    32    1
    36     1    33    1
    37     3    34    1
    38     3    35    1
    39     4    36    1
    40     5    37    1
    41     5    38    1
    42     6    39    1
    43     6    40    1
    44     7    41    1
    45     7    42    1
    46    13    43    1
    47    14    44    1
    48    17    45    1
    49    23    46    1
    50    23    47    1
    51    25    48    1
    52    26    49    1
    53    29    50    1
    54    30    51    1
