
     RDKit          3D

 51 54  0  0  0  0  0  0  0  0999 V2000
   -6.6491   -1.2939    2.0251 C   0  0  0  0  0  0  0  0  0  0  0  0
   -5.6724   -0.4759    2.4508 O   0  0  0  0  0  0  0  0  0  0  0  0
   -4.4489   -0.4487    1.9215 C   0  0  0  0  0  0  0  0  0  0  0  0
   -4.2740   -0.1190    0.4712 C   0  0  2  0  0  0  0  0  0  0  0  0
   -4.8801   -1.1801   -0.3734 C   0  0  0  0  0  0  0  0  0  0  0  0
   -3.7356   -1.6195   -1.2822 C   0  0  0  0  0  0  0  0  0  0  0  0
   -2.5014   -1.3262   -0.4231 C   0  0  0  0  0  0  0  0  0  0  0  0
   -2.8641   -0.1000    0.1854 N   0  0  0  0  0  0  0  0  0  0  0  0
   -2.3897    1.2282   -0.7738 S   0  0  0  0  0  6  0  0  0  0  0  0
   -2.9794    1.2042   -2.1534 O   0  0  0  0  0  0  0  0  0  0  0  0
   -2.7814    2.5389   -0.1525 O   0  0  0  0  0  0  0  0  0  0  0  0
   -0.6567    1.2190   -0.9440 C   0  0  0  0  0  0  0  0  0  0  0  0
    0.0924    1.8963    0.0093 C   0  0  0  0  0  0  0  0  0  0  0  0
    1.4601    1.9047   -0.1030 C   0  0  0  0  0  0  0  0  0  0  0  0
    2.1327    1.2662   -1.1277 C   0  0  0  0  0  0  0  0  0  0  0  0
    1.3950    0.5890   -2.0819 C   0  0  0  0  0  0  0  0  0  0  0  0
    0.0091    0.5802   -1.9686 C   0  0  0  0  0  0  0  0  0  0  0  0
    2.2883   -0.0090   -3.0659 C   0  0  0  0  0  0  0  0  0  0  0  0
    2.0122   -0.6980   -4.0800 O   0  0  0  0  0  0  0  0  0  0  0  0
    3.6418    0.3738   -2.6119 C   0  0  0  0  0  0  0  0  0  0  0  0
    4.7134    0.0655   -3.1749 O   0  0  0  0  0  0  0  0  0  0  0  0
    3.5204    1.1562   -1.4205 N   0  0  0  0  0  0  0  0  0  0  0  0
    4.6269    1.7153   -0.6781 C   0  0  0  0  0  0  0  0  0  0  0  0
    5.0995    0.7689    0.3548 C   0  0  0  0  0  0  0  0  0  0  0  0
    4.6161    0.7285    1.6378 C   0  0  0  0  0  0  0  0  0  0  0  0
    5.1009   -0.1795    2.5519 C   0  0  0  0  0  0  0  0  0  0  0  0
    6.0887   -1.0873    2.2277 C   0  0  0  0  0  0  0  0  0  0  0  0
    6.8011   -2.4600    3.6594 I   0  0  0  0  0  0  0  0  0  0  0  0
    6.5811   -1.0547    0.9405 C   0  0  0  0  0  0  0  0  0  0  0  0
    6.0869   -0.1316    0.0147 C   0  0  0  0  0  0  0  0  0  0  0  0
   -7.5511   -1.0810    2.7011 H   0  0  0  0  0  0  0  0  0  0  0  0
   -6.5072   -2.3772    2.1250 H   0  0  0  0  0  0  0  0  0  0  0  0
   -7.0775   -1.1009    1.0167 H   0  0  0  0  0  0  0  0  0  0  0  0
   -3.8538    0.3436    2.4770 H   0  0  0  0  0  0  0  0  0  0  0  0
   -3.8333   -1.3793    2.1098 H   0  0  0  0  0  0  0  0  0  0  0  0
   -4.6444    0.9054    0.2215 H   0  0  0  0  0  0  0  0  0  0  0  0
   -5.7685   -0.9033   -0.9445 H   0  0  0  0  0  0  0  0  0  0  0  0
   -5.1041   -2.0927    0.2342 H   0  0  0  0  0  0  0  0  0  0  0  0
   -3.7352   -2.7125   -1.4606 H   0  0  0  0  0  0  0  0  0  0  0  0
   -3.6477   -1.0352   -2.1947 H   0  0  0  0  0  0  0  0  0  0  0  0
   -2.3888   -2.1006    0.3715 H   0  0  0  0  0  0  0  0  0  0  0  0
   -1.5963   -1.2997   -1.0286 H   0  0  0  0  0  0  0  0  0  0  0  0
   -0.4067    2.3963    0.8092 H   0  0  0  0  0  0  0  0  0  0  0  0
    2.0240    2.4450    0.6605 H   0  0  0  0  0  0  0  0  0  0  0  0
   -0.5571    0.0559   -2.7091 H   0  0  0  0  0  0  0  0  0  0  0  0
    5.4893    1.9497   -1.3372 H   0  0  0  0  0  0  0  0  0  0  0  0
    4.3316    2.6727   -0.1948 H   0  0  0  0  0  0  0  0  0  0  0  0
    3.8383    1.4464    1.8861 H   0  0  0  0  0  0  0  0  0  0  0  0
    4.7162   -0.2055    3.5587 H   0  0  0  0  0  0  0  0  0  0  0  0
    7.3559   -1.7558    0.6609 H   0  0  0  0  0  0  0  0  0  0  0  0
    6.4825   -0.1146   -0.9982 H   0  0  0  0  0  0  0  0  0  0  0  0
  1  2  1  0
  2  3  1  0
  3  4  1  0
  4  5  1  0
  5  6  1  0
  6  7  1  0
  7  8  1  0
  8  9  1  0
  9 10  2  0
  9 11  2  0
  9 12  1  0
 12 13  2  0
 13 14  1  0
 14 15  2  0
 15 16  1  0
 16 17  2  0
 16 18  1  0
 18 19  2  0
 18 20  1  0
 20 21  2  0
 20 22  1  0
 22 23  1  0
 23 24  1  0
 24 25  2  0
 25 26  1  0
 26 27  2  0
 27 28  1  0
 27 29  1  0
 29 30  2  0
  8  4  1  0
 17 12  1  0
 30 24  1  0
 22 15  1  0
  1 31  1  0
  1 32  1  0
  1 33  1  0
  3 34  1  0
  3 35  1  0
  4 36  1  1
  5 37  1  0
  5 38  1  0
  6 39  1  0
  6 40  1  0
  7 41  1  0
  7 42  1  0
 13 43  1  0
 14 44  1  0
 17 45  1  0
 23 46  1  0
 23 47  1  0
 25 48  1  0
 26 49  1  0
 29 50  1  0
 30 51  1  0
M  END
$$$$
