@<TRIPOS>MOLECULE
*****
 45 47 0 0 0
SMALL
GASTEIGER

@<TRIPOS>ATOM
      1 N           0.5471    5.9974   -1.3404 N.am    1  UNL1       -0.3131
      2 C           1.1575    4.7317   -1.1260 C.2     1  UNL1        0.3017
      3 O           2.3735    4.5254   -1.2030 O.2     1  UNL1       -0.2527
      4 N           0.2906    3.6431   -0.8023 N.am    1  UNL1       -0.2633
      5 C           0.8910    2.3494   -0.5808 C.ar    1  UNL1        0.0856
      6 S           2.6489    2.0095   -0.6830 S.2     1  UNL1       -0.0727
      7 C           2.5283    0.3189   -0.3029 C.ar    1  UNL1        0.0219
      8 C           3.6594   -0.6446   -0.2065 C.ar    1  UNL1       -0.0110
      9 C           4.9323   -0.1723   -0.4369 C.ar    1  UNL1       -0.0501
     10 C           6.0402   -0.9972   -0.3683 C.ar    1  UNL1       -0.0196
     11 C           5.8291   -2.3171   -0.0599 C.ar    1  UNL1        0.1169
     12 O           6.9148   -3.1710    0.0172 O.3     1  UNL1       -0.5068
     13 C           4.5731   -2.8127    0.1738 C.ar    1  UNL1       -0.0196
     14 C           3.4684   -1.9574    0.0983 C.ar    1  UNL1       -0.0501
     15 C           1.2203    0.1088   -0.1262 C.ar    1  UNL1       -0.0329
     16 C           0.3520    1.1278   -0.2609 C.ar    1  UNL1        0.0658
     17 C          -1.1240    1.0116   -0.0877 C.2     1  UNL1        0.2467
     18 O          -1.8902    1.9832   -0.2224 O.2     1  UNL1       -0.2701
     19 N          -1.6828   -0.2368    0.2400 N.am    1  UNL1       -0.3072
     20 C          -3.1199   -0.3855    0.4163 C.3     1  UNL1        0.0359
     21 C          -3.7039   -1.4078   -0.5318 C.3     1  UNL1       -0.0322
     22 C          -4.6852   -2.3181    0.1335 C.3     1  UNL1       -0.0387
     23 C          -5.5433   -1.6580    1.1619 C.3     1  UNL1       -0.0040
     24 N          -4.8600   -0.7314    2.0075 N.3     1  UNL1       -0.3142
     25 C          -3.4308   -0.8556    1.8245 C.3     1  UNL1        0.0144
     26 H           0.2313    6.5222   -0.4849 H       1  UNL1        0.1465
     27 H           0.4153    6.3908   -2.2762 H       1  UNL1        0.1465
     28 H          -0.7118    3.8080   -0.7377 H       1  UNL1        0.1569
     29 H           5.0455    0.8712   -0.6754 H       1  UNL1        0.0625
     30 H           7.0491   -0.6221   -0.5510 H       1  UNL1        0.0654
     31 H           7.6577   -3.0185   -0.6584 H       1  UNL1        0.2921
     32 H           4.3887   -3.8692    0.4223 H       1  UNL1        0.0654
     33 H           2.4683   -2.3016    0.2735 H       1  UNL1        0.0625
     34 H           0.8799   -0.9245    0.1329 H       1  UNL1        0.0637
     35 H          -1.0975   -1.0720    0.3631 H       1  UNL1        0.1493
     36 H          -3.6499    0.5627    0.2631 H       1  UNL1        0.0511
     37 H          -4.1519   -0.9277   -1.4373 H       1  UNL1        0.0284
     38 H          -2.8516   -2.0375   -0.9178 H       1  UNL1        0.0284
     39 H          -4.1627   -3.2245    0.5184 H       1  UNL1        0.0278
     40 H          -5.3785   -2.6917   -0.6760 H       1  UNL1        0.0278
     41 H          -5.9476   -2.4722    1.8303 H       1  UNL1        0.0424
     42 H          -6.4301   -1.1561    0.7129 H       1  UNL1        0.0424
     43 H          -5.1136    0.2597    1.7285 H       1  UNL1        0.1220
     44 H          -2.8567   -0.2930    2.5907 H       1  UNL1        0.0442
     45 H          -3.1702   -1.9452    1.8451 H       1  UNL1        0.0442
@<TRIPOS>BOND
     1     1     2   am
     2     2     3    2
     3     2     4   am
     4     4     5    1
     5     5     6   ar
     6     6     7   ar
     7     7     8    1
     8     8     9   ar
     9     9    10   ar
    10    10    11   ar
    11    11    12    1
    12    11    13   ar
    13    13    14   ar
    14     7    15   ar
    15    15    16   ar
    16    16    17    1
    17    17    18    2
    18    17    19   am
    19    19    20    1
    20    20    21    1
    21    21    22    1
    22    22    23    1
    23    23    24    1
    24    24    25    1
    25    16     5   ar
    26    25    20    1
    27    14     8   ar
    28     1    26    1
    29     1    27    1
    30     4    28    1
    31     9    29    1
    32    10    30    1
    33    12    31    1
    34    13    32    1
    35    14    33    1
    36    15    34    1
    37    19    35    1
    38    20    36    1
    39    21    37    1
    40    21    38    1
    41    22    39    1
    42    22    40    1
    43    23    41    1
    44    23    42    1
    45    24    43    1
    46    25    44    1
    47    25    45    1
