
     RDKit          3D

 45 47  0  0  0  0  0  0  0  0999 V2000
    0.5471    5.9974   -1.3404 N   0  0  0  0  0  0  0  0  0  0  0  0
    1.1575    4.7317   -1.1260 C   0  0  0  0  0  0  0  0  0  0  0  0
    2.3735    4.5254   -1.2030 O   0  0  0  0  0  0  0  0  0  0  0  0
    0.2906    3.6431   -0.8023 N   0  0  0  0  0  0  0  0  0  0  0  0
    0.8910    2.3494   -0.5808 C   0  0  0  0  0  0  0  0  0  0  0  0
    2.6489    2.0095   -0.6830 S   0  0  0  0  0  0  0  0  0  0  0  0
    2.5283    0.3189   -0.3029 C   0  0  0  0  0  0  0  0  0  0  0  0
    3.6594   -0.6446   -0.2065 C   0  0  0  0  0  0  0  0  0  0  0  0
    4.9323   -0.1723   -0.4369 C   0  0  0  0  0  0  0  0  0  0  0  0
    6.0402   -0.9972   -0.3683 C   0  0  0  0  0  0  0  0  0  0  0  0
    5.8291   -2.3171   -0.0599 C   0  0  0  0  0  0  0  0  0  0  0  0
    6.9148   -3.1710    0.0172 O   0  0  0  0  0  0  0  0  0  0  0  0
    4.5731   -2.8127    0.1738 C   0  0  0  0  0  0  0  0  0  0  0  0
    3.4684   -1.9574    0.0983 C   0  0  0  0  0  0  0  0  0  0  0  0
    1.2203    0.1088   -0.1262 C   0  0  0  0  0  0  0  0  0  0  0  0
    0.3520    1.1278   -0.2609 C   0  0  0  0  0  0  0  0  0  0  0  0
   -1.1240    1.0116   -0.0877 C   0  0  0  0  0  0  0  0  0  0  0  0
   -1.8902    1.9832   -0.2224 O   0  0  0  0  0  0  0  0  0  0  0  0
   -1.6828   -0.2368    0.2400 N   0  0  0  0  0  0  0  0  0  0  0  0
   -3.1199   -0.3855    0.4163 C   0  0  1  0  0  0  0  0  0  0  0  0
   -3.7039   -1.4078   -0.5318 C   0  0  0  0  0  0  0  0  0  0  0  0
   -4.6852   -2.3181    0.1335 C   0  0  0  0  0  0  0  0  0  0  0  0
   -5.5433   -1.6580    1.1619 C   0  0  0  0  0  0  0  0  0  0  0  0
   -4.8600   -0.7314    2.0075 N   0  0  0  0  0  0  0  0  0  0  0  0
   -3.4308   -0.8556    1.8245 C   0  0  0  0  0  0  0  0  0  0  0  0
    0.2313    6.5222   -0.4849 H   0  0  0  0  0  0  0  0  0  0  0  0
    0.4153    6.3908   -2.2762 H   0  0  0  0  0  0  0  0  0  0  0  0
   -0.7118    3.8080   -0.7377 H   0  0  0  0  0  0  0  0  0  0  0  0
    5.0455    0.8712   -0.6754 H   0  0  0  0  0  0  0  0  0  0  0  0
    7.0491   -0.6221   -0.5510 H   0  0  0  0  0  0  0  0  0  0  0  0
    7.6577   -3.0185   -0.6584 H   0  0  0  0  0  0  0  0  0  0  0  0
    4.3887   -3.8692    0.4223 H   0  0  0  0  0  0  0  0  0  0  0  0
    2.4683   -2.3016    0.2735 H   0  0  0  0  0  0  0  0  0  0  0  0
    0.8799   -0.9245    0.1329 H   0  0  0  0  0  0  0  0  0  0  0  0
   -1.0975   -1.0720    0.3631 H   0  0  0  0  0  0  0  0  0  0  0  0
   -3.6499    0.5627    0.2631 H   0  0  0  0  0  0  0  0  0  0  0  0
   -4.1519   -0.9277   -1.4373 H   0  0  0  0  0  0  0  0  0  0  0  0
   -2.8516   -2.0375   -0.9178 H   0  0  0  0  0  0  0  0  0  0  0  0
   -4.1627   -3.2245    0.5184 H   0  0  0  0  0  0  0  0  0  0  0  0
   -5.3785   -2.6917   -0.6760 H   0  0  0  0  0  0  0  0  0  0  0  0
   -5.9476   -2.4722    1.8303 H   0  0  0  0  0  0  0  0  0  0  0  0
   -6.4301   -1.1561    0.7129 H   0  0  0  0  0  0  0  0  0  0  0  0
   -5.1136    0.2597    1.7285 H   0  0  0  0  0  0  0  0  0  0  0  0
   -2.8567   -0.2930    2.5907 H   0  0  0  0  0  0  0  0  0  0  0  0
   -3.1702   -1.9452    1.8451 H   0  0  0  0  0  0  0  0  0  0  0  0
  1  2  1  0
  2  3  2  0
  2  4  1  0
  4  5  1  0
  5  6  1  0
  6  7  1  0
  7  8  1  0
  8  9  2  0
  9 10  1  0
 10 11  2  0
 11 12  1  0
 11 13  1  0
 13 14  2  0
  7 15  2  0
 15 16  1  0
 16 17  1  0
 17 18  2  0
 17 19  1  0
 19 20  1  0
 20 21  1  0
 21 22  1  0
 22 23  1  0
 23 24  1  0
 24 25  1  0
 16  5  2  0
 25 20  1  0
 14  8  1  0
  1 26  1  0
  1 27  1  0
  4 28  1  0
  9 29  1  0
 10 30  1  0
 12 31  1  0
 13 32  1  0
 14 33  1  0
 15 34  1  0
 19 35  1  0
 20 36  1  6
 21 37  1  0
 21 38  1  0
 22 39  1  0
 22 40  1  0
 23 41  1  0
 23 42  1  0
 24 43  1  0
 25 44  1  0
 25 45  1  0
M  END
$$$$
