@<TRIPOS>MOLECULE
*****
 16 16 0 0 0
SMALL
GASTEIGER

@<TRIPOS>ATOM
      1 O           2.6945   -0.8191   -0.8038 O.3     1  UNL1       -0.4793
      2 C           1.8686   -0.1454    0.1074 C.2     1  UNL1        0.3253
      3 OXT         2.6891   -0.0204    1.0751 O.2     1  UNL1       -0.2489
      4 CA          0.4844    0.3143    0.0560 C.3     1  UNL1        0.1206
      5 C          -0.4432   -0.3834    1.0432 C.3     1  UNL1       -0.0159
      6 C          -1.7387    0.3173    0.6234 C.3     1  UNL1        0.0262
      7 C          -1.6012    0.1296   -0.8659 C.2     1  UNL1        0.2137
      8 O          -2.6459    0.0915   -1.5913 O.2     1  UNL1       -0.2758
      9 N          -0.2006    0.0224   -1.1942 N.am    1  UNL1       -0.3023
     10 H           3.4945   -0.3592   -1.2640 H       1  UNL1        0.2951
     11 HA          0.3867    1.4198    0.2423 H       1  UNL1        0.0614
     12 H          -0.1818   -0.1777    2.0946 H       1  UNL1        0.0293
     13 H          -0.5732   -1.4428    0.7947 H       1  UNL1        0.0293
     14 H          -2.6352   -0.1330    1.0360 H       1  UNL1        0.0359
     15 H          -1.6176    1.4131    0.8451 H       1  UNL1        0.0359
     16 H           0.0197   -0.2270   -2.1987 H       1  UNL1        0.1495
@<TRIPOS>BOND
     1     1     2    1
     2     2     3    2
     3     2     4    1
     4     4     5    1
     5     5     6    1
     6     6     7    1
     7     7     8    2
     8     7     9   am
     9     9     4    1
    10     1    10    1
    11     4    11    1
    12     5    12    1
    13     5    13    1
    14     6    14    1
    15     6    15    1
    16     9    16    1
