@<TRIPOS>MOLECULE
*****
 61 66 0 0 0
SMALL
GASTEIGER

@<TRIPOS>ATOM
      1 C           8.4534   -1.8837   -0.2688 C.ar    1  UNL1       -0.0591
      2 C           7.3715   -1.2916   -0.9229 C.ar    1  UNL1       -0.0532
      3 C           6.6633   -0.2574   -0.3437 C.ar    1  UNL1       -0.0037
      4 C           5.5243    0.3693   -1.0256 C.ar    1  UNL1        0.0466
      5 C           5.5206    1.4396   -1.8792 C.ar    1  UNL1        0.0597
      6 N           4.2567    1.6538   -2.2528 N.ar    1  UNL1       -0.1727
      7 N           3.4867    0.7602   -1.6646 N.ar    1  UNL1       -0.2206
      8 C           2.1393    0.5312   -1.6977 C.ar    1  UNL1        0.0406
      9 C           1.5141   -0.4604   -1.0072 C.ar    1  UNL1        0.0184
     10 C           0.0720   -0.6431   -1.0938 C.ar    1  UNL1       -0.0148
     11 C          -0.4746   -1.9022   -0.9704 C.ar    1  UNL1       -0.0505
     12 C          -1.8279   -2.1248   -1.0462 C.ar    1  UNL1       -0.0194
     13 C          -2.7266   -1.0671   -1.2552 C.ar    1  UNL1        0.1206
     14 O          -4.0490   -1.3449   -1.3243 O.3     1  UNL1       -0.4907
     15 C          -5.1651   -0.5668   -1.4902 C.3     1  UNL1        0.1022
     16 C          -5.4576    0.4137   -0.4113 C.3     1  UNL1        0.0331
     17 N          -5.6681   -0.2093    0.8836 N.3     1  UNL1       -0.2991
     18 C          -6.8900   -0.9896    0.9094 C.3     1  UNL1       -0.0010
     19 C          -8.1044   -0.1740    0.6208 C.3     1  UNL1       -0.0402
     20 C          -8.1502    1.1814    1.2268 C.3     1  UNL1       -0.0507
     21 C          -6.8391    1.8079    1.5506 C.3     1  UNL1       -0.0402
     22 C          -5.7300    0.8609    1.8618 C.3     1  UNL1       -0.0010
     23 C          -2.1741    0.1786   -1.3771 C.ar    1  UNL1       -0.0194
     24 C          -0.8162    0.3868   -1.2988 C.ar    1  UNL1       -0.0505
     25 C           2.3068   -1.2925   -0.2167 C.ar    1  UNL1        0.0391
     26 N           3.6295   -1.0604   -0.1900 N.ar    1  UNL1       -0.2350
     27 C           4.2224   -0.0565   -0.8955 C.ar    1  UNL1        0.1632
     28 C           7.0475    0.1815    0.8998 C.ar    1  UNL1        0.0082
     29 C           6.3482    1.2143    1.4887 C.ar    1  UNL1       -0.0506
     30 C           6.7704    1.6251    2.7430 C.ar    1  UNL1       -0.0430
     31 C           7.8454    1.0139    3.3573 C.ar    1  UNL1        0.0283
     32 N           8.5261   -0.0019    2.7676 N.ar    1  UNL1       -0.2550
     33 C           8.1282   -0.4125    1.5497 C.ar    1  UNL1        0.0715
     34 C           8.8356   -1.4458    0.9709 C.ar    1  UNL1       -0.0357
     35 H           9.0115   -2.6921   -0.7170 H       1  UNL1        0.0618
     36 H           7.0994   -1.6628   -1.8986 H       1  UNL1        0.0624
     37 H           6.4199    1.9979   -2.1799 H       1  UNL1        0.0855
     38 H           1.5469    1.2047   -2.3289 H       1  UNL1        0.0837
     39 H           0.2109   -2.7272   -0.8089 H       1  UNL1        0.0625
     40 H          -2.2563   -3.1269   -0.9474 H       1  UNL1        0.0654
     41 H          -6.0502   -1.2339   -1.7082 H       1  UNL1        0.0709
     42 H          -5.1136    0.0522   -2.4494 H       1  UNL1        0.0709
     43 H          -6.3360    1.0189   -0.7224 H       1  UNL1        0.0460
     44 H          -4.6333    1.1151   -0.2820 H       1  UNL1        0.0460
     45 H          -6.8368   -1.8360    0.2256 H       1  UNL1        0.0427
     46 H          -6.9850   -1.3945    1.9412 H       1  UNL1        0.0427
     47 H          -8.1760   -0.0306   -0.4970 H       1  UNL1        0.0278
     48 H          -9.0489   -0.7069    0.8854 H       1  UNL1        0.0278
     49 H          -8.7961    1.8604    0.5890 H       1  UNL1        0.0266
     50 H          -8.7426    1.1077    2.1877 H       1  UNL1        0.0266
     51 H          -6.9619    2.4854    2.4480 H       1  UNL1        0.0278
     52 H          -6.4782    2.4870    0.7389 H       1  UNL1        0.0278
     53 H          -4.7566    1.3746    1.8773 H       1  UNL1        0.0427
     54 H          -5.9508    0.3684    2.8537 H       1  UNL1        0.0427
     55 H          -2.7704    1.0568   -1.5584 H       1  UNL1        0.0654
     56 H          -0.4267    1.3839   -1.4003 H       1  UNL1        0.0625
     57 H           1.8103   -2.0763    0.3286 H       1  UNL1        0.0837
     58 H           5.5096    1.6642    0.9678 H       1  UNL1        0.0625
     59 H           6.2697    2.4207    3.2512 H       1  UNL1        0.0633
     60 H           8.1711    1.3473    4.3487 H       1  UNL1        0.0830
     61 H           9.6808   -1.8918    1.5093 H       1  UNL1        0.0639
@<TRIPOS>BOND
     1     1     2   ar
     2     2     3   ar
     3     3     4    1
     4     4     5   ar
     5     5     6   ar
     6     6     7   ar
     7     7     8   ar
     8     8     9   ar
     9     9    10    1
    10    10    11   ar
    11    11    12   ar
    12    12    13   ar
    13    13    14    1
    14    14    15    1
    15    15    16    1
    16    16    17    1
    17    17    18    1
    18    18    19    1
    19    19    20    1
    20    20    21    1
    21    21    22    1
    22    13    23   ar
    23    23    24   ar
    24     9    25   ar
    25    25    26   ar
    26    26    27   ar
    27     3    28   ar
    28    28    29   ar
    29    29    30   ar
    30    30    31   ar
    31    31    32   ar
    32    32    33   ar
    33    33    34   ar
    34    34     1   ar
    35    27     4   ar
    36    33    28   ar
    37    27     7   ar
    38    24    10   ar
    39    22    17    1
    40     1    35    1
    41     2    36    1
    42     5    37    1
    43     8    38    1
    44    11    39    1
    45    12    40    1
    46    15    41    1
    47    15    42    1
    48    16    43    1
    49    16    44    1
    50    18    45    1
    51    18    46    1
    52    19    47    1
    53    19    48    1
    54    20    49    1
    55    20    50    1
    56    21    51    1
    57    21    52    1
    58    22    53    1
    59    22    54    1
    60    23    55    1
    61    24    56    1
    62    25    57    1
    63    29    58    1
    64    30    59    1
    65    31    60    1
    66    34    61    1
