@<TRIPOS>MOLECULE
*****
 72 77 0 0 0
SMALL
GASTEIGER

@<TRIPOS>ATOM
      1 O          -2.4792    1.7033   -2.4552 O.2     1  UNL1       -0.2702
      2 C          -3.3311    1.7194   -1.5262 C.2     1  UNL1        0.2444
      3 N          -3.4603    0.5395   -0.7439 N.am    1  UNL1       -0.3047
      4 C          -2.6682   -0.6454   -0.9709 C.3     1  UNL1        0.0637
      5 C          -3.4511   -1.8578   -1.3472 C.3     1  UNL1       -0.0157
      6 C          -2.4738   -2.9693   -0.9152 C.3     1  UNL1       -0.0416
      7 C          -2.3541   -2.4992    0.5322 C.3     1  UNL1        0.0014
      8 C          -3.7965   -2.4703    0.9513 C.3     1  UNL1       -0.0316
      9 C          -4.3240   -3.7926    1.4038 C.3     1  UNL1       -0.0496
     10 C          -5.1527   -4.3525    0.3057 C.3     1  UNL1       -0.0525
     11 C          -5.3678   -3.2771   -0.6934 C.3     1  UNL1       -0.0496
     12 C          -4.5316   -2.1014   -0.3185 C.3     1  UNL1       -0.0332
     13 C          -1.9381   -1.0615    0.2912 C.3     1  UNL1        0.1249
     14 O          -0.5374   -1.0671    0.1151 O.3     1  UNL1       -0.4557
     15 C           0.3148   -0.3534    0.9436 C.2     1  UNL1        0.3397
     16 O          -0.2134    0.3086    1.8703 O.2     1  UNL1       -0.2449
     17 C           1.7511   -0.3950    0.7172 C.ar    1  UNL1        0.0659
     18 C           2.2888   -1.1327   -0.3120 C.ar    1  UNL1       -0.0053
     19 C           3.6308   -1.2188   -0.5856 C.ar    1  UNL1        0.1320
     20 O           4.0956   -2.0021   -1.6653 O.3     1  UNL1       -0.5059
     21 C           4.5227   -0.5286    0.2099 C.ar    1  UNL1        0.1050
     22 C           5.9417   -0.6892    0.0114 C.2     1  UNL1        0.2044
     23 O           6.2672   -1.8078   -0.5699 O.2     1  UNL1       -0.2863
     24 C           7.0073    0.2003    0.3765 C.ar    1  UNL1        0.0778
     25 C           8.1615   -0.4379    0.8801 C.ar    1  UNL1        0.1285
     26 O           8.1902   -1.8304    1.0065 O.3     1  UNL1       -0.5060
     27 C           9.2386    0.3199    1.2382 C.ar    1  UNL1       -0.0194
     28 C           9.2228    1.6873    1.1190 C.ar    1  UNL1       -0.0575
     29 C           8.0926    2.2914    0.6237 C.ar    1  UNL1       -0.0468
     30 C           6.9468    1.5575    0.2325 C.ar    1  UNL1        0.0731
     31 C           5.9010    2.2842   -0.4702 C.2     1  UNL1        0.3376
     32 O           5.8945    3.5509   -0.4383 O.2     1  UNL1       -0.2451
     33 O           4.8996    1.7009   -1.1921 O.3     1  UNL1       -0.4771
     34 C           4.0059    0.2316    1.2687 C.ar    1  UNL1        0.1320
     35 O           4.8481    0.9505    2.1199 O.3     1  UNL1       -0.5059
     36 C           2.6528    0.2863    1.5015 C.ar    1  UNL1       -0.0053
     37 C          -4.1078    2.9272   -1.3260 C.ar    1  UNL1        0.0369
     38 C          -5.0543    3.0483   -0.3322 C.ar    1  UNL1       -0.0462
     39 C          -5.7657    4.2202   -0.1848 C.ar    1  UNL1       -0.0195
     40 C          -5.5524    5.3020   -1.0242 C.ar    1  UNL1        0.1169
     41 O          -6.2706    6.4992   -0.8833 O.3     1  UNL1       -0.5068
     42 C          -4.6043    5.1965   -2.0286 C.ar    1  UNL1       -0.0195
     43 C          -3.8901    4.0024   -2.1667 C.ar    1  UNL1       -0.0462
     44 H          -4.1588    0.5417    0.0248 H       1  UNL1        0.1494
     45 H          -1.9372   -0.4784   -1.8183 H       1  UNL1        0.0538
     46 H          -3.7596   -1.9435   -2.3711 H       1  UNL1        0.0323
     47 H          -2.8962   -3.9650   -1.0214 H       1  UNL1        0.0273
     48 H          -1.5194   -2.8303   -1.4677 H       1  UNL1        0.0273
     49 H          -1.6892   -3.0780    1.1414 H       1  UNL1        0.0340
     50 H          -3.9712   -1.7186    1.7560 H       1  UNL1        0.0307
     51 H          -4.9230   -3.6665    2.3554 H       1  UNL1        0.0268
     52 H          -3.4993   -4.4893    1.7242 H       1  UNL1        0.0268
     53 H          -6.1531   -4.6289    0.7424 H       1  UNL1        0.0265
     54 H          -4.7063   -5.2614   -0.1604 H       1  UNL1        0.0265
     55 H          -6.4512   -2.9506   -0.7083 H       1  UNL1        0.0268
     56 H          -5.1807   -3.6099   -1.7426 H       1  UNL1        0.0268
     57 H          -5.1562   -1.2170   -0.1228 H       1  UNL1        0.0307
     58 H          -2.2732   -0.4396    1.1418 H       1  UNL1        0.0756
     59 H           1.5841   -1.6741   -0.9355 H       1  UNL1        0.0662
     60 H           3.8546   -2.9844   -1.7194 H       1  UNL1        0.2922
     61 H           7.4382   -2.2964    1.5000 H       1  UNL1        0.2922
     62 H          10.1303   -0.1668    1.6261 H       1  UNL1        0.0654
     63 H          10.0642    2.3200    1.3987 H       1  UNL1        0.0619
     64 H           8.0192    3.3668    0.5077 H       1  UNL1        0.0626
     65 H           4.2349    2.1768   -1.7909 H       1  UNL1        0.2954
     66 H           4.5963    0.9571    3.0995 H       1  UNL1        0.2922
     67 H           2.2814    0.8911    2.3372 H       1  UNL1        0.0662
     68 H          -5.2391    2.2221    0.3338 H       1  UNL1        0.0626
     69 H          -6.5071    4.3091    0.5971 H       1  UNL1        0.0654
     70 H          -7.1333    6.5479   -0.3675 H       1  UNL1        0.2921
     71 H          -4.4358    6.0421   -2.6868 H       1  UNL1        0.0654
     72 H          -3.1631    3.9867   -2.9731 H       1  UNL1        0.0626
@<TRIPOS>BOND
     1     1     2    2
     2     2     3   am
     3     3     4    1
     4     4     5    1
     5     5     6    1
     6     6     7    1
     7     7     8    1
     8     8     9    1
     9     9    10    1
    10    10    11    1
    11    11    12    1
    12     7    13    1
    13    13    14    1
    14    14    15    1
    15    15    16    2
    16    15    17    1
    17    17    18   ar
    18    18    19   ar
    19    19    20    1
    20    19    21   ar
    21    21    22    1
    22    22    23    2
    23    22    24    1
    24    24    25   ar
    25    25    26    1
    26    25    27   ar
    27    27    28   ar
    28    28    29   ar
    29    29    30   ar
    30    30    31    1
    31    31    32    2
    32    31    33    1
    33    21    34   ar
    34    34    35    1
    35    34    36   ar
    36     2    37    1
    37    37    38   ar
    38    38    39   ar
    39    39    40   ar
    40    40    41    1
    41    40    42   ar
    42    42    43   ar
    43    13     4    1
    44    36    17   ar
    45    43    37   ar
    46    12     5    1
    47    30    24   ar
    48    12     8    1
    49     3    44    1
    50     4    45    1
    51     5    46    1
    52     6    47    1
    53     6    48    1
    54     7    49    1
    55     8    50    1
    56     9    51    1
    57     9    52    1
    58    10    53    1
    59    10    54    1
    60    11    55    1
    61    11    56    1
    62    12    57    1
    63    13    58    1
    64    18    59    1
    65    20    60    1
    66    26    61    1
    67    27    62    1
    68    28    63    1
    69    29    64    1
    70    33    65    1
    71    35    66    1
    72    36    67    1
    73    38    68    1
    74    39    69    1
    75    41    70    1
    76    42    71    1
    77    43    72    1
