
     RDKit          3D

 72 77  0  0  0  0  0  0  0  0999 V2000
   -2.4792    1.7033   -2.4552 O   0  0  0  0  0  0  0  0  0  0  0  0
   -3.3311    1.7194   -1.5262 C   0  0  0  0  0  0  0  0  0  0  0  0
   -3.4603    0.5395   -0.7439 N   0  0  0  0  0  0  0  0  0  0  0  0
   -2.6682   -0.6454   -0.9709 C   0  0  2  0  0  0  0  0  0  0  0  0
   -3.4511   -1.8578   -1.3472 C   0  0  0  0  0  0  0  0  0  0  0  0
   -2.4738   -2.9693   -0.9152 C   0  0  0  0  0  0  0  0  0  0  0  0
   -2.3541   -2.4992    0.5322 C   0  0  0  0  0  0  0  0  0  0  0  0
   -3.7965   -2.4703    0.9513 C   0  0  0  0  0  0  0  0  0  0  0  0
   -4.3240   -3.7926    1.4038 C   0  0  0  0  0  0  0  0  0  0  0  0
   -5.1527   -4.3525    0.3057 C   0  0  0  0  0  0  0  0  0  0  0  0
   -5.3678   -3.2771   -0.6934 C   0  0  0  0  0  0  0  0  0  0  0  0
   -4.5316   -2.1014   -0.3185 C   0  0  0  0  0  0  0  0  0  0  0  0
   -1.9381   -1.0615    0.2912 C   0  0  1  0  0  0  0  0  0  0  0  0
   -0.5374   -1.0671    0.1151 O   0  0  0  0  0  0  0  0  0  0  0  0
    0.3148   -0.3534    0.9436 C   0  0  0  0  0  0  0  0  0  0  0  0
   -0.2134    0.3086    1.8703 O   0  0  0  0  0  0  0  0  0  0  0  0
    1.7511   -0.3950    0.7172 C   0  0  0  0  0  0  0  0  0  0  0  0
    2.2888   -1.1327   -0.3120 C   0  0  0  0  0  0  0  0  0  0  0  0
    3.6308   -1.2188   -0.5856 C   0  0  0  0  0  0  0  0  0  0  0  0
    4.0956   -2.0021   -1.6653 O   0  0  0  0  0  0  0  0  0  0  0  0
    4.5227   -0.5286    0.2099 C   0  0  0  0  0  0  0  0  0  0  0  0
    5.9417   -0.6892    0.0114 C   0  0  0  0  0  0  0  0  0  0  0  0
    6.2672   -1.8078   -0.5699 O   0  0  0  0  0  0  0  0  0  0  0  0
    7.0073    0.2003    0.3765 C   0  0  0  0  0  0  0  0  0  0  0  0
    8.1615   -0.4379    0.8801 C   0  0  0  0  0  0  0  0  0  0  0  0
    8.1902   -1.8304    1.0065 O   0  0  0  0  0  0  0  0  0  0  0  0
    9.2386    0.3199    1.2382 C   0  0  0  0  0  0  0  0  0  0  0  0
    9.2228    1.6873    1.1190 C   0  0  0  0  0  0  0  0  0  0  0  0
    8.0926    2.2914    0.6237 C   0  0  0  0  0  0  0  0  0  0  0  0
    6.9468    1.5575    0.2325 C   0  0  0  0  0  0  0  0  0  0  0  0
    5.9010    2.2842   -0.4702 C   0  0  0  0  0  0  0  0  0  0  0  0
    5.8945    3.5509   -0.4383 O   0  0  0  0  0  0  0  0  0  0  0  0
    4.8996    1.7009   -1.1921 O   0  0  0  0  0  0  0  0  0  0  0  0
    4.0059    0.2316    1.2687 C   0  0  0  0  0  0  0  0  0  0  0  0
    4.8481    0.9505    2.1199 O   0  0  0  0  0  0  0  0  0  0  0  0
    2.6528    0.2863    1.5015 C   0  0  0  0  0  0  0  0  0  0  0  0
   -4.1078    2.9272   -1.3260 C   0  0  0  0  0  0  0  0  0  0  0  0
   -5.0543    3.0483   -0.3322 C   0  0  0  0  0  0  0  0  0  0  0  0
   -5.7657    4.2202   -0.1848 C   0  0  0  0  0  0  0  0  0  0  0  0
   -5.5524    5.3020   -1.0242 C   0  0  0  0  0  0  0  0  0  0  0  0
   -6.2706    6.4992   -0.8833 O   0  0  0  0  0  0  0  0  0  0  0  0
   -4.6043    5.1965   -2.0286 C   0  0  0  0  0  0  0  0  0  0  0  0
   -3.8901    4.0024   -2.1667 C   0  0  0  0  0  0  0  0  0  0  0  0
   -4.1588    0.5417    0.0248 H   0  0  0  0  0  0  0  0  0  0  0  0
   -1.9372   -0.4784   -1.8183 H   0  0  0  0  0  0  0  0  0  0  0  0
   -3.7596   -1.9435   -2.3711 H   0  0  0  0  0  0  0  0  0  0  0  0
   -2.8962   -3.9650   -1.0214 H   0  0  0  0  0  0  0  0  0  0  0  0
   -1.5194   -2.8303   -1.4677 H   0  0  0  0  0  0  0  0  0  0  0  0
   -1.6892   -3.0780    1.1414 H   0  0  0  0  0  0  0  0  0  0  0  0
   -3.9712   -1.7186    1.7560 H   0  0  0  0  0  0  0  0  0  0  0  0
   -4.9230   -3.6665    2.3554 H   0  0  0  0  0  0  0  0  0  0  0  0
   -3.4993   -4.4893    1.7242 H   0  0  0  0  0  0  0  0  0  0  0  0
   -6.1531   -4.6289    0.7424 H   0  0  0  0  0  0  0  0  0  0  0  0
   -4.7063   -5.2614   -0.1604 H   0  0  0  0  0  0  0  0  0  0  0  0
   -6.4512   -2.9506   -0.7083 H   0  0  0  0  0  0  0  0  0  0  0  0
   -5.1807   -3.6099   -1.7426 H   0  0  0  0  0  0  0  0  0  0  0  0
   -5.1562   -1.2170   -0.1228 H   0  0  0  0  0  0  0  0  0  0  0  0
   -2.2732   -0.4396    1.1418 H   0  0  0  0  0  0  0  0  0  0  0  0
    1.5841   -1.6741   -0.9355 H   0  0  0  0  0  0  0  0  0  0  0  0
    3.8546   -2.9844   -1.7194 H   0  0  0  0  0  0  0  0  0  0  0  0
    7.4382   -2.2964    1.5000 H   0  0  0  0  0  0  0  0  0  0  0  0
   10.1303   -0.1668    1.6261 H   0  0  0  0  0  0  0  0  0  0  0  0
   10.0642    2.3200    1.3987 H   0  0  0  0  0  0  0  0  0  0  0  0
    8.0192    3.3668    0.5077 H   0  0  0  0  0  0  0  0  0  0  0  0
    4.2349    2.1768   -1.7909 H   0  0  0  0  0  0  0  0  0  0  0  0
    4.5963    0.9571    3.0995 H   0  0  0  0  0  0  0  0  0  0  0  0
    2.2814    0.8911    2.3372 H   0  0  0  0  0  0  0  0  0  0  0  0
   -5.2391    2.2221    0.3338 H   0  0  0  0  0  0  0  0  0  0  0  0
   -6.5071    4.3091    0.5971 H   0  0  0  0  0  0  0  0  0  0  0  0
   -7.1333    6.5479   -0.3675 H   0  0  0  0  0  0  0  0  0  0  0  0
   -4.4358    6.0421   -2.6868 H   0  0  0  0  0  0  0  0  0  0  0  0
   -3.1631    3.9867   -2.9731 H   0  0  0  0  0  0  0  0  0  0  0  0
  1  2  2  0
  2  3  1  0
  3  4  1  0
  4  5  1  0
  5  6  1  0
  6  7  1  0
  7  8  1  0
  8  9  1  0
  9 10  1  0
 10 11  1  0
 11 12  1  0
  7 13  1  0
 13 14  1  0
 14 15  1  0
 15 16  2  0
 15 17  1  0
 17 18  2  0
 18 19  1  0
 19 20  1  0
 19 21  2  0
 21 22  1  0
 22 23  2  0
 22 24  1  0
 24 25  2  0
 25 26  1  0
 25 27  1  0
 27 28  2  0
 28 29  1  0
 29 30  2  0
 30 31  1  0
 31 32  2  0
 31 33  1  0
 21 34  1  0
 34 35  1  0
 34 36  2  0
  2 37  1  0
 37 38  2  0
 38 39  1  0
 39 40  2  0
 40 41  1  0
 40 42  1  0
 42 43  2  0
 13  4  1  0
 36 17  1  0
 43 37  1  0
 12  5  1  0
 30 24  1  0
 12  8  1  0
  3 44  1  0
  4 45  1  6
  5 46  1  0
  6 47  1  0
  6 48  1  0
  7 49  1  0
  8 50  1  0
  9 51  1  0
  9 52  1  0
 10 53  1  0
 10 54  1  0
 11 55  1  0
 11 56  1  0
 12 57  1  0
 13 58  1  1
 18 59  1  0
 20 60  1  0
 26 61  1  0
 27 62  1  0
 28 63  1  0
 29 64  1  0
 33 65  1  0
 35 66  1  0
 36 67  1  0
 38 68  1  0
 39 69  1  0
 41 70  1  0
 42 71  1  0
 43 72  1  0
M  END
$$$$
