@<TRIPOS>MOLECULE
*****
 105 110 0 0 0
SMALL
GASTEIGER

@<TRIPOS>ATOM
      1 C           2.0697    0.7832    0.3350 C.3     1  UNL1       -0.0276
      2 C           3.2722    1.0994    1.1469 C.3     1  UNL1       -0.0302
      3 C           4.2975    0.4779    0.1756 C.3     1  UNL1        0.0486
      4 C           3.8430    0.9505   -1.1873 C.3     1  UNL1        0.1240
      5 O           4.6747    2.0314   -1.5629 O.3     1  UNL1       -0.4594
      6 C           5.3939    2.0446   -2.7498 C.2     1  UNL1        0.3043
      7 C           6.2286    3.2615   -3.0029 C.3     1  UNL1        0.0332
      8 O           5.2514    1.0283   -3.4630 O.2     1  UNL1       -0.2512
      9 C           2.4063    1.3917   -1.0089 C.3     1  UNL1        0.0096
     10 C           2.3982    2.8957   -0.9754 C.3     1  UNL1       -0.0559
     11 C           1.4376    0.8503   -1.9981 C.3     1  UNL1       -0.0437
     12 C           0.2035    0.2379   -1.4826 C.3     1  UNL1       -0.0488
     13 C          -0.2152    0.5187   -0.0832 C.3     1  UNL1       -0.0322
     14 C           0.7768    1.3496    0.7166 C.3     1  UNL1       -0.0342
     15 C           0.4170    1.3287    2.1628 C.3     1  UNL1       -0.0494
     16 C          -0.9700    1.9801    2.2572 C.3     1  UNL1       -0.0493
     17 C          -1.9161    1.0111    1.5524 C.3     1  UNL1       -0.0319
     18 C          -3.3324    1.4092    1.8805 C.3     1  UNL1       -0.0108
     19 C          -4.2903    0.8891    0.8063 C.3     1  UNL1        0.1188
     20 O          -5.5222    0.6737    1.4374 O.3     1  UNL1       -0.4599
     21 C          -6.6807    1.3689    1.1282 C.2     1  UNL1        0.3043
     22 C          -7.9787    1.1115    1.8241 C.3     1  UNL1        0.0332
     23 O          -6.7138    2.2647    0.2384 O.2     1  UNL1       -0.2512
     24 C          -3.6908   -0.3902    0.2963 C.3     1  UNL1        0.0483
     25 C          -2.5332   -0.0047   -0.5972 C.3     1  UNL1       -0.0280
     26 C          -1.6334    1.0219    0.0630 C.3     1  UNL1       -0.0245
     27 C          -1.8279    2.3855   -0.5212 C.3     1  UNL1       -0.0590
     28 N          -4.5647   -1.2335   -0.4099 N.3     1  UNL1       -0.2859
     29 C          -5.1806   -0.7358   -1.5938 C.3     1  UNL1        0.0397
     30 C          -6.2304   -1.6794   -2.1402 C.3     1  UNL1       -0.0175
     31 N          -6.6167   -2.7035   -1.2232 N.4     1  UNL1        0.2408
     32 C          -7.5355   -3.5906   -1.8712 C.3     1  UNL1       -0.0414
     33 C          -7.2894   -2.1619   -0.0400 C.3     1  UNL1       -0.0414
     34 C          -5.4931   -3.4788   -0.7320 C.3     1  UNL1       -0.0175
     35 C          -4.3101   -2.6295   -0.3982 C.3     1  UNL1        0.0397
     36 N           5.6275    0.7993    0.5338 N.3     1  UNL1       -0.2859
     37 C           6.5560    0.1936   -0.3663 C.3     1  UNL1        0.0397
     38 C           7.4481   -0.8407    0.3300 C.3     1  UNL1       -0.0175
     39 N           6.6875   -1.8441    1.0079 N.4     1  UNL1        0.2408
     40 C           6.0213   -2.7271    0.0591 C.3     1  UNL1       -0.0414
     41 C           7.6092   -2.6851    1.7556 C.3     1  UNL1       -0.0414
     42 C           5.7771   -1.2116    1.9304 C.3     1  UNL1       -0.0175
     43 C           5.8689    0.2847    1.8547 C.3     1  UNL1        0.0397
     44 H           2.0779   -0.3210    0.1693 H       1  UNL1        0.0310
     45 H           3.4733    2.1511    1.3391 H       1  UNL1        0.0284
     46 H           3.2062    0.5478    2.0892 H       1  UNL1        0.0284
     47 H           4.0449   -0.6170    0.1919 H       1  UNL1        0.0499
     48 H           3.8802    0.1631   -1.9655 H       1  UNL1        0.0755
     49 H           7.0734    3.2123   -2.2580 H       1  UNL1        0.0342
     50 H           5.7056    4.1985   -2.7880 H       1  UNL1        0.0342
     51 H           6.6993    3.2488   -4.0075 H       1  UNL1        0.0342
     52 H           2.4569    3.3479    0.0136 H       1  UNL1        0.0236
     53 H           1.4774    3.2554   -1.5075 H       1  UNL1        0.0236
     54 H           3.2410    3.3385   -1.5669 H       1  UNL1        0.0236
     55 H           1.1881    1.6950   -2.6929 H       1  UNL1        0.0272
     56 H           2.0112    0.1463   -2.6500 H       1  UNL1        0.0272
     57 H           0.2450   -0.8732   -1.6907 H       1  UNL1        0.0268
     58 H          -0.6696    0.5552   -2.1232 H       1  UNL1        0.0268
     59 H          -0.2280   -0.4575    0.4735 H       1  UNL1        0.0309
     60 H           0.6397    2.3912    0.3611 H       1  UNL1        0.0306
     61 H           1.1141    1.9916    2.7067 H       1  UNL1        0.0268
     62 H           0.3775    0.3050    2.5466 H       1  UNL1        0.0268
     63 H          -0.9567    2.9570    1.7684 H       1  UNL1        0.0268
     64 H          -1.2812    2.0839    3.3094 H       1  UNL1        0.0268
     65 H          -1.6331    0.0127    1.9547 H       1  UNL1        0.0307
     66 H          -3.3379    2.5111    1.9560 H       1  UNL1        0.0304
     67 H          -3.5827    0.9984    2.8642 H       1  UNL1        0.0304
     68 H          -4.3295    1.6780    0.0266 H       1  UNL1        0.0750
     69 H          -8.4230    2.0380    2.2316 H       1  UNL1        0.0342
     70 H          -8.7434    0.6920    1.1224 H       1  UNL1        0.0342
     71 H          -7.8537    0.3375    2.6212 H       1  UNL1        0.0342
     72 H          -3.3417   -0.9525    1.1967 H       1  UNL1        0.0499
     73 H          -1.9748   -0.9001   -0.9576 H       1  UNL1        0.0287
     74 H          -2.9546    0.4800   -1.4968 H       1  UNL1        0.0287
     75 H          -2.3810    3.0747    0.1738 H       1  UNL1        0.0235
     76 H          -2.5066    2.2897   -1.4175 H       1  UNL1        0.0235
     77 H          -0.9005    2.8421   -0.9230 H       1  UNL1        0.0235
     78 H          -5.5502    0.2850   -1.5329 H       1  UNL1        0.0479
     79 H          -4.3654   -0.7004   -2.3741 H       1  UNL1        0.0479
     80 H          -7.1327   -1.0776   -2.3664 H       1  UNL1        0.0828
     81 H          -5.9114   -2.1742   -3.0809 H       1  UNL1        0.0828
     82 H          -7.0511   -4.2956   -2.5820 H       1  UNL1        0.0778
     83 H          -7.9504   -4.2562   -1.0601 H       1  UNL1        0.0778
     84 H          -8.4033   -3.0774   -2.3169 H       1  UNL1        0.0778
     85 H          -7.7582   -1.1857   -0.2179 H       1  UNL1        0.0778
     86 H          -8.0148   -2.8802    0.3711 H       1  UNL1        0.0778
     87 H          -6.5266   -2.0039    0.7758 H       1  UNL1        0.0778
     88 H          -5.1833   -4.2127   -1.5143 H       1  UNL1        0.0828
     89 H          -5.7909   -4.1018    0.1349 H       1  UNL1        0.0828
     90 H          -3.4275   -2.8817   -1.0529 H       1  UNL1        0.0479
     91 H          -3.9661   -2.8947    0.6318 H       1  UNL1        0.0479
     92 H           7.2425    0.9442   -0.8300 H       1  UNL1        0.0479
     93 H           6.0672   -0.3406   -1.2056 H       1  UNL1        0.0479
     94 H           8.2143   -0.3735    0.9522 H       1  UNL1        0.0828
     95 H           8.0032   -1.3536   -0.5069 H       1  UNL1        0.0828
     96 H           6.4296   -3.7572    0.0596 H       1  UNL1        0.0778
     97 H           6.0768   -2.3687   -0.9843 H       1  UNL1        0.0778
     98 H           4.9373   -2.8575    0.3264 H       1  UNL1        0.0778
     99 H           8.1584   -3.2921    0.9872 H       1  UNL1        0.0778
    100 H           8.3624   -2.0592    2.2554 H       1  UNL1        0.0778
    101 H           7.0806   -3.3960    2.4127 H       1  UNL1        0.0778
    102 H           4.7831   -1.6352    1.7939 H       1  UNL1        0.0828
    103 H           6.0578   -1.4714    2.9936 H       1  UNL1        0.0828
    104 H           5.1728    0.7169    2.6085 H       1  UNL1        0.0479
    105 H           6.8912    0.5536    2.2375 H       1  UNL1        0.0479
@<TRIPOS>UNITY_ATOM_ATTR
31 1
charge 1
39 1
charge 1
@<TRIPOS>BOND
     1     1     2    1
     2     2     3    1
     3     3     4    1
     4     4     5    1
     5     5     6    1
     6     6     7    1
     7     6     8    2
     8     4     9    1
     9     9    10    1
    10     9    11    1
    11    11    12    1
    12    12    13    1
    13    13    14    1
    14    14    15    1
    15    15    16    1
    16    16    17    1
    17    17    18    1
    18    18    19    1
    19    19    20    1
    20    20    21    1
    21    21    22    1
    22    21    23    2
    23    19    24    1
    24    24    25    1
    25    25    26    1
    26    26    27    1
    27    24    28    1
    28    28    29    1
    29    29    30    1
    30    30    31    1
    31    31    32    1
    32    31    33    1
    33    31    34    1
    34    34    35    1
    35     3    36    1
    36    36    37    1
    37    37    38    1
    38    38    39    1
    39    39    40    1
    40    39    41    1
    41    39    42    1
    42    42    43    1
    43     9     1    1
    44    26    13    1
    45    35    28    1
    46    43    36    1
    47    14     1    1
    48    26    17    1
    49     1    44    1
    50     2    45    1
    51     2    46    1
    52     3    47    1
    53     4    48    1
    54     7    49    1
    55     7    50    1
    56     7    51    1
    57    10    52    1
    58    10    53    1
    59    10    54    1
    60    11    55    1
    61    11    56    1
    62    12    57    1
    63    12    58    1
    64    13    59    1
    65    14    60    1
    66    15    61    1
    67    15    62    1
    68    16    63    1
    69    16    64    1
    70    17    65    1
    71    18    66    1
    72    18    67    1
    73    19    68    1
    74    22    69    1
    75    22    70    1
    76    22    71    1
    77    24    72    1
    78    25    73    1
    79    25    74    1
    80    27    75    1
    81    27    76    1
    82    27    77    1
    83    29    78    1
    84    29    79    1
    85    30    80    1
    86    30    81    1
    87    32    82    1
    88    32    83    1
    89    32    84    1
    90    33    85    1
    91    33    86    1
    92    33    87    1
    93    34    88    1
    94    34    89    1
    95    35    90    1
    96    35    91    1
    97    37    92    1
    98    37    93    1
    99    38    94    1
   100    38    95    1
   101    40    96    1
   102    40    97    1
   103    40    98    1
   104    41    99    1
   105    41   100    1
   106    41   101    1
   107    42   102    1
   108    42   103    1
   109    43   104    1
   110    43   105    1
