@<TRIPOS>MOLECULE
*****
 53 55 0 0 0
SMALL
GASTEIGER

@<TRIPOS>ATOM
      1 O           8.3443    0.9168   -2.0808 O.2     1  UNL1       -0.2687
      2 C           7.7178    0.7735   -0.9974 C.2     1  UNL1        0.2593
      3 C           6.2718    0.6254   -1.0014 C.2     1  UNL1        0.0027
      4 C           5.5309    0.4701    0.0483 C.2     1  UNL1       -0.0496
      5 C           4.0845    0.3258    0.0037 C.ar    1  UNL1       -0.0249
      6 C           3.3609    0.1635    1.1918 C.ar    1  UNL1       -0.0543
      7 C           1.9905    0.0279    1.2149 C.ar    1  UNL1       -0.0568
      8 C           1.2437    0.0449    0.0561 C.ar    1  UNL1       -0.0333
      9 C          -0.2311   -0.0164    0.0579 C.3     1  UNL1        0.0241
     10 N          -0.8474   -1.2414    0.2979 N.3     1  UNL1       -0.2957
     11 C          -0.6937   -2.3490   -0.5205 C.3     1  UNL1        0.0224
     12 C           0.6355   -3.0410   -0.5004 C.3     1  UNL1        0.0569
     13 O           0.9390   -3.5032    0.7976 O.3     1  UNL1       -0.3937
     14 C          -2.2713   -1.0001    0.5754 C.3     1  UNL1        0.0033
     15 C          -2.9562   -0.5711   -0.6780 C.3     1  UNL1       -0.0129
     16 C          -4.3979   -0.2624   -0.4819 C.ar    1  UNL1       -0.0212
     17 C          -5.5117   -0.9980   -0.7614 C.ar    1  UNL1        0.0059
     18 N          -6.6230   -0.2921   -0.4021 N.ar    1  UNL1       -0.3604
     19 C          -6.2589    0.8871    0.1066 C.ar    1  UNL1        0.0467
     20 C          -6.9395    1.9925    0.6191 C.ar    1  UNL1       -0.0378
     21 C          -6.2424    3.0898    1.0697 C.ar    1  UNL1       -0.0598
     22 C          -4.8601    3.1549    1.0407 C.ar    1  UNL1       -0.0611
     23 C          -4.1912    2.0481    0.5291 C.ar    1  UNL1       -0.0523
     24 C          -4.8829    0.9353    0.0708 C.ar    1  UNL1        0.0029
     25 C           1.9679    0.2065   -1.1274 C.ar    1  UNL1       -0.0568
     26 C           3.3373    0.3417   -1.1552 C.ar    1  UNL1       -0.0543
     27 N           8.4346    0.7593    0.2000 N.am    1  UNL1       -0.1940
     28 O           9.7960    0.8941    0.2573 O.3     1  UNL1       -0.2949
     29 H           5.7518    0.6464   -1.9768 H       1  UNL1        0.0670
     30 H           6.0052    0.4478    1.0117 H       1  UNL1        0.0625
     31 H           3.9600    0.1502    2.1024 H       1  UNL1        0.0624
     32 H           1.5112   -0.0930    2.1753 H       1  UNL1        0.0621
     33 H          -0.6434    0.7508    0.7935 H       1  UNL1        0.0476
     34 H          -0.5514    0.4037   -0.9460 H       1  UNL1        0.0476
     35 H          -0.8987   -2.1370   -1.6228 H       1  UNL1        0.0449
     36 H          -1.4402   -3.1357   -0.2108 H       1  UNL1        0.0449
     37 H           1.4084   -2.4472   -0.9436 H       1  UNL1        0.0570
     38 H           0.5232   -3.9600   -1.1718 H       1  UNL1        0.0570
     39 H           0.2187   -4.1835    0.9870 H       1  UNL1        0.2095
     40 H          -2.3819   -0.2725    1.4016 H       1  UNL1        0.0430
     41 H          -2.7110   -1.9490    0.9603 H       1  UNL1        0.0430
     42 H          -2.4821    0.3416   -1.0844 H       1  UNL1        0.0326
     43 H          -2.9218   -1.3448   -1.4778 H       1  UNL1        0.0326
     44 H          -5.5225   -1.9774   -1.1945 H       1  UNL1        0.0810
     45 H          -7.5903   -0.6277   -0.5099 H       1  UNL1        0.1653
     46 H          -8.0112    1.9874    0.6620 H       1  UNL1        0.0638
     47 H          -6.7399    3.9633    1.4716 H       1  UNL1        0.0618
     48 H          -4.3294    4.0187    1.3961 H       1  UNL1        0.0618
     49 H          -3.1216    2.0414    0.4786 H       1  UNL1        0.0624
     50 H           1.3729    0.2187   -2.0407 H       1  UNL1        0.0621
     51 H           3.8100    0.4645   -2.1263 H       1  UNL1        0.0624
     52 H           7.9766    0.6483    1.1131 H       1  UNL1        0.1825
     53 H          10.0600    1.6627   -0.3064 H       1  UNL1        0.2414
@<TRIPOS>BOND
     1     1     2    2
     2     2     3    1
     3     3     4    2
     4     4     5    1
     5     5     6   ar
     6     6     7   ar
     7     7     8   ar
     8     8     9    1
     9     9    10    1
    10    10    11    1
    11    11    12    1
    12    12    13    1
    13    10    14    1
    14    14    15    1
    15    15    16    1
    16    16    17   ar
    17    17    18   ar
    18    18    19   ar
    19    19    20   ar
    20    20    21   ar
    21    21    22   ar
    22    22    23   ar
    23    23    24   ar
    24     8    25   ar
    25    25    26   ar
    26     2    27   am
    27    27    28    1
    28    26     5   ar
    29    24    16   ar
    30    24    19   ar
    31     3    29    1
    32     4    30    1
    33     6    31    1
    34     7    32    1
    35     9    33    1
    36     9    34    1
    37    11    35    1
    38    11    36    1
    39    12    37    1
    40    12    38    1
    41    13    39    1
    42    14    40    1
    43    14    41    1
    44    15    42    1
    45    15    43    1
    46    17    44    1
    47    18    45    1
    48    20    46    1
    49    21    47    1
    50    22    48    1
    51    23    49    1
    52    25    50    1
    53    26    51    1
    54    27    52    1
    55    28    53    1
