
     RDKit          3D

 53 55  0  0  0  0  0  0  0  0999 V2000
    8.3443    0.9168   -2.0808 O   0  0  0  0  0  0  0  0  0  0  0  0
    7.7178    0.7735   -0.9974 C   0  0  0  0  0  0  0  0  0  0  0  0
    6.2718    0.6254   -1.0014 C   0  0  0  0  0  0  0  0  0  0  0  0
    5.5309    0.4701    0.0483 C   0  0  0  0  0  0  0  0  0  0  0  0
    4.0845    0.3258    0.0037 C   0  0  0  0  0  0  0  0  0  0  0  0
    3.3609    0.1635    1.1918 C   0  0  0  0  0  0  0  0  0  0  0  0
    1.9905    0.0279    1.2149 C   0  0  0  0  0  0  0  0  0  0  0  0
    1.2437    0.0449    0.0561 C   0  0  0  0  0  0  0  0  0  0  0  0
   -0.2311   -0.0164    0.0579 C   0  0  0  0  0  0  0  0  0  0  0  0
   -0.8474   -1.2414    0.2979 N   0  0  0  0  0  0  0  0  0  0  0  0
   -0.6937   -2.3490   -0.5205 C   0  0  0  0  0  0  0  0  0  0  0  0
    0.6355   -3.0410   -0.5004 C   0  0  0  0  0  0  0  0  0  0  0  0
    0.9390   -3.5032    0.7976 O   0  0  0  0  0  0  0  0  0  0  0  0
   -2.2713   -1.0001    0.5754 C   0  0  0  0  0  0  0  0  0  0  0  0
   -2.9562   -0.5711   -0.6780 C   0  0  0  0  0  0  0  0  0  0  0  0
   -4.3979   -0.2624   -0.4819 C   0  0  0  0  0  0  0  0  0  0  0  0
   -5.5117   -0.9980   -0.7614 C   0  0  0  0  0  0  0  0  0  0  0  0
   -6.6230   -0.2921   -0.4021 N   0  0  0  0  0  0  0  0  0  0  0  0
   -6.2589    0.8871    0.1066 C   0  0  0  0  0  0  0  0  0  0  0  0
   -6.9395    1.9925    0.6191 C   0  0  0  0  0  0  0  0  0  0  0  0
   -6.2424    3.0898    1.0697 C   0  0  0  0  0  0  0  0  0  0  0  0
   -4.8601    3.1549    1.0407 C   0  0  0  0  0  0  0  0  0  0  0  0
   -4.1912    2.0481    0.5291 C   0  0  0  0  0  0  0  0  0  0  0  0
   -4.8829    0.9353    0.0708 C   0  0  0  0  0  0  0  0  0  0  0  0
    1.9679    0.2065   -1.1274 C   0  0  0  0  0  0  0  0  0  0  0  0
    3.3373    0.3417   -1.1552 C   0  0  0  0  0  0  0  0  0  0  0  0
    8.4346    0.7593    0.2000 N   0  0  0  0  0  0  0  0  0  0  0  0
    9.7960    0.8941    0.2573 O   0  0  0  0  0  0  0  0  0  0  0  0
    5.7518    0.6464   -1.9768 H   0  0  0  0  0  0  0  0  0  0  0  0
    6.0052    0.4478    1.0117 H   0  0  0  0  0  0  0  0  0  0  0  0
    3.9600    0.1502    2.1024 H   0  0  0  0  0  0  0  0  0  0  0  0
    1.5112   -0.0930    2.1753 H   0  0  0  0  0  0  0  0  0  0  0  0
   -0.6434    0.7508    0.7935 H   0  0  0  0  0  0  0  0  0  0  0  0
   -0.5514    0.4037   -0.9460 H   0  0  0  0  0  0  0  0  0  0  0  0
   -0.8987   -2.1370   -1.6228 H   0  0  0  0  0  0  0  0  0  0  0  0
   -1.4402   -3.1357   -0.2108 H   0  0  0  0  0  0  0  0  0  0  0  0
    1.4084   -2.4472   -0.9436 H   0  0  0  0  0  0  0  0  0  0  0  0
    0.5232   -3.9600   -1.1718 H   0  0  0  0  0  0  0  0  0  0  0  0
    0.2187   -4.1835    0.9870 H   0  0  0  0  0  0  0  0  0  0  0  0
   -2.3819   -0.2725    1.4016 H   0  0  0  0  0  0  0  0  0  0  0  0
   -2.7110   -1.9490    0.9603 H   0  0  0  0  0  0  0  0  0  0  0  0
   -2.4821    0.3416   -1.0844 H   0  0  0  0  0  0  0  0  0  0  0  0
   -2.9218   -1.3448   -1.4778 H   0  0  0  0  0  0  0  0  0  0  0  0
   -5.5225   -1.9774   -1.1945 H   0  0  0  0  0  0  0  0  0  0  0  0
   -7.5903   -0.6277   -0.5099 H   0  0  0  0  0  0  0  0  0  0  0  0
   -8.0112    1.9874    0.6620 H   0  0  0  0  0  0  0  0  0  0  0  0
   -6.7399    3.9633    1.4716 H   0  0  0  0  0  0  0  0  0  0  0  0
   -4.3294    4.0187    1.3961 H   0  0  0  0  0  0  0  0  0  0  0  0
   -3.1216    2.0414    0.4786 H   0  0  0  0  0  0  0  0  0  0  0  0
    1.3729    0.2187   -2.0407 H   0  0  0  0  0  0  0  0  0  0  0  0
    3.8100    0.4645   -2.1263 H   0  0  0  0  0  0  0  0  0  0  0  0
    7.9766    0.6483    1.1131 H   0  0  0  0  0  0  0  0  0  0  0  0
   10.0600    1.6627   -0.3064 H   0  0  0  0  0  0  0  0  0  0  0  0
  1  2  2  0
  2  3  1  0
  3  4  2  0
  4  5  1  0
  5  6  2  0
  6  7  1  0
  7  8  2  0
  8  9  1  0
  9 10  1  0
 10 11  1  0
 11 12  1  0
 12 13  1  0
 10 14  1  0
 14 15  1  0
 15 16  1  0
 16 17  2  0
 17 18  1  0
 18 19  1  0
 19 20  2  0
 20 21  1  0
 21 22  2  0
 22 23  1  0
 23 24  2  0
  8 25  1  0
 25 26  2  0
  2 27  1  0
 27 28  1  0
 26  5  1  0
 24 16  1  0
 24 19  1  0
  3 29  1  0
  4 30  1  0
  6 31  1  0
  7 32  1  0
  9 33  1  0
  9 34  1  0
 11 35  1  0
 11 36  1  0
 12 37  1  0
 12 38  1  0
 13 39  1  0
 14 40  1  0
 14 41  1  0
 15 42  1  0
 15 43  1  0
 17 44  1  0
 18 45  1  0
 20 46  1  0
 21 47  1  0
 22 48  1  0
 23 49  1  0
 25 50  1  0
 26 51  1  0
 27 52  1  0
 28 53  1  0
M  END
$$$$
