@<TRIPOS>MOLECULE
*****
 52 54 0 0 0
SMALL
GASTEIGER

@<TRIPOS>ATOM
      1 C           7.7658   -1.9408    2.5374 C.2     1  UNL1       -0.0938
      2 C           6.5410   -1.6509    2.9259 C.2     1  UNL1       -0.0066
      3 C           5.5002   -1.2996    2.0033 C.2     1  UNL1        0.2405
      4 O           4.3299   -1.0281    2.4371 O.2     1  UNL1       -0.2705
      5 N           5.6514   -1.2218    0.6030 N.am    1  UNL1       -0.2820
      6 C           4.5826   -0.8679   -0.2646 C.ar    1  UNL1        0.0338
      7 C           4.3803    0.4652   -0.5791 C.ar    1  UNL1       -0.0386
      8 C           3.3454    0.8719   -1.4263 C.ar    1  UNL1       -0.0336
      9 C           2.5000   -0.0648   -1.9675 C.ar    1  UNL1        0.1056
     10 S           1.1960    0.4612   -3.0323 S.O2    1  UNL1        0.0609
     11 O           0.9043   -0.7216   -3.9385 O.2     1  UNL1       -0.1528
     12 O           1.5898    1.6492   -3.8454 O.2     1  UNL1       -0.1528
     13 N          -0.2188    0.7585   -2.1163 N.3     1  UNL1       -0.1736
     14 C          -0.6897   -0.3979   -1.4482 C.3     1  UNL1        0.0363
     15 C          -1.9899   -0.2936   -0.7369 C.3     1  UNL1        0.0291
     16 N          -2.1138    1.0226   -0.1695 N.am    1  UNL1       -0.2987
     17 C          -3.3754    1.4867    0.2384 C.2     1  UNL1        0.2187
     18 O          -3.4358    2.6610    0.7434 O.2     1  UNL1       -0.2753
     19 C          -4.6418    0.7160    0.1265 C.3     1  UNL1        0.0358
     20 C          -5.8140    1.4914    0.6575 C.3     1  UNL1       -0.0419
     21 C          -6.3408    0.6273    1.7967 C.3     1  UNL1       -0.0523
     22 C          -6.0366   -0.7769    1.3149 C.3     1  UNL1       -0.0523
     23 C          -4.6092   -0.6182    0.7932 C.3     1  UNL1       -0.0419
     24 C          -0.9468    1.8359   -0.0339 C.3     1  UNL1        0.0291
     25 C          -0.1540    1.9440   -1.3138 C.3     1  UNL1        0.0363
     26 C           2.6868   -1.3946   -1.6655 C.ar    1  UNL1       -0.0336
     27 C           3.7175   -1.7814   -0.8240 C.ar    1  UNL1       -0.0386
     28 H           8.0272   -1.9215    1.4883 H       1  UNL1        0.0536
     29 H           8.5494   -2.2047    3.2287 H       1  UNL1        0.0536
     30 H           6.3313   -1.6851    3.9947 H       1  UNL1        0.0663
     31 H           6.5667   -1.4261    0.1701 H       1  UNL1        0.1551
     32 H           5.0502    1.1974   -0.1485 H       1  UNL1        0.0637
     33 H           3.2262    1.9251   -1.6446 H       1  UNL1        0.0638
     34 H           0.0773   -0.7796   -0.7465 H       1  UNL1        0.0459
     35 H          -0.7988   -1.2096   -2.2240 H       1  UNL1        0.0459
     36 H          -2.7998   -0.4725   -1.5055 H       1  UNL1        0.0478
     37 H          -2.0773   -1.0637    0.0698 H       1  UNL1        0.0478
     38 H          -4.8229    0.5469   -0.9683 H       1  UNL1        0.0394
     39 H          -5.5595    2.5031    1.0169 H       1  UNL1        0.0272
     40 H          -6.6366    1.6046   -0.0776 H       1  UNL1        0.0272
     41 H          -7.4246    0.7796    1.9572 H       1  UNL1        0.0265
     42 H          -5.7229    0.8282    2.6749 H       1  UNL1        0.0265
     43 H          -6.0301   -1.5230    2.1090 H       1  UNL1        0.0265
     44 H          -6.7183   -1.0591    0.4744 H       1  UNL1        0.0265
     45 H          -3.9352   -0.6867    1.6660 H       1  UNL1        0.0272
     46 H          -4.4292   -1.4341    0.0602 H       1  UNL1        0.0272
     47 H          -1.1200    2.8333    0.3945 H       1  UNL1        0.0478
     48 H          -0.2721    1.3024    0.6997 H       1  UNL1        0.0478
     49 H           0.9011    2.1980   -1.1298 H       1  UNL1        0.0459
     50 H          -0.5972    2.7707   -1.9057 H       1  UNL1        0.0459
     51 H           2.0324   -2.1337   -2.0828 H       1  UNL1        0.0638
     52 H           3.8584   -2.8224   -0.5925 H       1  UNL1        0.0637
@<TRIPOS>BOND
     1     1     2    2
     2     2     3    1
     3     3     4    2
     4     3     5   am
     5     5     6    1
     6     6     7   ar
     7     7     8   ar
     8     8     9   ar
     9     9    10    1
    10    10    11    2
    11    10    12    2
    12    10    13    1
    13    13    14    1
    14    14    15    1
    15    15    16    1
    16    16    17   am
    17    17    18    2
    18    17    19    1
    19    19    20    1
    20    20    21    1
    21    21    22    1
    22    22    23    1
    23    16    24    1
    24    24    25    1
    25     9    26   ar
    26    26    27   ar
    27    27     6   ar
    28    25    13    1
    29    23    19    1
    30     1    28    1
    31     1    29    1
    32     2    30    1
    33     5    31    1
    34     7    32    1
    35     8    33    1
    36    14    34    1
    37    14    35    1
    38    15    36    1
    39    15    37    1
    40    19    38    1
    41    20    39    1
    42    20    40    1
    43    21    41    1
    44    21    42    1
    45    22    43    1
    46    22    44    1
    47    23    45    1
    48    23    46    1
    49    24    47    1
    50    24    48    1
    51    25    49    1
    52    25    50    1
    53    26    51    1
    54    27    52    1
