@<TRIPOS>MOLECULE
*****
 42 44 0 0 0
SMALL
GASTEIGER

@<TRIPOS>ATOM
      1 C           1.8550    0.0950    0.5849 C.3     1  UNL1        0.1134
      2 C           3.1843    0.7656    0.5898 C.3     1  UNL1        0.0878
      3 O           4.1288   -0.1189    0.1016 O.3     1  UNL1       -0.2841
      4 P           5.6706    0.5379    0.0640 P.3     1  UNL1        0.4724
      5 O           5.8571    1.7740   -1.0529 O.3     1  UNL1       -0.3026
      6 O           6.0669    1.1320    1.6165 O.3     1  UNL1       -0.3026
      7 O           6.6523   -0.5721   -0.2829 O.2     1  UNL1       -0.2275
      8 O           0.8069    0.8932    1.0603 O.3     1  UNL1       -0.3456
      9 C          -0.2987    0.0452    0.8708 C.3     1  UNL1        0.1675
     10 N          -1.5015    0.8413    0.8776 N.ar    1  UNL1       -0.2855
     11 C          -1.6104    2.1022    1.3843 C.ar    1  UNL1        0.1004
     12 N          -2.8821    2.5484    1.2231 N.ar    1  UNL1       -0.2306
     13 C          -3.6180    1.5938    0.6136 C.ar    1  UNL1        0.1473
     14 C          -4.9336    1.5459    0.2300 C.ar    1  UNL1        0.1472
     15 N          -5.7883    2.6494    0.4637 N.pl3   1  UNL1       -0.3413
     16 N          -5.3518    0.4095   -0.3692 N.ar    1  UNL1       -0.2188
     17 C          -4.4972   -0.6198   -0.5714 C.ar    1  UNL1        0.1205
     18 N          -3.2068   -0.5524   -0.1864 N.ar    1  UNL1       -0.2159
     19 C          -2.7321    0.5534    0.4153 C.ar    1  UNL1        0.1674
     20 C          -0.0707   -0.7105   -0.4073 C.3     1  UNL1        0.1433
     21 O           0.1100   -2.0481   -0.0665 O.3     1  UNL1       -0.2762
     22 P          -0.8575   -3.1177   -0.8962 P.3     1  UNL1        0.4728
     23 O           0.0054   -4.5529   -1.1415 O.3     1  UNL1       -0.3026
     24 O          -1.3847   -2.5486   -2.3849 O.3     1  UNL1       -0.3026
     25 O          -2.0260   -3.4678    0.0125 O.2     1  UNL1       -0.2275
     26 C           1.3264   -0.2088   -0.8018 C.3     1  UNL1        0.1144
     27 O           2.0874   -1.1843   -1.3921 O.3     1  UNL1       -0.3864
     28 H           1.9181   -0.8473    1.1423 H       1  UNL1        0.0647
     29 H           3.2147    1.6924   -0.0071 H       1  UNL1        0.0592
     30 H           3.4352    0.9902    1.6357 H       1  UNL1        0.0592
     31 H           5.1347    2.4424   -1.0119 H       1  UNL1        0.2220
     32 H           5.9146    0.4136    2.2962 H       1  UNL1        0.2220
     33 H          -0.2723   -0.6214    1.7831 H       1  UNL1        0.0867
     34 H          -0.8187    2.6867    1.8517 H       1  UNL1        0.1030
     35 H          -5.8752    3.5223   -0.1016 H       1  UNL1        0.1438
     36 H          -6.3555    2.4530    1.3379 H       1  UNL1        0.1438
     37 H          -4.9243   -1.4996   -1.0639 H       1  UNL1        0.1048
     38 H          -0.8234   -0.5299   -1.1752 H       1  UNL1        0.0674
     39 H          -0.0091   -5.1277   -0.3291 H       1  UNL1        0.2220
     40 H          -0.7463   -2.8207   -3.1074 H       1  UNL1        0.2220
     41 H           1.2479    0.6964   -1.4318 H       1  UNL1        0.0648
     42 H           1.9680   -1.2352   -2.3740 H       1  UNL1        0.2100
@<TRIPOS>BOND
     1     1     2    1
     2     2     3    1
     3     3     4    1
     4     4     5    1
     5     4     6    1
     6     4     7    2
     7     1     8    1
     8     8     9    1
     9     9    10    1
    10    10    11   ar
    11    11    12   ar
    12    12    13   ar
    13    13    14   ar
    14    14    15    1
    15    14    16   ar
    16    16    17   ar
    17    17    18   ar
    18    18    19   ar
    19     9    20    1
    20    20    21    1
    21    21    22    1
    22    22    23    1
    23    22    24    1
    24    22    25    2
    25    20    26    1
    26    26    27    1
    27    26     1    1
    28    19    10   ar
    29    19    13   ar
    30     1    28    1
    31     2    29    1
    32     2    30    1
    33     5    31    1
    34     6    32    1
    35     9    33    1
    36    11    34    1
    37    15    35    1
    38    15    36    1
    39    17    37    1
    40    20    38    1
    41    23    39    1
    42    24    40    1
    43    26    41    1
    44    27    42    1
