@<TRIPOS>MOLECULE
*****
 41 40 0 0 0
SMALL
GASTEIGER

@<TRIPOS>ATOM
      1 C          -6.1342   -0.6517   -1.1206 C.3     1  UNL1       -0.0653
      2 C          -6.1647    0.0998    0.1928 C.3     1  UNL1       -0.0559
      3 C          -4.8937   -0.2034    0.9384 C.3     1  UNL1       -0.0533
      4 C          -3.7289    0.2603    0.0707 C.3     1  UNL1       -0.0531
      5 C          -2.4285   -0.0406    0.8141 C.3     1  UNL1       -0.0531
      6 C          -1.2108    0.3912    0.0185 C.3     1  UNL1       -0.0531
      7 C          -0.0031    0.0501    0.8377 C.3     1  UNL1       -0.0531
      8 C           1.2918    0.4373    0.1424 C.3     1  UNL1       -0.0531
      9 C           2.4267    0.0497    1.0526 C.3     1  UNL1       -0.0530
     10 C           3.7888    0.3652    0.5129 C.3     1  UNL1       -0.0526
     11 C           4.1202   -0.3016   -0.7739 C.3     1  UNL1       -0.0430
     12 C           5.4967    0.0348   -1.2919 C.3     1  UNL1        0.0448
     13 C           6.5679   -0.3564   -0.3573 C.2     1  UNL1        0.3047
     14 O           7.8707   -0.0750   -0.7715 O.3     1  UNL1       -0.4806
     15 O           6.5414   -0.9175    0.7889 O.2     1  UNL1       -0.2510
     16 H          -5.7328   -0.0252   -1.9335 H       1  UNL1        0.0230
     17 H          -7.1744   -0.9113   -1.3861 H       1  UNL1        0.0230
     18 H          -5.5490   -1.5984   -1.0020 H       1  UNL1        0.0230
     19 H          -7.0657   -0.1427    0.7934 H       1  UNL1        0.0263
     20 H          -6.2079    1.1943   -0.0168 H       1  UNL1        0.0263
     21 H          -4.8553    0.3533    1.8988 H       1  UNL1        0.0265
     22 H          -4.7868   -1.2865    1.1116 H       1  UNL1        0.0265
     23 H          -3.7783    1.3383   -0.0897 H       1  UNL1        0.0265
     24 H          -3.8018   -0.3057   -0.8640 H       1  UNL1        0.0265
     25 H          -2.3993    0.4837    1.7883 H       1  UNL1        0.0265
     26 H          -2.4333   -1.1232    1.0049 H       1  UNL1        0.0265
     27 H          -1.2340    1.4683   -0.1932 H       1  UNL1        0.0265
     28 H          -1.1909   -0.1457   -0.9658 H       1  UNL1        0.0265
     29 H          -0.0549   -1.0244    1.0927 H       1  UNL1        0.0265
     30 H          -0.1011    0.6242    1.8047 H       1  UNL1        0.0265
     31 H           1.2533    1.5447    0.0316 H       1  UNL1        0.0265
     32 H           1.3250   -0.0344   -0.8388 H       1  UNL1        0.0265
     33 H           2.3723   -1.0329    1.2792 H       1  UNL1        0.0265
     34 H           2.2981    0.5908    2.0011 H       1  UNL1        0.0265
     35 H           4.5050    0.2098    1.3163 H       1  UNL1        0.0265
     36 H           3.7946    1.4767    0.3200 H       1  UNL1        0.0265
     37 H           4.0992   -1.4154   -0.6701 H       1  UNL1        0.0270
     38 H           3.3410   -0.0514   -1.5201 H       1  UNL1        0.0270
     39 H           5.4898    1.1439   -1.4861 H       1  UNL1        0.0377
     40 H           5.6800   -0.4328   -2.2800 H       1  UNL1        0.0377
     41 H           8.6671   -0.0405   -0.1194 H       1  UNL1        0.2951
@<TRIPOS>BOND
     1     1     2    1
     2     2     3    1
     3     3     4    1
     4     4     5    1
     5     5     6    1
     6     6     7    1
     7     7     8    1
     8     8     9    1
     9     9    10    1
    10    10    11    1
    11    11    12    1
    12    12    13    1
    13    13    14    1
    14    13    15    2
    15     1    16    1
    16     1    17    1
    17     1    18    1
    18     2    19    1
    19     2    20    1
    20     3    21    1
    21     3    22    1
    22     4    23    1
    23     4    24    1
    24     5    25    1
    25     5    26    1
    26     6    27    1
    27     6    28    1
    28     7    29    1
    29     7    30    1
    30     8    31    1
    31     8    32    1
    32     9    33    1
    33     9    34    1
    34    10    35    1
    35    10    36    1
    36    11    37    1
    37    11    38    1
    38    12    39    1
    39    12    40    1
    40    14    41    1
