
     RDKit          3D

 41 40  0  0  0  0  0  0  0  0999 V2000
   -6.1342   -0.6517   -1.1206 C   0  0  0  0  0  0  0  0  0  0  0  0
   -6.1647    0.0998    0.1928 C   0  0  0  0  0  0  0  0  0  0  0  0
   -4.8937   -0.2034    0.9384 C   0  0  0  0  0  0  0  0  0  0  0  0
   -3.7289    0.2603    0.0707 C   0  0  0  0  0  0  0  0  0  0  0  0
   -2.4285   -0.0406    0.8141 C   0  0  0  0  0  0  0  0  0  0  0  0
   -1.2108    0.3912    0.0185 C   0  0  0  0  0  0  0  0  0  0  0  0
   -0.0031    0.0501    0.8377 C   0  0  0  0  0  0  0  0  0  0  0  0
    1.2918    0.4373    0.1424 C   0  0  0  0  0  0  0  0  0  0  0  0
    2.4267    0.0497    1.0526 C   0  0  0  0  0  0  0  0  0  0  0  0
    3.7888    0.3652    0.5129 C   0  0  0  0  0  0  0  0  0  0  0  0
    4.1202   -0.3016   -0.7739 C   0  0  0  0  0  0  0  0  0  0  0  0
    5.4967    0.0348   -1.2919 C   0  0  0  0  0  0  0  0  0  0  0  0
    6.5679   -0.3564   -0.3573 C   0  0  0  0  0  0  0  0  0  0  0  0
    7.8707   -0.0750   -0.7715 O   0  0  0  0  0  0  0  0  0  0  0  0
    6.5414   -0.9175    0.7889 O   0  0  0  0  0  0  0  0  0  0  0  0
   -5.7328   -0.0252   -1.9335 H   0  0  0  0  0  0  0  0  0  0  0  0
   -7.1744   -0.9113   -1.3861 H   0  0  0  0  0  0  0  0  0  0  0  0
   -5.5490   -1.5984   -1.0020 H   0  0  0  0  0  0  0  0  0  0  0  0
   -7.0657   -0.1427    0.7934 H   0  0  0  0  0  0  0  0  0  0  0  0
   -6.2079    1.1943   -0.0168 H   0  0  0  0  0  0  0  0  0  0  0  0
   -4.8553    0.3533    1.8988 H   0  0  0  0  0  0  0  0  0  0  0  0
   -4.7868   -1.2865    1.1116 H   0  0  0  0  0  0  0  0  0  0  0  0
   -3.7783    1.3383   -0.0897 H   0  0  0  0  0  0  0  0  0  0  0  0
   -3.8018   -0.3057   -0.8640 H   0  0  0  0  0  0  0  0  0  0  0  0
   -2.3993    0.4837    1.7883 H   0  0  0  0  0  0  0  0  0  0  0  0
   -2.4333   -1.1232    1.0049 H   0  0  0  0  0  0  0  0  0  0  0  0
   -1.2340    1.4683   -0.1932 H   0  0  0  0  0  0  0  0  0  0  0  0
   -1.1909   -0.1457   -0.9658 H   0  0  0  0  0  0  0  0  0  0  0  0
   -0.0549   -1.0244    1.0927 H   0  0  0  0  0  0  0  0  0  0  0  0
   -0.1011    0.6242    1.8047 H   0  0  0  0  0  0  0  0  0  0  0  0
    1.2533    1.5447    0.0316 H   0  0  0  0  0  0  0  0  0  0  0  0
    1.3250   -0.0344   -0.8388 H   0  0  0  0  0  0  0  0  0  0  0  0
    2.3723   -1.0329    1.2792 H   0  0  0  0  0  0  0  0  0  0  0  0
    2.2981    0.5908    2.0011 H   0  0  0  0  0  0  0  0  0  0  0  0
    4.5050    0.2098    1.3163 H   0  0  0  0  0  0  0  0  0  0  0  0
    3.7946    1.4767    0.3200 H   0  0  0  0  0  0  0  0  0  0  0  0
    4.0992   -1.4154   -0.6701 H   0  0  0  0  0  0  0  0  0  0  0  0
    3.3410   -0.0514   -1.5201 H   0  0  0  0  0  0  0  0  0  0  0  0
    5.4898    1.1439   -1.4861 H   0  0  0  0  0  0  0  0  0  0  0  0
    5.6800   -0.4328   -2.2800 H   0  0  0  0  0  0  0  0  0  0  0  0
    8.6671   -0.0405   -0.1194 H   0  0  0  0  0  0  0  0  0  0  0  0
  1  2  1  0
  2  3  1  0
  3  4  1  0
  4  5  1  0
  5  6  1  0
  6  7  1  0
  7  8  1  0
  8  9  1  0
  9 10  1  0
 10 11  1  0
 11 12  1  0
 12 13  1  0
 13 14  1  0
 13 15  2  0
  1 16  1  0
  1 17  1  0
  1 18  1  0
  2 19  1  0
  2 20  1  0
  3 21  1  0
  3 22  1  0
  4 23  1  0
  4 24  1  0
  5 25  1  0
  5 26  1  0
  6 27  1  0
  6 28  1  0
  7 29  1  0
  7 30  1  0
  8 31  1  0
  8 32  1  0
  9 33  1  0
  9 34  1  0
 10 35  1  0
 10 36  1  0
 11 37  1  0
 11 38  1  0
 12 39  1  0
 12 40  1  0
 14 41  1  0
M  END
$$$$
