@<TRIPOS>MOLECULE
*****
 48 49 0 0 0
SMALL
GASTEIGER

@<TRIPOS>ATOM
      1 C           8.5093    0.3627   -0.7507 C.3     1  UNL1       -0.0652
      2 C           7.1410   -0.2783   -0.6648 C.3     1  UNL1       -0.0528
      3 C           6.2000    0.7427   -0.0839 C.3     1  UNL1       -0.0189
      4 C           4.7919    0.1736    0.0392 C.3     1  UNL1        0.0896
      5 O           3.9193    1.1419    0.5821 O.3     1  UNL1       -0.4920
      6 C           2.5796    0.8811    0.8044 C.ar    1  UNL1        0.1205
      7 C           1.8162    1.8980    1.3349 C.ar    1  UNL1       -0.0193
      8 C           0.4782    1.6117    1.5486 C.ar    1  UNL1       -0.0478
      9 C          -0.1849    0.4404    1.2984 C.ar    1  UNL1        0.0177
     10 C           0.6979   -0.5105    0.7629 C.ar    1  UNL1       -0.0478
     11 C           2.0339   -0.3347    0.5113 C.ar    1  UNL1       -0.0193
     12 C          -1.6203    0.2081    1.5490 C.2     1  UNL1        0.1644
     13 O          -2.0735    1.2771    2.0048 O.2     1  UNL1       -0.2920
     14 C          -1.9990   -1.1454    1.1900 C.3     1  UNL1        0.0232
     15 C          -3.4396   -1.5063    1.3048 C.3     1  UNL1        0.0059
     16 N          -4.2811   -0.8047    0.4470 N.3     1  UNL1       -0.3019
     17 C          -4.5907    0.5407    0.5689 C.3     1  UNL1       -0.0011
     18 C          -5.9545    0.9132   -0.0258 C.3     1  UNL1       -0.0402
     19 C          -6.0619    0.4401   -1.4462 C.3     1  UNL1       -0.0507
     20 C          -5.3265   -0.8472   -1.7047 C.3     1  UNL1       -0.0402
     21 C          -5.0999   -1.6117   -0.4246 C.3     1  UNL1       -0.0011
     22 H           8.3720    1.3785   -1.1410 H       1  UNL1        0.0230
     23 H           8.9649    0.3703    0.2637 H       1  UNL1        0.0230
     24 H           9.1303   -0.2862   -1.3976 H       1  UNL1        0.0230
     25 H           6.8074   -0.5537   -1.6912 H       1  UNL1        0.0264
     26 H           7.1456   -1.1898   -0.0520 H       1  UNL1        0.0264
     27 H           6.5894    1.0148    0.9208 H       1  UNL1        0.0298
     28 H           6.1496    1.6087   -0.7628 H       1  UNL1        0.0298
     29 H           4.8291   -0.7322    0.6996 H       1  UNL1        0.0696
     30 H           4.4393   -0.1884   -0.9357 H       1  UNL1        0.0696
     31 H           2.2413    2.8557    1.5672 H       1  UNL1        0.0654
     32 H          -0.0810    2.4472    1.9693 H       1  UNL1        0.0626
     33 H           0.2867   -1.4939    0.5197 H       1  UNL1        0.0626
     34 H           2.6185   -1.1289    0.0992 H       1  UNL1        0.0654
     35 H          -1.6863   -1.2724    0.0972 H       1  UNL1        0.0358
     36 H          -1.3391   -1.9188    1.6932 H       1  UNL1        0.0358
     37 H          -3.6979   -1.3368    2.4072 H       1  UNL1        0.0431
     38 H          -3.5143   -2.6299    1.1937 H       1  UNL1        0.0431
     39 H          -3.8728    1.1836    0.0314 H       1  UNL1        0.0426
     40 H          -4.6545    0.9304    1.6211 H       1  UNL1        0.0426
     41 H          -6.0101    2.0203    0.0294 H       1  UNL1        0.0278
     42 H          -6.7194    0.4616    0.6301 H       1  UNL1        0.0278
     43 H          -7.1434    0.2522   -1.6314 H       1  UNL1        0.0266
     44 H          -5.6609    1.1972   -2.1606 H       1  UNL1        0.0266
     45 H          -4.3230   -0.6135   -2.1205 H       1  UNL1        0.0278
     46 H          -5.9180   -1.4837   -2.4132 H       1  UNL1        0.0278
     47 H          -4.4783   -2.4950   -0.7011 H       1  UNL1        0.0426
     48 H          -6.0105   -1.9900    0.0473 H       1  UNL1        0.0426
@<TRIPOS>BOND
     1     1     2    1
     2     2     3    1
     3     3     4    1
     4     4     5    1
     5     5     6    1
     6     6     7   ar
     7     7     8   ar
     8     8     9   ar
     9     9    10   ar
    10    10    11   ar
    11     9    12    1
    12    12    13    2
    13    12    14    1
    14    14    15    1
    15    15    16    1
    16    16    17    1
    17    17    18    1
    18    18    19    1
    19    19    20    1
    20    20    21    1
    21    11     6   ar
    22    21    16    1
    23     1    22    1
    24     1    23    1
    25     1    24    1
    26     2    25    1
    27     2    26    1
    28     3    27    1
    29     3    28    1
    30     4    29    1
    31     4    30    1
    32     7    31    1
    33     8    32    1
    34    10    33    1
    35    11    34    1
    36    14    35    1
    37    14    36    1
    38    15    37    1
    39    15    38    1
    40    17    39    1
    41    17    40    1
    42    18    41    1
    43    18    42    1
    44    19    43    1
    45    19    44    1
    46    20    45    1
    47    20    46    1
    48    21    47    1
    49    21    48    1
