
     RDKit          3D

 48 49  0  0  0  0  0  0  0  0999 V2000
    8.5093    0.3627   -0.7507 C   0  0  0  0  0  0  0  0  0  0  0  0
    7.1410   -0.2783   -0.6648 C   0  0  0  0  0  0  0  0  0  0  0  0
    6.2000    0.7427   -0.0839 C   0  0  0  0  0  0  0  0  0  0  0  0
    4.7919    0.1736    0.0392 C   0  0  0  0  0  0  0  0  0  0  0  0
    3.9193    1.1419    0.5821 O   0  0  0  0  0  0  0  0  0  0  0  0
    2.5796    0.8811    0.8044 C   0  0  0  0  0  0  0  0  0  0  0  0
    1.8162    1.8980    1.3349 C   0  0  0  0  0  0  0  0  0  0  0  0
    0.4782    1.6117    1.5486 C   0  0  0  0  0  0  0  0  0  0  0  0
   -0.1849    0.4404    1.2984 C   0  0  0  0  0  0  0  0  0  0  0  0
    0.6979   -0.5105    0.7629 C   0  0  0  0  0  0  0  0  0  0  0  0
    2.0339   -0.3347    0.5113 C   0  0  0  0  0  0  0  0  0  0  0  0
   -1.6203    0.2081    1.5490 C   0  0  0  0  0  0  0  0  0  0  0  0
   -2.0735    1.2771    2.0048 O   0  0  0  0  0  0  0  0  0  0  0  0
   -1.9990   -1.1454    1.1900 C   0  0  0  0  0  0  0  0  0  0  0  0
   -3.4396   -1.5063    1.3048 C   0  0  0  0  0  0  0  0  0  0  0  0
   -4.2811   -0.8047    0.4470 N   0  0  0  0  0  0  0  0  0  0  0  0
   -4.5907    0.5407    0.5689 C   0  0  0  0  0  0  0  0  0  0  0  0
   -5.9545    0.9132   -0.0258 C   0  0  0  0  0  0  0  0  0  0  0  0
   -6.0619    0.4401   -1.4462 C   0  0  0  0  0  0  0  0  0  0  0  0
   -5.3265   -0.8472   -1.7047 C   0  0  0  0  0  0  0  0  0  0  0  0
   -5.0999   -1.6117   -0.4246 C   0  0  0  0  0  0  0  0  0  0  0  0
    8.3720    1.3785   -1.1410 H   0  0  0  0  0  0  0  0  0  0  0  0
    8.9649    0.3703    0.2637 H   0  0  0  0  0  0  0  0  0  0  0  0
    9.1303   -0.2862   -1.3976 H   0  0  0  0  0  0  0  0  0  0  0  0
    6.8074   -0.5537   -1.6912 H   0  0  0  0  0  0  0  0  0  0  0  0
    7.1456   -1.1898   -0.0520 H   0  0  0  0  0  0  0  0  0  0  0  0
    6.5894    1.0148    0.9208 H   0  0  0  0  0  0  0  0  0  0  0  0
    6.1496    1.6087   -0.7628 H   0  0  0  0  0  0  0  0  0  0  0  0
    4.8291   -0.7322    0.6996 H   0  0  0  0  0  0  0  0  0  0  0  0
    4.4393   -0.1884   -0.9357 H   0  0  0  0  0  0  0  0  0  0  0  0
    2.2413    2.8557    1.5672 H   0  0  0  0  0  0  0  0  0  0  0  0
   -0.0810    2.4472    1.9693 H   0  0  0  0  0  0  0  0  0  0  0  0
    0.2867   -1.4939    0.5197 H   0  0  0  0  0  0  0  0  0  0  0  0
    2.6185   -1.1289    0.0992 H   0  0  0  0  0  0  0  0  0  0  0  0
   -1.6863   -1.2724    0.0972 H   0  0  0  0  0  0  0  0  0  0  0  0
   -1.3391   -1.9188    1.6932 H   0  0  0  0  0  0  0  0  0  0  0  0
   -3.6979   -1.3368    2.4072 H   0  0  0  0  0  0  0  0  0  0  0  0
   -3.5143   -2.6299    1.1937 H   0  0  0  0  0  0  0  0  0  0  0  0
   -3.8728    1.1836    0.0314 H   0  0  0  0  0  0  0  0  0  0  0  0
   -4.6545    0.9304    1.6211 H   0  0  0  0  0  0  0  0  0  0  0  0
   -6.0101    2.0203    0.0294 H   0  0  0  0  0  0  0  0  0  0  0  0
   -6.7194    0.4616    0.6301 H   0  0  0  0  0  0  0  0  0  0  0  0
   -7.1434    0.2522   -1.6314 H   0  0  0  0  0  0  0  0  0  0  0  0
   -5.6609    1.1972   -2.1606 H   0  0  0  0  0  0  0  0  0  0  0  0
   -4.3230   -0.6135   -2.1205 H   0  0  0  0  0  0  0  0  0  0  0  0
   -5.9180   -1.4837   -2.4132 H   0  0  0  0  0  0  0  0  0  0  0  0
   -4.4783   -2.4950   -0.7011 H   0  0  0  0  0  0  0  0  0  0  0  0
   -6.0105   -1.9900    0.0473 H   0  0  0  0  0  0  0  0  0  0  0  0
  1  2  1  0
  2  3  1  0
  3  4  1  0
  4  5  1  0
  5  6  1  0
  6  7  2  0
  7  8  1  0
  8  9  2  0
  9 10  1  0
 10 11  2  0
  9 12  1  0
 12 13  2  0
 12 14  1  0
 14 15  1  0
 15 16  1  0
 16 17  1  0
 17 18  1  0
 18 19  1  0
 19 20  1  0
 20 21  1  0
 11  6  1  0
 21 16  1  0
  1 22  1  0
  1 23  1  0
  1 24  1  0
  2 25  1  0
  2 26  1  0
  3 27  1  0
  3 28  1  0
  4 29  1  0
  4 30  1  0
  7 31  1  0
  8 32  1  0
 10 33  1  0
 11 34  1  0
 14 35  1  0
 14 36  1  0
 15 37  1  0
 15 38  1  0
 17 39  1  0
 17 40  1  0
 18 41  1  0
 18 42  1  0
 19 43  1  0
 19 44  1  0
 20 45  1  0
 20 46  1  0
 21 47  1  0
 21 48  1  0
M  END
$$$$
