@<TRIPOS>MOLECULE
*****
 44 46 0 0 0
SMALL
GASTEIGER

@<TRIPOS>ATOM
      1 C          -4.3233   -0.0556    1.9760 C.3     1  UNL1        0.0790
      2 O          -3.5421    0.1581    0.8350 O.3     1  UNL1       -0.4915
      3 C          -2.1380    0.0145    0.8548 C.ar    1  UNL1        0.1616
      4 C          -1.5131   -0.3477    2.0336 C.ar    1  UNL1       -0.0156
      5 C          -0.1377   -0.5034    2.1115 C.ar    1  UNL1       -0.0459
      6 C           0.6696   -0.3037    1.0147 C.ar    1  UNL1        0.0407
      7 C           2.1239   -0.4653    1.0831 C.2     1  UNL1        0.2484
      8 O           2.8447   -0.2644    0.0541 O.2     1  UNL1       -0.2698
      9 N           2.8207   -0.8426    2.2483 N.am    1  UNL1       -0.2791
     10 C           4.2401   -0.9935    2.2884 C.ar    1  UNL1        0.0707
     11 C           4.9899    0.1094    2.6271 C.ar    1  UNL1        0.0636
     12 CL          4.2827    1.6635    3.0032 Cl      1  UNL1       -0.0816
     13 C           6.3779   -0.0062    2.6765 C.ar    1  UNL1       -0.0415
     14 C           7.0191   -1.1906    2.3964 C.ar    1  UNL1       -0.0589
     15 C           6.2539   -2.3092    2.0524 C.ar    1  UNL1       -0.0415
     16 C           4.8766   -2.1808    2.0072 C.ar    1  UNL1        0.0636
     17 CL          3.8588   -3.5564    1.5794 Cl      1  UNL1       -0.0816
     18 C           0.0391    0.0545   -0.1468 C.ar    1  UNL1       -0.0042
     19 C          -1.3569    0.2198   -0.2537 C.ar    1  UNL1        0.1630
     20 O          -1.8811    0.5751   -1.4458 O.3     1  UNL1       -0.4851
     21 C          -3.1284    0.8250   -1.9308 C.3     1  UNL1        0.1004
     22 C          -3.3405   -0.0917   -3.1479 C.3     1  UNL1       -0.0158
     23 C          -3.3101    0.7673   -4.3650 C.3     1  UNL1       -0.0496
     24 C          -2.5687    2.0079   -3.8795 C.3     1  UNL1       -0.0496
     25 C          -3.2594    2.2177   -2.5499 C.3     1  UNL1       -0.0158
     26 H          -5.3651    0.1637    1.7487 H       1  UNL1        0.0660
     27 H          -4.1942   -1.1216    2.3015 H       1  UNL1        0.0660
     28 H          -3.9026    0.5736    2.8108 H       1  UNL1        0.0660
     29 H          -2.1649   -0.5047    2.9013 H       1  UNL1        0.0655
     30 H           0.3127   -0.7901    3.0617 H       1  UNL1        0.0626
     31 H           2.2862   -1.0231    3.1319 H       1  UNL1        0.1552
     32 H           6.9637    0.8732    2.9463 H       1  UNL1        0.0633
     33 H           8.1092   -1.2920    2.4322 H       1  UNL1        0.0618
     34 H           6.7042   -3.2602    1.8234 H       1  UNL1        0.0633
     35 H           0.6497    0.2220   -1.0402 H       1  UNL1        0.0663
     36 H          -3.9956    0.7123   -1.2717 H       1  UNL1        0.0733
     37 H          -4.3093   -0.6145   -3.0761 H       1  UNL1        0.0301
     38 H          -2.5181   -0.8393   -3.2357 H       1  UNL1        0.0301
     39 H          -4.3453    1.1357   -4.6215 H       1  UNL1        0.0266
     40 H          -2.8147    0.3127   -5.2423 H       1  UNL1        0.0266
     41 H          -1.5059    1.7172   -3.7750 H       1  UNL1        0.0266
     42 H          -2.7229    2.8628   -4.5686 H       1  UNL1        0.0266
     43 H          -4.3190    2.3886   -2.7474 H       1  UNL1        0.0301
     44 H          -2.7659    2.9822   -1.9213 H       1  UNL1        0.0301
@<TRIPOS>BOND
     1     1     2    1
     2     2     3    1
     3     3     4   ar
     4     4     5   ar
     5     5     6   ar
     6     6     7    1
     7     7     8    2
     8     7     9   am
     9     9    10    1
    10    10    11   ar
    11    11    12    1
    12    11    13   ar
    13    13    14   ar
    14    14    15   ar
    15    15    16   ar
    16    16    17    1
    17     6    18   ar
    18    18    19   ar
    19    19    20    1
    20    20    21    1
    21    21    22    1
    22    22    23    1
    23    23    24    1
    24    24    25    1
    25    19     3   ar
    26    25    21    1
    27    16    10   ar
    28     1    26    1
    29     1    27    1
    30     1    28    1
    31     4    29    1
    32     5    30    1
    33     9    31    1
    34    13    32    1
    35    14    33    1
    36    15    34    1
    37    18    35    1
    38    21    36    1
    39    22    37    1
    40    22    38    1
    41    23    39    1
    42    23    40    1
    43    24    41    1
    44    24    42    1
    45    25    43    1
    46    25    44    1
