@<TRIPOS>MOLECULE
*****
 64 68 0 0 0
SMALL
GASTEIGER

@<TRIPOS>ATOM
      1 O           6.8092   -1.9258   -3.6912 O.2     1  UNL1       -0.2451
      2 C           6.5397   -1.7814   -2.4737 C.2     1  UNL1        0.3368
      3 O           7.4652   -2.2547   -1.5549 O.3     1  UNL1       -0.4771
      4 C           5.3071   -1.1436   -2.0422 C.ar    1  UNL1        0.0595
      5 C           5.0182   -0.9882   -0.7067 C.ar    1  UNL1       -0.0460
      6 C           3.8218   -0.3693   -0.3257 C.ar    1  UNL1       -0.0392
      7 C           2.9146    0.0942   -1.2570 C.ar    1  UNL1        0.0452
      8 N           1.6927    0.7290   -0.8207 N.am    1  UNL1       -0.2833
      9 C           0.5205   -0.0116   -0.5714 C.2     1  UNL1        0.2404
     10 O           0.6094   -1.2470   -0.7631 O.2     1  UNL1       -0.2732
     11 C          -0.7435    0.5623   -0.1240 C.3     1  UNL1        0.1154
     12 C          -0.7695    1.0387    1.3041 C.3     1  UNL1       -0.0116
     13 C           0.2948    2.0816    1.5179 C.3     1  UNL1       -0.0479
     14 C           0.1926    2.7247    2.8917 C.3     1  UNL1       -0.0527
     15 C          -1.1115    3.4318    3.0395 C.3     1  UNL1       -0.0530
     16 C          -2.2069    2.3855    2.8517 C.3     1  UNL1       -0.0527
     17 C          -2.1123    1.7461    1.5107 C.3     1  UNL1       -0.0479
     18 N          -1.8848   -0.2780   -0.4471 N.ar    1  UNL1       -0.3113
     19 C          -2.4262   -1.2722    0.2640 C.ar    1  UNL1        0.1425
     20 C          -2.0667   -1.8200    1.5629 C.ar    1  UNL1        0.0176
     21 C          -1.0104   -2.6500    1.8255 C.ar    1  UNL1       -0.0497
     22 C          -0.7321   -3.1544    3.0822 C.ar    1  UNL1       -0.0427
     23 C          -1.5371   -2.8289    4.1550 C.ar    1  UNL1        0.0410
     24 CL         -1.1849   -3.4704    5.7595 Cl      1  UNL1       -0.0835
     25 C          -2.6031   -2.0000    3.9234 C.ar    1  UNL1       -0.0427
     26 C          -2.8715   -1.5007    2.6588 C.ar    1  UNL1       -0.0497
     27 N          -3.4786   -1.7416   -0.5005 N.ar    1  UNL1       -0.2275
     28 C          -3.5584   -1.0419   -1.6373 C.ar    1  UNL1        0.0897
     29 C          -4.4182   -1.1104   -2.7240 C.ar    1  UNL1       -0.0342
     30 C          -4.2954   -0.2615   -3.8002 C.ar    1  UNL1       -0.0596
     31 C          -3.2865    0.6768   -3.7836 C.ar    1  UNL1       -0.0597
     32 C          -2.4253    0.7521   -2.7048 C.ar    1  UNL1       -0.0360
     33 C          -2.5546   -0.1029   -1.6289 C.ar    1  UNL1        0.0698
     34 C           3.2160   -0.0676   -2.6004 C.ar    1  UNL1        0.0767
     35 C           2.2763    0.4160   -3.6446 C.3     1  UNL1        0.4191
     36 F           2.8065    0.1374   -4.8944 F       1  UNL1       -0.1658
     37 F           2.1633    1.7922   -3.5382 F       1  UNL1       -0.1658
     38 F           1.0586   -0.1992   -3.5812 F       1  UNL1       -0.1658
     39 C           4.3993   -0.6797   -2.9632 C.ar    1  UNL1       -0.0343
     40 H           7.9437   -3.1497   -1.7124 H       1  UNL1        0.2954
     41 H           5.7093   -1.3411    0.0284 H       1  UNL1        0.0626
     42 H           3.6614   -0.2815    0.7415 H       1  UNL1        0.0636
     43 H           1.7176    1.7522   -0.7224 H       1  UNL1        0.1549
     44 H          -0.8898    1.5256   -0.7266 H       1  UNL1        0.0627
     45 H          -0.6753    0.1983    2.0074 H       1  UNL1        0.0325
     46 H           0.2343    2.8352    0.7492 H       1  UNL1        0.0269
     47 H           1.3087    1.6144    1.5230 H       1  UNL1        0.0269
     48 H           0.3947    1.9881    3.6894 H       1  UNL1        0.0265
     49 H           1.0006    3.4888    2.9292 H       1  UNL1        0.0265
     50 H          -1.1775    4.1982    2.2387 H       1  UNL1        0.0265
     51 H          -1.2028    3.8449    4.0505 H       1  UNL1        0.0265
     52 H          -3.1656    2.9412    2.8934 H       1  UNL1        0.0265
     53 H          -2.0803    1.6494    3.6570 H       1  UNL1        0.0265
     54 H          -2.9168    1.0247    1.3777 H       1  UNL1        0.0269
     55 H          -2.1358    2.5728    0.7603 H       1  UNL1        0.0269
     56 H          -0.3635   -2.9424    1.0213 H       1  UNL1        0.0625
     57 H           0.1233   -3.8134    3.2417 H       1  UNL1        0.0632
     58 H          -3.2381   -1.7406    4.7575 H       1  UNL1        0.0632
     59 H          -3.7267   -0.8625    2.5601 H       1  UNL1        0.0625
     60 H          -5.1896   -1.8683   -2.6776 H       1  UNL1        0.0639
     61 H          -4.9890   -0.3359   -4.6482 H       1  UNL1        0.0618
     62 H          -3.1837    1.3463   -4.6239 H       1  UNL1        0.0618
     63 H          -1.6168    1.4909   -2.6726 H       1  UNL1        0.0639
     64 H           4.6292   -0.8032   -4.0105 H       1  UNL1        0.0632
@<TRIPOS>BOND
     1     1     2    2
     2     2     3    1
     3     2     4    1
     4     4     5   ar
     5     5     6   ar
     6     6     7   ar
     7     7     8    1
     8     8     9   am
     9     9    10    2
    10     9    11    1
    11    11    12    1
    12    12    13    1
    13    13    14    1
    14    14    15    1
    15    15    16    1
    16    16    17    1
    17    11    18    1
    18    18    19   ar
    19    19    20    1
    20    20    21   ar
    21    21    22   ar
    22    22    23   ar
    23    23    24    1
    24    23    25   ar
    25    25    26   ar
    26    19    27   ar
    27    27    28   ar
    28    28    29   ar
    29    29    30   ar
    30    30    31   ar
    31    31    32   ar
    32    32    33   ar
    33     7    34   ar
    34    34    35    1
    35    35    36    1
    36    35    37    1
    37    35    38    1
    38    34    39   ar
    39    39     4   ar
    40    17    12    1
    41    33    18   ar
    42    26    20   ar
    43    33    28   ar
    44     3    40    1
    45     5    41    1
    46     6    42    1
    47     8    43    1
    48    11    44    1
    49    12    45    1
    50    13    46    1
    51    13    47    1
    52    14    48    1
    53    14    49    1
    54    15    50    1
    55    15    51    1
    56    16    52    1
    57    16    53    1
    58    17    54    1
    59    17    55    1
    60    21    56    1
    61    22    57    1
    62    25    58    1
    63    26    59    1
    64    29    60    1
    65    30    61    1
    66    31    62    1
    67    32    63    1
    68    39    64    1
