
     RDKit          3D

 64 68  0  0  0  0  0  0  0  0999 V2000
    6.8092   -1.9258   -3.6912 O   0  0  0  0  0  0  0  0  0  0  0  0
    6.5397   -1.7814   -2.4737 C   0  0  0  0  0  0  0  0  0  0  0  0
    7.4652   -2.2547   -1.5549 O   0  0  0  0  0  0  0  0  0  0  0  0
    5.3071   -1.1436   -2.0422 C   0  0  0  0  0  0  0  0  0  0  0  0
    5.0182   -0.9882   -0.7067 C   0  0  0  0  0  0  0  0  0  0  0  0
    3.8218   -0.3693   -0.3257 C   0  0  0  0  0  0  0  0  0  0  0  0
    2.9146    0.0942   -1.2570 C   0  0  0  0  0  0  0  0  0  0  0  0
    1.6927    0.7290   -0.8207 N   0  0  0  0  0  0  0  0  0  0  0  0
    0.5205   -0.0116   -0.5714 C   0  0  0  0  0  0  0  0  0  0  0  0
    0.6094   -1.2470   -0.7631 O   0  0  0  0  0  0  0  0  0  0  0  0
   -0.7435    0.5623   -0.1240 C   0  0  2  0  0  0  0  0  0  0  0  0
   -0.7695    1.0387    1.3041 C   0  0  0  0  0  0  0  0  0  0  0  0
    0.2948    2.0816    1.5179 C   0  0  0  0  0  0  0  0  0  0  0  0
    0.1926    2.7247    2.8917 C   0  0  0  0  0  0  0  0  0  0  0  0
   -1.1115    3.4318    3.0395 C   0  0  0  0  0  0  0  0  0  0  0  0
   -2.2069    2.3855    2.8517 C   0  0  0  0  0  0  0  0  0  0  0  0
   -2.1123    1.7461    1.5107 C   0  0  0  0  0  0  0  0  0  0  0  0
   -1.8848   -0.2780   -0.4471 N   0  0  0  0  0  0  0  0  0  0  0  0
   -2.4262   -1.2722    0.2640 C   0  0  0  0  0  0  0  0  0  0  0  0
   -2.0667   -1.8200    1.5629 C   0  0  0  0  0  0  0  0  0  0  0  0
   -1.0104   -2.6500    1.8255 C   0  0  0  0  0  0  0  0  0  0  0  0
   -0.7321   -3.1544    3.0822 C   0  0  0  0  0  0  0  0  0  0  0  0
   -1.5371   -2.8289    4.1550 C   0  0  0  0  0  0  0  0  0  0  0  0
   -1.1849   -3.4704    5.7595 Cl  0  0  0  0  0  0  0  0  0  0  0  0
   -2.6031   -2.0000    3.9234 C   0  0  0  0  0  0  0  0  0  0  0  0
   -2.8715   -1.5007    2.6588 C   0  0  0  0  0  0  0  0  0  0  0  0
   -3.4786   -1.7416   -0.5005 N   0  0  0  0  0  0  0  0  0  0  0  0
   -3.5584   -1.0419   -1.6373 C   0  0  0  0  0  0  0  0  0  0  0  0
   -4.4182   -1.1104   -2.7240 C   0  0  0  0  0  0  0  0  0  0  0  0
   -4.2954   -0.2615   -3.8002 C   0  0  0  0  0  0  0  0  0  0  0  0
   -3.2865    0.6768   -3.7836 C   0  0  0  0  0  0  0  0  0  0  0  0
   -2.4253    0.7521   -2.7048 C   0  0  0  0  0  0  0  0  0  0  0  0
   -2.5546   -0.1029   -1.6289 C   0  0  0  0  0  0  0  0  0  0  0  0
    3.2160   -0.0676   -2.6004 C   0  0  0  0  0  0  0  0  0  0  0  0
    2.2763    0.4160   -3.6446 C   0  0  0  0  0  0  0  0  0  0  0  0
    2.8065    0.1374   -4.8944 F   0  0  0  0  0  0  0  0  0  0  0  0
    2.1633    1.7922   -3.5382 F   0  0  0  0  0  0  0  0  0  0  0  0
    1.0586   -0.1992   -3.5812 F   0  0  0  0  0  0  0  0  0  0  0  0
    4.3993   -0.6797   -2.9632 C   0  0  0  0  0  0  0  0  0  0  0  0
    7.9437   -3.1497   -1.7124 H   0  0  0  0  0  0  0  0  0  0  0  0
    5.7093   -1.3411    0.0284 H   0  0  0  0  0  0  0  0  0  0  0  0
    3.6614   -0.2815    0.7415 H   0  0  0  0  0  0  0  0  0  0  0  0
    1.7176    1.7522   -0.7224 H   0  0  0  0  0  0  0  0  0  0  0  0
   -0.8898    1.5256   -0.7266 H   0  0  0  0  0  0  0  0  0  0  0  0
   -0.6753    0.1983    2.0074 H   0  0  0  0  0  0  0  0  0  0  0  0
    0.2343    2.8352    0.7492 H   0  0  0  0  0  0  0  0  0  0  0  0
    1.3087    1.6144    1.5230 H   0  0  0  0  0  0  0  0  0  0  0  0
    0.3947    1.9881    3.6894 H   0  0  0  0  0  0  0  0  0  0  0  0
    1.0006    3.4888    2.9292 H   0  0  0  0  0  0  0  0  0  0  0  0
   -1.1775    4.1982    2.2387 H   0  0  0  0  0  0  0  0  0  0  0  0
   -1.2028    3.8449    4.0505 H   0  0  0  0  0  0  0  0  0  0  0  0
   -3.1656    2.9412    2.8934 H   0  0  0  0  0  0  0  0  0  0  0  0
   -2.0803    1.6494    3.6570 H   0  0  0  0  0  0  0  0  0  0  0  0
   -2.9168    1.0247    1.3777 H   0  0  0  0  0  0  0  0  0  0  0  0
   -2.1358    2.5728    0.7603 H   0  0  0  0  0  0  0  0  0  0  0  0
   -0.3635   -2.9424    1.0213 H   0  0  0  0  0  0  0  0  0  0  0  0
    0.1233   -3.8134    3.2417 H   0  0  0  0  0  0  0  0  0  0  0  0
   -3.2381   -1.7406    4.7575 H   0  0  0  0  0  0  0  0  0  0  0  0
   -3.7267   -0.8625    2.5601 H   0  0  0  0  0  0  0  0  0  0  0  0
   -5.1896   -1.8683   -2.6776 H   0  0  0  0  0  0  0  0  0  0  0  0
   -4.9890   -0.3359   -4.6482 H   0  0  0  0  0  0  0  0  0  0  0  0
   -3.1837    1.3463   -4.6239 H   0  0  0  0  0  0  0  0  0  0  0  0
   -1.6168    1.4909   -2.6726 H   0  0  0  0  0  0  0  0  0  0  0  0
    4.6292   -0.8032   -4.0105 H   0  0  0  0  0  0  0  0  0  0  0  0
  1  2  2  0
  2  3  1  0
  2  4  1  0
  4  5  2  0
  5  6  1  0
  6  7  2  0
  7  8  1  0
  8  9  1  0
  9 10  2  0
  9 11  1  0
 11 12  1  0
 12 13  1  0
 13 14  1  0
 14 15  1  0
 15 16  1  0
 16 17  1  0
 11 18  1  0
 18 19  1  0
 19 20  1  0
 20 21  2  0
 21 22  1  0
 22 23  2  0
 23 24  1  0
 23 25  1  0
 25 26  2  0
 19 27  2  0
 27 28  1  0
 28 29  2  0
 29 30  1  0
 30 31  2  0
 31 32  1  0
 32 33  2  0
  7 34  1  0
 34 35  1  0
 35 36  1  0
 35 37  1  0
 35 38  1  0
 34 39  2  0
 39  4  1  0
 17 12  1  0
 33 18  1  0
 26 20  1  0
 33 28  1  0
  3 40  1  0
  5 41  1  0
  6 42  1  0
  8 43  1  0
 11 44  1  6
 12 45  1  0
 13 46  1  0
 13 47  1  0
 14 48  1  0
 14 49  1  0
 15 50  1  0
 15 51  1  0
 16 52  1  0
 16 53  1  0
 17 54  1  0
 17 55  1  0
 21 56  1  0
 22 57  1  0
 25 58  1  0
 26 59  1  0
 29 60  1  0
 30 61  1  0
 31 62  1  0
 32 63  1  0
 39 64  1  0
M  END
$$$$
