@<TRIPOS>MOLECULE
*****
 57 61 0 0 0
SMALL
GASTEIGER

@<TRIPOS>ATOM
      1 C          -3.6653    2.4833   -1.9880 C.3     1  UNL1       -0.0463
      2 C          -4.0423    1.6121   -0.8135 C.3     1  UNL1        0.0262
      3 C          -4.6158    2.4956    0.3016 C.3     1  UNL1        0.0423
      4 C          -5.2832    1.6923    1.3449 C.2     1  UNL1        0.2190
      5 O          -6.4831    2.0183    1.6402 O.2     1  UNL1       -0.2754
      6 N          -4.8347    0.5721    2.1260 N.am    1  UNL1       -0.2839
      7 C          -3.7695   -0.2990    1.7270 C.ar    1  UNL1        0.0563
      8 C          -3.6179   -1.3600    2.5839 C.ar    1  UNL1       -0.0386
      9 C          -2.6350   -2.2917    2.3383 C.ar    1  UNL1       -0.0581
     10 C          -1.7727   -2.2305    1.2656 C.ar    1  UNL1       -0.0384
     11 C          -1.9415   -1.1429    0.4027 C.ar    1  UNL1        0.0569
     12 N          -1.0898   -1.0355   -0.7253 N.pl3   1  UNL1       -0.2983
     13 C          -1.5707   -1.0916   -2.0759 C.3     1  UNL1        0.0176
     14 C          -0.6614   -0.2924   -2.9669 C.3     1  UNL1       -0.0328
     15 C           0.7121   -0.9880   -2.9386 C.3     1  UNL1       -0.0245
     16 C           1.2005   -0.8632   -1.5361 C.ar    1  UNL1       -0.0254
     17 C           2.5445   -0.7234   -1.3230 C.ar    1  UNL1       -0.0486
     18 C           3.0698   -0.5922   -0.0206 C.ar    1  UNL1       -0.0061
     19 C           4.4902   -0.4323    0.1406 C.ar    1  UNL1        0.0200
     20 C           5.4284   -1.4153   -0.2255 C.ar    1  UNL1        0.0571
     21 N           6.6580   -0.9297    0.0187 N.ar    1  UNL1       -0.1793
     22 N           6.5757    0.2916    0.5137 N.ar    1  UNL1       -0.2739
     23 C           7.6604    1.1674    0.9120 C.3     1  UNL1        0.0302
     24 C           5.2627    0.6029    0.5909 C.ar    1  UNL1        0.0329
     25 C           2.2072   -0.6084    1.0201 C.ar    1  UNL1        0.0270
     26 C           2.6692   -0.4942    2.4178 C.3     1  UNL1        0.2650
     27 F           3.1888    0.7756    2.6674 F       1  UNL1       -0.2039
     28 F           3.6389   -1.4039    2.7664 F       1  UNL1       -0.2039
     29 C           0.8247   -0.7526    0.7923 C.ar    1  UNL1       -0.0310
     30 C           0.2926   -0.8819   -0.4711 C.ar    1  UNL1        0.0377
     31 C          -2.9145   -0.1968    0.6232 C.ar    1  UNL1        0.0705
     32 N          -2.9310    0.8411   -0.3532 N.pl3   1  UNL1       -0.3379
     33 H          -3.2199    1.8137   -2.7556 H       1  UNL1        0.0248
     34 H          -4.6146    2.8774   -2.4168 H       1  UNL1        0.0248
     35 H          -3.0004    3.3122   -1.7019 H       1  UNL1        0.0248
     36 H          -4.8950    0.9830   -1.1488 H       1  UNL1        0.0499
     37 H          -5.3797    3.1301   -0.1848 H       1  UNL1        0.0376
     38 H          -3.8385    3.1768    0.6977 H       1  UNL1        0.0376
     39 H          -5.3006    0.3797    3.0227 H       1  UNL1        0.1549
     40 H          -4.2629   -1.4655    3.4442 H       1  UNL1        0.0637
     41 H          -2.5378   -3.1174    3.0300 H       1  UNL1        0.0619
     42 H          -1.0065   -2.9351    1.0530 H       1  UNL1        0.0637
     43 H          -2.6348   -0.7834   -2.1695 H       1  UNL1        0.0468
     44 H          -1.5235   -2.1524   -2.4812 H       1  UNL1        0.0468
     45 H          -1.0294   -0.2333   -4.0100 H       1  UNL1        0.0284
     46 H          -0.4663    0.7136   -2.5537 H       1  UNL1        0.0284
     47 H           1.4060   -0.5523   -3.6575 H       1  UNL1        0.0314
     48 H           0.5077   -2.0620   -3.1141 H       1  UNL1        0.0314
     49 H           3.2627   -0.7066   -2.1278 H       1  UNL1        0.0627
     50 H           5.2036   -2.3909   -0.6321 H       1  UNL1        0.0854
     51 H           7.7568    1.2544    2.0124 H       1  UNL1        0.0473
     52 H           7.4422    2.1849    0.4742 H       1  UNL1        0.0473
     53 H           8.6237    0.8646    0.5047 H       1  UNL1        0.0473
     54 H           4.9127    1.5542    0.9458 H       1  UNL1        0.0832
     55 H           1.7902   -0.6114    3.1307 H       1  UNL1        0.1072
     56 H           0.1676   -0.7603    1.6524 H       1  UNL1        0.0641
     57 H          -1.9586    0.9989   -0.7351 H       1  UNL1        0.1465
@<TRIPOS>BOND
     1     1     2    1
     2     2     3    1
     3     3     4    1
     4     4     5    2
     5     4     6   am
     6     6     7    1
     7     7     8   ar
     8     8     9   ar
     9     9    10   ar
    10    10    11   ar
    11    11    12    1
    12    12    13    1
    13    13    14    1
    14    14    15    1
    15    15    16    1
    16    16    17   ar
    17    17    18   ar
    18    18    19    1
    19    19    20   ar
    20    20    21   ar
    21    21    22   ar
    22    22    23    1
    23    22    24   ar
    24    18    25   ar
    25    25    26    1
    26    26    27    1
    27    26    28    1
    28    25    29   ar
    29    29    30   ar
    30    11    31   ar
    31    31    32    1
    32    32     2    1
    33    31     7   ar
    34    30    12    1
    35    30    16   ar
    36    24    19   ar
    37     1    33    1
    38     1    34    1
    39     1    35    1
    40     2    36    1
    41     3    37    1
    42     3    38    1
    43     6    39    1
    44     8    40    1
    45     9    41    1
    46    10    42    1
    47    13    43    1
    48    13    44    1
    49    14    45    1
    50    14    46    1
    51    15    47    1
    52    15    48    1
    53    17    49    1
    54    20    50    1
    55    23    51    1
    56    23    52    1
    57    23    53    1
    58    24    54    1
    59    26    55    1
    60    29    56    1
    61    32    57    1
