
     RDKit          3D

 57 61  0  0  0  0  0  0  0  0999 V2000
   -3.6653    2.4833   -1.9880 C   0  0  0  0  0  0  0  0  0  0  0  0
   -4.0423    1.6121   -0.8135 C   0  0  2  0  0  0  0  0  0  0  0  0
   -4.6158    2.4956    0.3016 C   0  0  0  0  0  0  0  0  0  0  0  0
   -5.2832    1.6923    1.3449 C   0  0  0  0  0  0  0  0  0  0  0  0
   -6.4831    2.0183    1.6402 O   0  0  0  0  0  0  0  0  0  0  0  0
   -4.8347    0.5721    2.1260 N   0  0  0  0  0  0  0  0  0  0  0  0
   -3.7695   -0.2990    1.7270 C   0  0  0  0  0  0  0  0  0  0  0  0
   -3.6179   -1.3600    2.5839 C   0  0  0  0  0  0  0  0  0  0  0  0
   -2.6350   -2.2917    2.3383 C   0  0  0  0  0  0  0  0  0  0  0  0
   -1.7727   -2.2305    1.2656 C   0  0  0  0  0  0  0  0  0  0  0  0
   -1.9415   -1.1429    0.4027 C   0  0  0  0  0  0  0  0  0  0  0  0
   -1.0898   -1.0355   -0.7253 N   0  0  0  0  0  0  0  0  0  0  0  0
   -1.5707   -1.0916   -2.0759 C   0  0  0  0  0  0  0  0  0  0  0  0
   -0.6614   -0.2924   -2.9669 C   0  0  0  0  0  0  0  0  0  0  0  0
    0.7121   -0.9880   -2.9386 C   0  0  0  0  0  0  0  0  0  0  0  0
    1.2005   -0.8632   -1.5361 C   0  0  0  0  0  0  0  0  0  0  0  0
    2.5445   -0.7234   -1.3230 C   0  0  0  0  0  0  0  0  0  0  0  0
    3.0698   -0.5922   -0.0206 C   0  0  0  0  0  0  0  0  0  0  0  0
    4.4902   -0.4323    0.1406 C   0  0  0  0  0  0  0  0  0  0  0  0
    5.4284   -1.4153   -0.2255 C   0  0  0  0  0  0  0  0  0  0  0  0
    6.6580   -0.9297    0.0187 N   0  0  0  0  0  0  0  0  0  0  0  0
    6.5757    0.2916    0.5137 N   0  0  0  0  0  0  0  0  0  0  0  0
    7.6604    1.1674    0.9120 C   0  0  0  0  0  0  0  0  0  0  0  0
    5.2627    0.6029    0.5909 C   0  0  0  0  0  0  0  0  0  0  0  0
    2.2072   -0.6084    1.0201 C   0  0  0  0  0  0  0  0  0  0  0  0
    2.6692   -0.4942    2.4178 C   0  0  0  0  0  0  0  0  0  0  0  0
    3.1888    0.7756    2.6674 F   0  0  0  0  0  0  0  0  0  0  0  0
    3.6389   -1.4039    2.7664 F   0  0  0  0  0  0  0  0  0  0  0  0
    0.8247   -0.7526    0.7923 C   0  0  0  0  0  0  0  0  0  0  0  0
    0.2926   -0.8819   -0.4711 C   0  0  0  0  0  0  0  0  0  0  0  0
   -2.9145   -0.1968    0.6232 C   0  0  0  0  0  0  0  0  0  0  0  0
   -2.9310    0.8411   -0.3532 N   0  0  0  0  0  0  0  0  0  0  0  0
   -3.2199    1.8137   -2.7556 H   0  0  0  0  0  0  0  0  0  0  0  0
   -4.6146    2.8774   -2.4168 H   0  0  0  0  0  0  0  0  0  0  0  0
   -3.0004    3.3122   -1.7019 H   0  0  0  0  0  0  0  0  0  0  0  0
   -4.8950    0.9830   -1.1488 H   0  0  0  0  0  0  0  0  0  0  0  0
   -5.3797    3.1301   -0.1848 H   0  0  0  0  0  0  0  0  0  0  0  0
   -3.8385    3.1768    0.6977 H   0  0  0  0  0  0  0  0  0  0  0  0
   -5.3006    0.3797    3.0227 H   0  0  0  0  0  0  0  0  0  0  0  0
   -4.2629   -1.4655    3.4442 H   0  0  0  0  0  0  0  0  0  0  0  0
   -2.5378   -3.1174    3.0300 H   0  0  0  0  0  0  0  0  0  0  0  0
   -1.0065   -2.9351    1.0530 H   0  0  0  0  0  0  0  0  0  0  0  0
   -2.6348   -0.7834   -2.1695 H   0  0  0  0  0  0  0  0  0  0  0  0
   -1.5235   -2.1524   -2.4812 H   0  0  0  0  0  0  0  0  0  0  0  0
   -1.0294   -0.2333   -4.0100 H   0  0  0  0  0  0  0  0  0  0  0  0
   -0.4663    0.7136   -2.5537 H   0  0  0  0  0  0  0  0  0  0  0  0
    1.4060   -0.5523   -3.6575 H   0  0  0  0  0  0  0  0  0  0  0  0
    0.5077   -2.0620   -3.1141 H   0  0  0  0  0  0  0  0  0  0  0  0
    3.2627   -0.7066   -2.1278 H   0  0  0  0  0  0  0  0  0  0  0  0
    5.2036   -2.3909   -0.6321 H   0  0  0  0  0  0  0  0  0  0  0  0
    7.7568    1.2544    2.0124 H   0  0  0  0  0  0  0  0  0  0  0  0
    7.4422    2.1849    0.4742 H   0  0  0  0  0  0  0  0  0  0  0  0
    8.6237    0.8646    0.5047 H   0  0  0  0  0  0  0  0  0  0  0  0
    4.9127    1.5542    0.9458 H   0  0  0  0  0  0  0  0  0  0  0  0
    1.7902   -0.6114    3.1307 H   0  0  0  0  0  0  0  0  0  0  0  0
    0.1676   -0.7603    1.6524 H   0  0  0  0  0  0  0  0  0  0  0  0
   -1.9586    0.9989   -0.7351 H   0  0  0  0  0  0  0  0  0  0  0  0
  1  2  1  0
  2  3  1  0
  3  4  1  0
  4  5  2  0
  4  6  1  0
  6  7  1  0
  7  8  2  0
  8  9  1  0
  9 10  2  0
 10 11  1  0
 11 12  1  0
 12 13  1  0
 13 14  1  0
 14 15  1  0
 15 16  1  0
 16 17  2  0
 17 18  1  0
 18 19  1  0
 19 20  1  0
 20 21  2  0
 21 22  1  0
 22 23  1  0
 22 24  1  0
 18 25  2  0
 25 26  1  0
 26 27  1  0
 26 28  1  0
 25 29  1  0
 29 30  2  0
 11 31  2  0
 31 32  1  0
 32  2  1  0
 31  7  1  0
 30 12  1  0
 30 16  1  0
 24 19  2  0
  1 33  1  0
  1 34  1  0
  1 35  1  0
  2 36  1  6
  3 37  1  0
  3 38  1  0
  6 39  1  0
  8 40  1  0
  9 41  1  0
 10 42  1  0
 13 43  1  0
 13 44  1  0
 14 45  1  0
 14 46  1  0
 15 47  1  0
 15 48  1  0
 17 49  1  0
 20 50  1  0
 23 51  1  0
 23 52  1  0
 23 53  1  0
 24 54  1  0
 26 55  1  0
 29 56  1  0
 32 57  1  0
M  END
$$$$
