@<TRIPOS>MOLECULE
*****
 76 80 0 0 0
SMALL
GASTEIGER

@<TRIPOS>ATOM
      1 C          -3.7087   -1.3042    0.9719 C.3     1  UNL1        0.1133
      2 C          -2.2363   -1.0670    0.9798 C.3     1  UNL1        0.0836
      3 O          -1.9559   -0.3337    2.1553 O.3     1  UNL1       -0.3245
      4 P          -0.2722   -0.0387    2.1977 P.3     1  UNL1        0.2222
      5 O           0.0691    1.2816    1.1998 O.co2   1  UNL1       -0.4370
      6 O           0.1766    0.2625    3.6084 O.2     1  UNL1       -0.5170
      7 O           0.4710   -1.4222    1.5764 O.3     1  UNL1       -0.2292
      8 P           1.4708   -0.9859    0.3118 P.3     1  UNL1        0.4804
      9 O           0.6140   -0.8639   -1.1557 O.3     1  UNL1       -0.3023
     10 O           2.4746   -2.1007    0.1098 O.2     1  UNL1       -0.2270
     11 O           2.2705    0.4749    0.6108 O.3     1  UNL1       -0.2838
     12 C           3.6055    0.2061    0.8082 C.3     1  UNL1        0.0880
     13 C           4.4241    1.4638    1.0845 C.3     1  UNL1        0.1177
     14 O           5.7222    1.0782    1.2632 O.3     1  UNL1       -0.3094
     15 C           6.4377    1.3136    0.1076 C.3     1  UNL1        0.2949
     16 N           7.4196    0.2994   -0.1907 N.ar    1  UNL1       -0.1731
     17 C           7.0875   -0.8384   -0.8560 C.ar    1  UNL1        0.1738
     18 C           8.0862   -1.7523   -1.0984 C.ar    1  UNL1        0.0029
     19 C           9.4043   -1.6090   -0.7201 C.ar    1  UNL1       -0.0382
     20 C           9.7333   -0.4452   -0.0421 C.ar    1  UNL1        0.0993
     21 C           8.7074    0.4410    0.1797 C.ar    1  UNL1        0.1860
     22 C          11.0921   -0.1696    0.4141 C.2     1  UNL1        0.2181
     23 O          12.0713   -1.1370    0.1396 O.2     1  UNL1       -0.4922
     24 N          11.5524    0.8494    1.0475 N.2     1  UNL1       -0.2666
     25 C           5.4700    1.5884   -0.9938 C.3     1  UNL1        0.1727
     26 O           5.9330    2.5442   -1.8946 O.3     1  UNL1       -0.3803
     27 C           4.3489    2.2757   -0.2023 C.3     1  UNL1        0.1184
     28 O           4.7487    3.5652    0.1084 O.3     1  UNL1       -0.3862
     29 O          -4.4382   -0.0955    0.9675 O.3     1  UNL1       -0.3456
     30 C          -5.7250   -0.5896    0.8348 C.3     1  UNL1        0.1684
     31 N          -6.7181    0.4509    0.7480 N.ar    1  UNL1       -0.2736
     32 C          -7.0036    1.1400    1.8754 C.ar    1  UNL1        0.1821
     33 BR         -6.3021    0.9890    3.6624 Br      1  UNL1       -0.0080
     34 N          -7.9430    2.0477    1.5671 N.ar    1  UNL1       -0.2163
     35 C          -8.2616    1.9556    0.2807 C.ar    1  UNL1        0.1485
     36 C          -9.1405    2.6194   -0.5553 C.ar    1  UNL1        0.1472
     37 N          -9.9287    3.6577    0.0033 N.pl3   1  UNL1       -0.3413
     38 N          -9.1869    2.2318   -1.8483 N.ar    1  UNL1       -0.2188
     39 C          -8.3968    1.2240   -2.3111 C.ar    1  UNL1        0.1205
     40 N          -7.5340    0.5745   -1.4838 N.ar    1  UNL1       -0.2159
     41 C          -7.4825    0.9503   -0.2096 C.ar    1  UNL1        0.1682
     42 C          -5.6545   -1.4818   -0.3456 C.3     1  UNL1        0.1433
     43 O          -6.4597   -2.5964   -0.1262 O.3     1  UNL1       -0.2762
     44 P          -7.4406   -2.9829   -1.4244 P.3     1  UNL1        0.4728
     45 O          -9.0243   -2.5236   -1.0665 O.3     1  UNL1       -0.3026
     46 O          -6.9114   -2.2618   -2.8545 O.3     1  UNL1       -0.3026
     47 O          -7.4488   -4.4921   -1.6491 O.2     1  UNL1       -0.2275
     48 C          -4.1928   -1.9493   -0.3098 C.3     1  UNL1        0.1144
     49 O          -4.1241   -3.3272   -0.0988 O.3     1  UNL1       -0.3864
     50 H          -4.0291   -1.8653    1.8510 H       1  UNL1        0.0647
     51 H          -1.7395   -2.0467    0.9839 H       1  UNL1        0.0591
     52 H          -1.8922   -0.4760    0.1302 H       1  UNL1        0.0591
     53 H           1.2244   -1.0086   -1.9187 H       1  UNL1        0.2220
     54 H           3.9975   -0.3273   -0.0806 H       1  UNL1        0.0592
     55 H           3.7269   -0.4913    1.6709 H       1  UNL1        0.0592
     56 H           4.0153    2.0300    1.9236 H       1  UNL1        0.0648
     57 H           7.0002    2.2741    0.2814 H       1  UNL1        0.1444
     58 H           6.0889   -1.0216   -1.1813 H       1  UNL1        0.1377
     59 H           7.8397   -2.6764   -1.6334 H       1  UNL1        0.0677
     60 H          10.1578   -2.3509   -0.9301 H       1  UNL1        0.0629
     61 H           8.9349    1.3735    0.7148 H       1  UNL1        0.1385
     62 H          13.0397   -0.8591    0.0093 H       1  UNL1        0.2937
     63 H          10.8809    1.6113    1.2867 H       1  UNL1        0.1899
     64 H           5.0457    0.7092   -1.4902 H       1  UNL1        0.0716
     65 H           6.8570    2.8388   -1.6790 H       1  UNL1        0.2103
     66 H           3.3822    2.1945   -0.7022 H       1  UNL1        0.0649
     67 H           5.3600    3.9481   -0.5656 H       1  UNL1        0.2100
     68 H          -5.9112   -1.2370    1.7292 H       1  UNL1        0.0867
     69 H          -9.7520    4.6458    0.3013 H       1  UNL1        0.1438
     70 H         -10.8875    3.2275    0.0959 H       1  UNL1        0.1438
     71 H          -8.5204    1.0006   -3.3646 H       1  UNL1        0.1048
     72 H          -5.7883   -1.0346   -1.3274 H       1  UNL1        0.0674
     73 H          -9.1756   -2.6434   -0.1077 H       1  UNL1        0.2220
     74 H          -7.6373   -1.8185   -3.3371 H       1  UNL1        0.2220
     75 H          -3.6220   -1.6435   -1.1867 H       1  UNL1        0.0648
     76 H          -4.4965   -3.4699    0.8230 H       1  UNL1        0.2100
@<TRIPOS>UNITY_ATOM_ATTR
5 1
charge -1
16 1
charge 1
@<TRIPOS>BOND
     1     1     2    1
     2     2     3    1
     3     3     4    1
     4     4     5    1
     5     4     6    2
     6     4     7    1
     7     7     8    1
     8     8     9    1
     9     8    10    2
    10     8    11    1
    11    11    12    1
    12    12    13    1
    13    13    14    1
    14    14    15    1
    15    15    16    1
    16    16    17   ar
    17    17    18   ar
    18    18    19   ar
    19    19    20   ar
    20    20    21   ar
    21    20    22    1
    22    22    23    1
    23    22    24    2
    24    15    25    1
    25    25    26    1
    26    25    27    1
    27    27    28    1
    28     1    29    1
    29    29    30    1
    30    30    31    1
    31    31    32   ar
    32    32    33    1
    33    32    34   ar
    34    34    35   ar
    35    35    36   ar
    36    36    37    1
    37    36    38   ar
    38    38    39   ar
    39    39    40   ar
    40    40    41   ar
    41    30    42    1
    42    42    43    1
    43    43    44    1
    44    44    45    1
    45    44    46    1
    46    44    47    2
    47    42    48    1
    48    48    49    1
    49    48     1    1
    50    27    13    1
    51    41    31   ar
    52    21    16   ar
    53    41    35   ar
    54     1    50    1
    55     2    51    1
    56     2    52    1
    57     9    53    1
    58    12    54    1
    59    12    55    1
    60    13    56    1
    61    15    57    1
    62    17    58    1
    63    18    59    1
    64    19    60    1
    65    21    61    1
    66    23    62    1
    67    24    63    1
    68    25    64    1
    69    26    65    1
    70    27    66    1
    71    28    67    1
    72    30    68    1
    73    37    69    1
    74    37    70    1
    75    39    71    1
    76    42    72    1
    77    45    73    1
    78    46    74    1
    79    48    75    1
    80    49    76    1
