@<TRIPOS>MOLECULE
*****
 56 58 0 0 0
SMALL
GASTEIGER

@<TRIPOS>ATOM
      1 C           0.4408   -3.6985   -0.8256 C.3     0  UNK0       -0.0585
      2 C           0.6031   -2.3721   -1.6039 C.3     0  UNK0       -0.0183
      3 C           1.1533   -2.7384   -2.9620 C.3     0  UNK0       -0.0585
      4 C           1.6571   -1.6124   -0.8600 C.ar    0  UNK0       -0.0056
      5 C           2.9863   -2.0439   -0.9770 C.ar    0  UNK0        0.0334
      6 N           3.8952   -1.4077   -0.2518 N.ar    0  UNK0       -0.2545
      7 C           3.6116   -0.3651    0.5949 C.ar    0  UNK0        0.0755
      8 C           4.7243    0.2250    1.3206 C.ar    0  UNK0        0.0369
      9 C           6.0087   -0.3024    1.1074 C.ar    0  UNK0       -0.0314
     10 C           7.0931    0.2119    1.7622 C.ar    0  UNK0        0.0418
     11 CL          8.6834   -0.4933    1.4527 Cl      0  UNK0       -0.0835
     12 C           6.9644    1.2475    2.6385 C.ar    0  UNK0       -0.0406
     13 C           5.7368    1.7902    2.8760 C.ar    0  UNK0       -0.0244
     14 C           4.6190    1.2606    2.2014 C.ar    0  UNK0        0.1326
     15 F           3.4298    1.8413    2.4798 F       0  UNK0       -0.2048
     16 C           2.3260    0.0688    0.7205 C.ar    0  UNK0       -0.0141
     17 C           1.3359   -0.5834   -0.0361 C.ar    0  UNK0        0.0383
     18 N          -0.0125   -0.0853    0.1432 N.pl3   0  UNK0       -0.3135
     19 C          -0.6448    0.5704   -0.9300 C.ar    0  UNK0        0.0465
     20 C           0.1056    0.7939   -2.0916 C.ar    0  UNK0       -0.0217
     21 C          -0.4429    1.4221   -3.1671 C.ar    0  UNK0        0.0293
     22 N          -1.7171    1.8299   -3.1086 N.ar    0  UNK0       -0.2624
     23 C          -2.4667    1.6358   -2.0194 C.ar    0  UNK0        0.0415
     24 C          -1.9450    1.0003   -0.9046 C.ar    0  UNK0        0.0758
     25 C          -2.7698    0.7831    0.2791 C.2     0  UNK0        0.2477
     26 O          -2.4027    0.2036    1.3258 O.2     0  UNK0       -0.2701
     27 N          -4.1389    1.2351    0.3533 N.am    1  SER1       -0.3040
     28 CA         -4.9709    1.0270    1.5217 C.3     1  SER1        0.0695
     29 CB         -6.1560    0.1872    1.1481 C.3     1  SER1        0.0647
     30 OG         -6.9368    0.7864    0.1636 O.3     1  SER1       -0.3931
     31 C          -5.4454    2.3193    2.1324 C.3     1  SER1        0.0647
     32 O          -6.2293    1.9855    3.2391 O.3     1  SER1       -0.3931
     33 H           0.6756   -3.5435    0.2487 H       0  UNK0        0.0235
     34 H          -0.5762   -4.0995   -0.9511 H       0  UNK0        0.0235
     35 H           1.1478   -4.4575   -1.2012 H       0  UNK0        0.0235
     36 H          -0.3579   -1.8563   -1.6358 H       0  UNK0        0.0344
     37 H           1.7082   -3.6895   -2.8873 H       0  UNK0        0.0235
     38 H           1.7627   -1.9122   -3.3803 H       0  UNK0        0.0235
     39 H           0.2653   -2.9634   -3.6177 H       0  UNK0        0.0235
     40 H           3.1847   -2.8562   -1.6412 H       0  UNK0        0.0833
     41 H           6.1521   -1.1359    0.4097 H       0  UNK0        0.0639
     42 H           7.8536    1.6320    3.1429 H       0  UNK0        0.0633
     43 H           5.6061    2.6096    3.5637 H       0  UNK0        0.0647
     44 H           2.0192    0.8826    1.3645 H       0  UNK0        0.0658
     45 H          -0.3837   -0.2645    1.0762 H       0  UNK0        0.1522
     46 H           1.1215    0.4647   -2.1277 H       0  UNK0        0.0651
     47 H           0.1251    1.6103   -4.0927 H       0  UNK0        0.0830
     48 H          -3.4694    1.9744   -2.0171 H       0  UNK0        0.0838
     49 H          -4.5672    1.7265   -0.4367 H       1  SER1        0.1495
     50 HA         -4.3825    0.4924    2.2824 H       1  SER1        0.0544
     51 HB1        -5.7502   -0.7775    0.7432 H       1  SER1        0.0576
     52 HB2        -6.7778   -0.0967    2.0140 H       1  SER1        0.0576
     53 H          -6.5717    1.6526   -0.0720 H       1  SER1        0.2095
     54 H1         -6.0890    2.9156    1.4539 H       1  SER1        0.0576
     55 H2         -4.6005    2.9295    2.5286 H       1  SER1        0.0576
     56 H          -7.1916    2.0399    3.0115 H       1  SER1        0.2095
@<TRIPOS>BOND
     1     1     2    1
     2     2     3    1
     3     2     4    1
     4     4     5   ar
     5     5     6   ar
     6     6     7   ar
     7     7     8    1
     8     8     9   ar
     9     9    10   ar
    10    10    11    1
    11    10    12   ar
    12    12    13   ar
    13    13    14   ar
    14    14    15    1
    15     7    16   ar
    16    16    17   ar
    17    17    18    1
    18    18    19    1
    19    19    20   ar
    20    20    21   ar
    21    21    22   ar
    22    22    23   ar
    23    23    24   ar
    24    24    25    1
    25    25    26    2
    26    25    27   am
    27    27    28    1
    28    28    29    1
    29    29    30    1
    30    28    31    1
    31    31    32    1
    32    17     4   ar
    33    24    19   ar
    34    14     8   ar
    35     1    33    1
    36     1    34    1
    37     1    35    1
    38     2    36    1
    39     3    37    1
    40     3    38    1
    41     3    39    1
    42     5    40    1
    43     9    41    1
    44    12    42    1
    45    13    43    1
    46    16    44    1
    47    18    45    1
    48    20    46    1
    49    21    47    1
    50    23    48    1
    51    27    49    1
    52    28    50    1
    53    29    51    1
    54    29    52    1
    55    30    53    1
    56    31    54    1
    57    31    55    1
    58    32    56    1
