@<TRIPOS>MOLECULE
*****
 40 42 0 0 0
SMALL
GASTEIGER

@<TRIPOS>ATOM
      1 C          -1.5327   -1.7551    1.8223 C.3     1  UNL1       -0.0221
      2 C          -1.2441   -0.4819    1.0866 C.ar    1  UNL1        0.0455
      3 C          -2.1017    0.2500    0.3123 C.ar    1  UNL1        0.0023
      4 C          -3.4802   -0.0098   -0.0927 C.3     1  UNL1        0.0687
      5 N          -3.6698   -0.8718   -1.2127 N.am    1  UNL1       -0.1819
      6 O          -3.6911   -0.3621   -2.4935 O.3     1  UNL1       -0.2924
      7 C          -3.8424   -2.2459   -1.1002 C.2     1  UNL1        0.2253
      8 O          -3.8751   -2.8374   -0.0106 O.2     1  UNL1       -0.2772
      9 C          -1.4186    1.3898   -0.1459 C.ar    1  UNL1        0.0077
     10 C          -1.8056    2.4496   -0.9428 C.ar    1  UNL1       -0.0382
     11 C          -0.9396    3.4740   -1.2553 C.ar    1  UNL1        0.0186
     12 BR         -1.4918    4.9442   -2.3652 Br      1  UNL1       -0.0503
     13 C           0.3335    3.4093   -0.7451 C.ar    1  UNL1       -0.0457
     14 C           0.7190    2.3499    0.0509 C.ar    1  UNL1       -0.0348
     15 C          -0.1471    1.3043    0.3757 C.ar    1  UNL1        0.0729
     16 N          -0.0491    0.1816    1.1108 N.ar    1  UNL1       -0.2151
     17 S           1.3787   -0.3430    1.9172 S.O2    1  UNL1        0.0844
     18 O           1.1841   -1.5389    2.7700 O.2     1  UNL1       -0.1476
     19 O           1.8516    0.7616    2.8659 O.2     1  UNL1       -0.1476
     20 C           2.7050   -0.6691    0.8353 C.ar    1  UNL1        0.1110
     21 C           3.6858    0.2680    0.6713 C.ar    1  UNL1       -0.0349
     22 C           4.7597    0.0394   -0.1916 C.ar    1  UNL1       -0.0599
     23 C           4.8740   -1.1326   -0.9080 C.ar    1  UNL1       -0.0616
     24 C           3.8561   -2.0687   -0.7177 C.ar    1  UNL1       -0.0599
     25 C           2.7938   -1.8540    0.1294 C.ar    1  UNL1       -0.0349
     26 H          -2.6314   -1.7186    2.0791 H       1  UNL1        0.0293
     27 H          -1.2609   -2.5860    1.1809 H       1  UNL1        0.0293
     28 H          -1.0227   -1.7834    2.7964 H       1  UNL1        0.0293
     29 H          -4.0202    0.9533   -0.3256 H       1  UNL1        0.0539
     30 H          -3.9962   -0.5144    0.7781 H       1  UNL1        0.0539
     31 H          -2.7394   -0.1960   -2.7140 H       1  UNL1        0.2417
     32 H          -3.9618   -2.8992   -1.9817 H       1  UNL1        0.1274
     33 H          -2.8069    2.5036   -1.3455 H       1  UNL1        0.0635
     34 H           1.0169    4.2075   -0.9850 H       1  UNL1        0.0629
     35 H           1.7029    2.2865    0.4637 H       1  UNL1        0.0639
     36 H           3.6956    1.2344    1.1972 H       1  UNL1        0.0637
     37 H           5.5185    0.7980   -0.3012 H       1  UNL1        0.0618
     38 H           5.7055   -1.3350   -1.5890 H       1  UNL1        0.0618
     39 H           3.9409   -2.9925   -1.2791 H       1  UNL1        0.0618
     40 H           2.0067   -2.6096    0.2595 H       1  UNL1        0.0637
@<TRIPOS>BOND
     1     1     2    1
     2     2     3   ar
     3     3     4    1
     4     4     5    1
     5     5     6    1
     6     5     7   am
     7     7     8    2
     8     3     9   ar
     9     9    10   ar
    10    10    11   ar
    11    11    12    1
    12    11    13   ar
    13    13    14   ar
    14    14    15   ar
    15    15    16   ar
    16    16    17    1
    17    17    18    2
    18    17    19    2
    19    17    20    1
    20    20    21   ar
    21    21    22   ar
    22    22    23   ar
    23    23    24   ar
    24    24    25   ar
    25    16     2   ar
    26    25    20   ar
    27    15     9   ar
    28     1    26    1
    29     1    27    1
    30     1    28    1
    31     4    29    1
    32     4    30    1
    33     6    31    1
    34     7    32    1
    35    10    33    1
    36    13    34    1
    37    14    35    1
    38    21    36    1
    39    22    37    1
    40    23    38    1
    41    24    39    1
    42    25    40    1
