@<TRIPOS>MOLECULE
*****
 52 55 0 0 0
SMALL
GASTEIGER

@<TRIPOS>ATOM
      1 C          -7.5922   -0.0286    0.2806 C.3     1  UNL1        0.0788
      2 O          -6.4859    0.0042   -0.5843 O.3     1  UNL1       -0.4945
      3 C          -5.2114    0.3403   -0.1584 C.ar    1  UNL1        0.1321
      4 C          -4.9126    0.6728    1.1528 C.ar    1  UNL1       -0.0144
      5 C          -3.6247    0.9955    1.5042 C.ar    1  UNL1       -0.0209
      6 C          -2.5951    0.9940    0.5556 C.ar    1  UNL1        0.0417
      7 C          -2.9414    0.6593   -0.7326 C.ar    1  UNL1       -0.0248
      8 C          -4.2282    0.3286   -1.1250 C.ar    1  UNL1        0.0981
      9 C          -4.5477   -0.0288   -2.5440 C.3     1  UNL1        0.4208
     10 F          -3.4254    0.0215   -3.3349 F       1  UNL1       -0.1658
     11 F          -5.0287   -1.3201   -2.5350 F       1  UNL1       -0.1658
     12 F          -5.5267    0.8452   -2.9857 F       1  UNL1       -0.1658
     13 N          -1.3799    1.3535    1.2057 N.am    1  UNL1       -0.2547
     14 C          -0.0673    0.9576    0.8684 C.2     1  UNL1        0.3107
     15 O           0.8651    1.5649    1.4724 O.2     1  UNL1       -0.2519
     16 N           0.2217   -0.0313   -0.0566 N.am    1  UNL1       -0.2689
     17 C           1.5135   -0.4505   -0.4339 C.ar    1  UNL1        0.0388
     18 C           1.6192   -1.4952   -1.3925 C.ar    1  UNL1        0.0017
     19 C           2.8455   -1.9468   -1.8046 C.ar    1  UNL1        0.1323
     20 O           2.9274   -2.9829   -2.7555 O.3     1  UNL1       -0.4057
     21 C           2.9676   -4.3407   -2.3436 C.3     1  UNL1        0.5752
     22 F           4.0356   -4.6320   -1.5443 F       1  UNL1       -0.1328
     23 F           2.9264   -5.1784   -3.4359 F       1  UNL1       -0.1328
     24 F           1.8217   -4.5672   -1.5764 F       1  UNL1       -0.1328
     25 C           3.9885   -1.3815   -1.2838 C.ar    1  UNL1       -0.0117
     26 C           3.9526   -0.3701   -0.3557 C.ar    1  UNL1       -0.0112
     27 C           5.1685    0.2293    0.1958 C.ar    1  UNL1        0.0004
     28 C           5.2030    1.5565    0.5852 C.ar    1  UNL1       -0.0512
     29 C           6.3553    2.1104    1.1035 C.ar    1  UNL1       -0.0430
     30 C           7.4914    1.3453    1.2403 C.ar    1  UNL1        0.0276
     31 N           7.4433    0.0572    0.8578 N.ar    1  UNL1       -0.2627
     32 C           6.3328   -0.4979    0.3523 C.ar    1  UNL1        0.0353
     33 C           2.6796    0.0751    0.0506 C.ar    1  UNL1       -0.0324
     34 C          -1.7740    2.1783    2.3570 C.3     1  UNL1        0.0253
     35 C          -3.0355    1.4299    2.8055 C.3     1  UNL1       -0.0095
     36 H          -7.6505   -0.9187    0.9077 H       1  UNL1        0.0660
     37 H          -7.5246    0.8796    0.9379 H       1  UNL1        0.0660
     38 H          -8.5610    0.0276   -0.2863 H       1  UNL1        0.0660
     39 H          -5.7301    0.6641    1.8675 H       1  UNL1        0.0657
     40 H          -2.1591    0.6812   -1.4871 H       1  UNL1        0.0643
     41 H          -0.5970   -0.5452   -0.5109 H       1  UNL1        0.1564
     42 H           0.6971   -1.9238   -1.7876 H       1  UNL1        0.0673
     43 H           4.9651   -1.7241   -1.5961 H       1  UNL1        0.0660
     44 H           4.3143    2.1708    0.4827 H       1  UNL1        0.0625
     45 H           6.4205    3.1465    1.4193 H       1  UNL1        0.0633
     46 H           8.4221    1.7672    1.6517 H       1  UNL1        0.0829
     47 H           6.3555   -1.5423    0.0614 H       1  UNL1        0.0836
     48 H           2.6708    0.8586    0.7679 H       1  UNL1        0.0642
     49 H          -1.0658    2.1418    3.1741 H       1  UNL1        0.0472
     50 H          -2.0281    3.1816    2.0152 H       1  UNL1        0.0472
     51 H          -3.6983    2.1059    3.3478 H       1  UNL1        0.0329
     52 H          -2.8127    0.5622    3.4299 H       1  UNL1        0.0329
@<TRIPOS>BOND
     1     1     2    1
     2     2     3    1
     3     3     4   ar
     4     4     5   ar
     5     5     6   ar
     6     6     7   ar
     7     7     8   ar
     8     8     9    1
     9     9    10    1
    10     9    11    1
    11     9    12    1
    12     6    13    1
    13    13    14   am
    14    14    15    2
    15    14    16   am
    16    16    17    1
    17    17    18   ar
    18    18    19   ar
    19    19    20    1
    20    20    21    1
    21    21    22    1
    22    21    23    1
    23    21    24    1
    24    19    25   ar
    25    25    26   ar
    26    26    27    1
    27    27    28   ar
    28    28    29   ar
    29    29    30   ar
    30    30    31   ar
    31    31    32   ar
    32    26    33   ar
    33    13    34    1
    34    34    35    1
    35     8     3   ar
    36    33    17   ar
    37    35     5    1
    38    32    27   ar
    39     1    36    1
    40     1    37    1
    41     1    38    1
    42     4    39    1
    43     7    40    1
    44    16    41    1
    45    18    42    1
    46    25    43    1
    47    28    44    1
    48    29    45    1
    49    30    46    1
    50    32    47    1
    51    33    48    1
    52    34    49    1
    53    34    50    1
    54    35    51    1
    55    35    52    1
