
     RDKit          3D

 52 55  0  0  0  0  0  0  0  0999 V2000
   -7.5922   -0.0286    0.2806 C   0  0  0  0  0  0  0  0  0  0  0  0
   -6.4859    0.0042   -0.5843 O   0  0  0  0  0  0  0  0  0  0  0  0
   -5.2114    0.3403   -0.1584 C   0  0  0  0  0  0  0  0  0  0  0  0
   -4.9126    0.6728    1.1528 C   0  0  0  0  0  0  0  0  0  0  0  0
   -3.6247    0.9955    1.5042 C   0  0  0  0  0  0  0  0  0  0  0  0
   -2.5951    0.9940    0.5556 C   0  0  0  0  0  0  0  0  0  0  0  0
   -2.9414    0.6593   -0.7326 C   0  0  0  0  0  0  0  0  0  0  0  0
   -4.2282    0.3286   -1.1250 C   0  0  0  0  0  0  0  0  0  0  0  0
   -4.5477   -0.0288   -2.5440 C   0  0  0  0  0  0  0  0  0  0  0  0
   -3.4254    0.0215   -3.3349 F   0  0  0  0  0  0  0  0  0  0  0  0
   -5.0287   -1.3201   -2.5350 F   0  0  0  0  0  0  0  0  0  0  0  0
   -5.5267    0.8452   -2.9857 F   0  0  0  0  0  0  0  0  0  0  0  0
   -1.3799    1.3535    1.2057 N   0  0  0  0  0  0  0  0  0  0  0  0
   -0.0673    0.9576    0.8684 C   0  0  0  0  0  0  0  0  0  0  0  0
    0.8651    1.5649    1.4724 O   0  0  0  0  0  0  0  0  0  0  0  0
    0.2217   -0.0313   -0.0566 N   0  0  0  0  0  0  0  0  0  0  0  0
    1.5135   -0.4505   -0.4339 C   0  0  0  0  0  0  0  0  0  0  0  0
    1.6192   -1.4952   -1.3925 C   0  0  0  0  0  0  0  0  0  0  0  0
    2.8455   -1.9468   -1.8046 C   0  0  0  0  0  0  0  0  0  0  0  0
    2.9274   -2.9829   -2.7555 O   0  0  0  0  0  0  0  0  0  0  0  0
    2.9676   -4.3407   -2.3436 C   0  0  0  0  0  0  0  0  0  0  0  0
    4.0356   -4.6320   -1.5443 F   0  0  0  0  0  0  0  0  0  0  0  0
    2.9264   -5.1784   -3.4359 F   0  0  0  0  0  0  0  0  0  0  0  0
    1.8217   -4.5672   -1.5764 F   0  0  0  0  0  0  0  0  0  0  0  0
    3.9885   -1.3815   -1.2838 C   0  0  0  0  0  0  0  0  0  0  0  0
    3.9526   -0.3701   -0.3557 C   0  0  0  0  0  0  0  0  0  0  0  0
    5.1685    0.2293    0.1958 C   0  0  0  0  0  0  0  0  0  0  0  0
    5.2030    1.5565    0.5852 C   0  0  0  0  0  0  0  0  0  0  0  0
    6.3553    2.1104    1.1035 C   0  0  0  0  0  0  0  0  0  0  0  0
    7.4914    1.3453    1.2403 C   0  0  0  0  0  0  0  0  0  0  0  0
    7.4433    0.0572    0.8578 N   0  0  0  0  0  0  0  0  0  0  0  0
    6.3328   -0.4979    0.3523 C   0  0  0  0  0  0  0  0  0  0  0  0
    2.6796    0.0751    0.0506 C   0  0  0  0  0  0  0  0  0  0  0  0
   -1.7740    2.1783    2.3570 C   0  0  0  0  0  0  0  0  0  0  0  0
   -3.0355    1.4299    2.8055 C   0  0  0  0  0  0  0  0  0  0  0  0
   -7.6505   -0.9187    0.9077 H   0  0  0  0  0  0  0  0  0  0  0  0
   -7.5246    0.8796    0.9379 H   0  0  0  0  0  0  0  0  0  0  0  0
   -8.5610    0.0276   -0.2863 H   0  0  0  0  0  0  0  0  0  0  0  0
   -5.7301    0.6641    1.8675 H   0  0  0  0  0  0  0  0  0  0  0  0
   -2.1591    0.6812   -1.4871 H   0  0  0  0  0  0  0  0  0  0  0  0
   -0.5970   -0.5452   -0.5109 H   0  0  0  0  0  0  0  0  0  0  0  0
    0.6971   -1.9238   -1.7876 H   0  0  0  0  0  0  0  0  0  0  0  0
    4.9651   -1.7241   -1.5961 H   0  0  0  0  0  0  0  0  0  0  0  0
    4.3143    2.1708    0.4827 H   0  0  0  0  0  0  0  0  0  0  0  0
    6.4205    3.1465    1.4193 H   0  0  0  0  0  0  0  0  0  0  0  0
    8.4221    1.7672    1.6517 H   0  0  0  0  0  0  0  0  0  0  0  0
    6.3555   -1.5423    0.0614 H   0  0  0  0  0  0  0  0  0  0  0  0
    2.6708    0.8586    0.7679 H   0  0  0  0  0  0  0  0  0  0  0  0
   -1.0658    2.1418    3.1741 H   0  0  0  0  0  0  0  0  0  0  0  0
   -2.0281    3.1816    2.0152 H   0  0  0  0  0  0  0  0  0  0  0  0
   -3.6983    2.1059    3.3478 H   0  0  0  0  0  0  0  0  0  0  0  0
   -2.8127    0.5622    3.4299 H   0  0  0  0  0  0  0  0  0  0  0  0
  1  2  1  0
  2  3  1  0
  3  4  2  0
  4  5  1  0
  5  6  2  0
  6  7  1  0
  7  8  2  0
  8  9  1  0
  9 10  1  0
  9 11  1  0
  9 12  1  0
  6 13  1  0
 13 14  1  0
 14 15  2  0
 14 16  1  0
 16 17  1  0
 17 18  2  0
 18 19  1  0
 19 20  1  0
 20 21  1  0
 21 22  1  0
 21 23  1  0
 21 24  1  0
 19 25  2  0
 25 26  1  0
 26 27  1  0
 27 28  2  0
 28 29  1  0
 29 30  2  0
 30 31  1  0
 31 32  2  0
 26 33  2  0
 13 34  1  0
 34 35  1  0
  8  3  1  0
 33 17  1  0
 35  5  1  0
 32 27  1  0
  1 36  1  0
  1 37  1  0
  1 38  1  0
  4 39  1  0
  7 40  1  0
 16 41  1  0
 18 42  1  0
 25 43  1  0
 28 44  1  0
 29 45  1  0
 30 46  1  0
 32 47  1  0
 33 48  1  0
 34 49  1  0
 34 50  1  0
 35 51  1  0
 35 52  1  0
M  END
$$$$
