@<TRIPOS>MOLECULE
*****
 42 46 0 0 0
SMALL
GASTEIGER

@<TRIPOS>ATOM
      1 CL         -3.7048   -0.9673    2.1295 Cl      1  UNL1       -0.0828
      2 C          -3.9703    0.4183    1.0720 C.ar    1  UNL1        0.0517
      3 C          -5.2287    0.8773    0.7852 C.ar    1  UNL1       -0.0427
      4 C          -5.4616    1.9603   -0.0403 C.ar    1  UNL1       -0.0603
      5 C          -4.3763    2.6015   -0.5958 C.ar    1  UNL1       -0.0610
      6 C          -3.1240    2.1374   -0.3047 C.ar    1  UNL1       -0.0496
      7 C          -2.8812    1.0574    0.5180 C.ar    1  UNL1        0.0379
      8 C          -1.4935    0.7210    0.8255 C.ar    1  UNL1        0.1705
      9 N          -0.7144    1.4851    1.6647 N.ar    1  UNL1       -0.1284
     10 N           0.4695    0.9489    1.7565 N.ar    1  UNL1       -0.1272
     11 C           0.5312   -0.1741    0.9959 C.ar    1  UNL1        0.1836
     12 C           1.5494   -1.0708    0.7690 C.ar    1  UNL1        0.0907
     13 C           2.8583   -0.8812    1.4269 C.3     1  UNL1        0.0185
     14 C           3.7054    0.1573    0.8355 C.ar    1  UNL1       -0.0415
     15 C           3.7263    1.4720    1.2518 C.ar    1  UNL1       -0.0582
     16 C           4.5784    2.3605    0.6067 C.ar    1  UNL1       -0.0615
     17 C           5.4062    1.9792   -0.4354 C.ar    1  UNL1       -0.0617
     18 C           5.3661    0.6592   -0.8316 C.ar    1  UNL1       -0.0615
     19 C           4.5358   -0.2515   -0.2184 C.ar    1  UNL1       -0.0582
     20 N           1.3173   -2.0915   -0.0434 N.ar    1  UNL1       -0.2461
     21 C           0.1332   -2.2533   -0.6314 C.ar    1  UNL1        0.0881
     22 C          -0.0876   -3.3054   -1.4922 C.ar    1  UNL1       -0.0343
     23 C          -1.2872   -3.4769   -2.1247 C.ar    1  UNL1       -0.0596
     24 C          -2.2721   -2.5699   -1.8802 C.ar    1  UNL1       -0.0597
     25 C          -2.1062   -1.4860   -1.0185 C.ar    1  UNL1       -0.0357
     26 C          -0.8947   -1.3424   -0.3976 C.ar    1  UNL1        0.0754
     27 N          -0.7072   -0.2778    0.4334 N.ar    1  UNL1       -0.2721
     28 H          -6.1202    0.3899    1.2116 H       1  UNL1        0.0632
     29 H          -6.4686    2.3203   -0.2642 H       1  UNL1        0.0618
     30 H          -4.5316    3.4656   -1.2564 H       1  UNL1        0.0618
     31 H          -2.2687    2.6707   -0.7641 H       1  UNL1        0.0625
     32 H           3.3805   -1.8812    1.4025 H       1  UNL1        0.0378
     33 H           2.7398   -0.6755    2.5252 H       1  UNL1        0.0378
     34 H           3.0887    1.7784    2.0644 H       1  UNL1        0.0620
     35 H           4.5761    3.3881    0.9514 H       1  UNL1        0.0618
     36 H           6.0750    2.6686   -0.9431 H       1  UNL1        0.0618
     37 H           6.0094    0.3246   -1.6544 H       1  UNL1        0.0618
     38 H           4.5270   -1.2944   -0.5560 H       1  UNL1        0.0620
     39 H           0.7021   -4.0104   -1.6726 H       1  UNL1        0.0639
     40 H          -1.4421   -4.3299   -2.8125 H       1  UNL1        0.0618
     41 H          -3.2261   -2.6872   -2.3709 H       1  UNL1        0.0618
     42 H          -2.9088   -0.8149   -0.9082 H       1  UNL1        0.0639
@<TRIPOS>BOND
     1     1     2    1
     2     2     3   ar
     3     3     4   ar
     4     4     5   ar
     5     5     6   ar
     6     6     7   ar
     7     7     8    1
     8     8     9   ar
     9     9    10   ar
    10    10    11   ar
    11    11    12   ar
    12    12    13    1
    13    13    14    1
    14    14    15   ar
    15    15    16   ar
    16    16    17   ar
    17    17    18   ar
    18    18    19   ar
    19    12    20   ar
    20    20    21   ar
    21    21    22   ar
    22    22    23   ar
    23    23    24   ar
    24    24    25   ar
    25    25    26   ar
    26    26    27   ar
    27     7     2   ar
    28    27     8   ar
    29    27    11   ar
    30    19    14   ar
    31    26    21   ar
    32     3    28    1
    33     4    29    1
    34     5    30    1
    35     6    31    1
    36    13    32    1
    37    13    33    1
    38    15    34    1
    39    16    35    1
    40    17    36    1
    41    18    37    1
    42    19    38    1
    43    22    39    1
    44    23    40    1
    45    24    41    1
    46    25    42    1
