@<TRIPOS>MOLECULE
*****
 89 91 0 0 0
SMALL
GASTEIGER

@<TRIPOS>ATOM
      1 C          -1.4814   -0.8361   -3.6875 C.3     1  UNK1        0.1209
      2 C          -2.7616   -1.3824   -3.1580 C.3     1  UNK1       -0.0157
      3 C          -3.6276   -0.5410   -2.3173 C.3     1  UNK1        0.0252
      4 C          -3.1496   -0.0503   -1.0260 C.2     1  UNK1        0.1833
      5 O          -2.2558    0.8005   -0.4312 O.2     1  UNK1       -0.4956
      6 N          -3.7495   -0.5704   -0.0571 N.2     1  UNK1       -0.2400
      7 C          -3.6761   -0.4492    1.3444 C.3     1  UNK1        0.1508
      8 C          -4.0559    0.9419    1.7836 C.3     1  UNK1       -0.0117
      9 C          -5.4171    1.3895    1.3634 C.3     1  UNK1        0.0255
     10 C          -6.4607    0.5028    1.8707 C.2     1  UNK1        0.1833
     11 O          -6.7078    0.1666    3.1787 O.2     1  UNK1       -0.4956
     12 N          -7.1940    0.0213    0.9269 N.2     1  UNK1       -0.2400
     13 C          -8.2725   -0.8662    1.1645 C.3     1  UNK1        0.1509
     14 C          -9.5094   -0.5687    0.3974 C.3     1  UNK1       -0.0100
     15 C         -10.0425    0.7923    0.6963 C.3     1  UNK1        0.0472
     16 C          -9.1453    1.8732    0.2702 C.2     1  UNK1        0.3048
     17 O          -9.6892    3.0737    0.6599 O.3     1  UNK1       -0.4806
     18 O          -8.0587    2.1612   -0.3191 O.2     1  UNK1       -0.2510
     19 C          -7.8810   -2.2851    0.7586 C.2     1  UNK1        0.3296
     20 O          -8.8030   -3.3113    0.9830 O.3     1  UNK1       -0.4791
     21 O          -6.7827   -2.6183    0.2315 O.2     1  UNK1       -0.2486
     22 C          -4.3021   -1.5280    2.1233 C.2     1  UNK1        0.3296
     23 O          -4.8963   -2.5497    2.8468 O.3     1  UNK1       -0.4791
     24 O          -4.0348   -1.2862    3.3548 O.2     1  UNK1       -0.2486
     25 N          -0.4798   -0.4253   -2.7767 N.am    1  UNK1       -0.2983
     26 C           0.7808   -1.1011   -2.9480 C.2     0  UNK0        0.2447
     27 O           0.9483   -1.9924   -3.8562 O.2     0  UNK0       -0.2702
     28 C           2.0186   -0.9013   -2.1643 C.ar    0  UNK0        0.0368
     29 C           3.1639   -1.5684   -2.5258 C.ar    0  UNK0       -0.0479
     30 C           4.3246   -1.3622   -1.7683 C.ar    0  UNK0       -0.0401
     31 C           4.3729   -0.5226   -0.6779 C.ar    0  UNK0        0.0272
     32 N           5.5778   -0.3379    0.0529 N.pl3   0  UNK0       -0.3420
     33 C           5.7100    0.5017    1.2077 C.3     0  UNK0        0.0296
     34 C           7.1023    0.5470    1.7606 C.3     0  UNK0        0.0619
     35 C           7.5992   -0.8151    2.1807 C.3     0  UNK0        0.0309
     36 N           9.0145   -0.7018    2.4681 N.pl3   0  UNK0       -0.3270
     37 C           9.9425    0.0116    1.6665 C.ar    0  UNK0        0.1261
     38 C           9.4642    0.9984    0.8318 C.ar    0  UNK0        0.1368
     39 N           8.0564    1.1570    0.9039 N.am    0  UNK0       -0.2608
     40 C           7.4811    2.0721   -0.0180 C.2     0  UNK0        0.2073
     41 O           6.6580    2.7539   -0.6435 O.2     0  UNK0       -0.2790
     42 C          10.2363    1.7590    0.0126 C.ar    0  UNK0        0.2410
     43 O           9.6817    2.7274   -0.7927 O.3     0  UNK0       -0.4910
     44 N          11.5531    1.4745    0.0709 N.ar    0  UNK0       -0.1761
     45 C          12.0490    0.5213    0.8717 C.ar    0  UNK0        0.2251
     46 N          13.3214    0.2865    0.8916 N.2     0  UNK0       -0.2664
     47 N          11.2788   -0.2383    1.6899 N.ar    0  UNK0       -0.3113
     48 C           3.2162    0.1505   -0.3127 C.ar    0  UNK0       -0.0401
     49 C           2.0855   -0.0656   -1.0706 C.ar    0  UNK0       -0.0479
     50 C          -1.7644    0.3306   -4.6305 C.2     1  UNK1        0.3253
     51 O          -1.2202    1.6196   -4.7081 O.3     1  UNK1       -0.4793
     52 O          -2.6487    0.1185   -5.5118 O.2     1  UNK1       -0.2489
     53 H          -1.0950   -1.6322   -4.4063 H       1  UNK1        0.0614
     54 H          -3.4206   -1.7356   -4.0250 H       1  UNK1        0.0293
     55 H          -2.5465   -2.3563   -2.6257 H       1  UNK1        0.0293
     56 H          -4.6426   -1.0259   -2.1553 H       1  UNK1        0.0360
     57 H          -3.9442    0.3717   -2.9388 H       1  UNK1        0.0360
     58 H          -1.4571    0.4723    0.1303 H       1  UNK1        0.2934
     59 H          -2.5500   -0.5008    1.5998 H       1  UNK1        0.0662
     60 H          -4.0376    1.0211    2.9054 H       1  UNK1        0.0296
     61 H          -3.3170    1.6669    1.4344 H       1  UNK1        0.0296
     62 H          -5.5518    2.4157    1.8351 H       1  UNK1        0.0360
     63 H          -5.4302    1.5086    0.2467 H       1  UNK1        0.0360
     64 H          -7.6264    0.2713    3.5595 H       1  UNK1        0.2934
     65 H          -8.5371   -0.8916    2.2523 H       1  UNK1        0.0662
     66 H          -9.3248   -0.6689   -0.7136 H       1  UNK1        0.0296
     67 H         -10.2738   -1.3635    0.6485 H       1  UNK1        0.0296
     68 H         -10.9878    0.9146    0.1112 H       1  UNK1        0.0378
     69 H         -10.2933    0.9010    1.7828 H       1  UNK1        0.0378
     70 H          -9.2869    3.9936    0.5741 H       1  UNK1        0.2951
     71 H          -8.6924   -4.1621    0.4383 H       1  UNK1        0.2951
     72 H          -5.8823   -2.7517    2.7933 H       1  UNK1        0.2951
     73 H          -0.2917    0.2173   -1.9969 H       1  UNK1        0.1498
     74 H           3.2385   -2.2421   -3.3525 H       0  UNK0        0.0626
     75 H           5.2214   -1.8867   -2.0555 H       0  UNK0        0.0636
     76 H           6.4389   -0.8430   -0.2597 H       0  UNK0        0.1461
     77 H           5.0569    0.1449    2.0516 H       0  UNK0        0.0480
     78 H           5.3659    1.5443    1.0277 H       0  UNK0        0.0480
     79 H           7.0882    1.1542    2.7098 H       0  UNK0        0.0535
     80 H           7.4167   -1.5690    1.3756 H       0  UNK0        0.0480
     81 H           7.0198   -1.0822    3.0952 H       0  UNK0        0.0480
     82 H           9.3850   -1.1747    3.3211 H       0  UNK0        0.1475
     83 H           7.0943    2.7917   -0.7531 H       0  UNK0        0.1257
     84 H          10.0731    3.0144   -1.6636 H       0  UNK0        0.2938
     85 H          13.9235    0.8603    0.2708 H       0  UNK0        0.1898
     86 H          11.6474   -0.9865    2.3202 H       0  UNK0        0.1700
     87 H           3.2443    0.8041    0.5333 H       0  UNK0        0.0636
     88 H           1.2297    0.4871   -0.7309 H       0  UNK0        0.0626
     89 H          -1.8238    2.4399   -4.7612 H       1  UNK1        0.2951
@<TRIPOS>BOND
     1     1     2    1
     2     2     3    1
     3     3     4    1
     4     4     5    1
     5     4     6    2
     6     6     7    1
     7     7     8    1
     8     8     9    1
     9     9    10    1
    10    10    11    1
    11    10    12    2
    12    12    13    1
    13    13    14    1
    14    14    15    1
    15    15    16    1
    16    16    17    1
    17    16    18    2
    18    13    19    1
    19    19    20    1
    20    19    21    2
    21     7    22    1
    22    22    23    1
    23    22    24    2
    24     1    25    1
    25    25    26   am
    26    26    27    2
    27    26    28    1
    28    28    29   ar
    29    29    30   ar
    30    30    31   ar
    31    31    32    1
    32    32    33    1
    33    33    34    1
    34    34    35    1
    35    35    36    1
    36    36    37    1
    37    37    38   ar
    38    38    39    1
    39    39    40   am
    40    40    41    2
    41    38    42   ar
    42    42    43    1
    43    42    44   ar
    44    44    45   ar
    45    45    46    2
    46    45    47   ar
    47    31    48   ar
    48    48    49   ar
    49     1    50    1
    50    50    51    1
    51    50    52    2
    52    49    28   ar
    53    39    34    1
    54    47    37   ar
    55     1    53    1
    56     2    54    1
    57     2    55    1
    58     3    56    1
    59     3    57    1
    60     5    58    1
    61     7    59    1
    62     8    60    1
    63     8    61    1
    64     9    62    1
    65     9    63    1
    66    11    64    1
    67    13    65    1
    68    14    66    1
    69    14    67    1
    70    15    68    1
    71    15    69    1
    72    17    70    1
    73    20    71    1
    74    23    72    1
    75    25    73    1
    76    29    74    1
    77    30    75    1
    78    32    76    1
    79    33    77    1
    80    33    78    1
    81    34    79    1
    82    35    80    1
    83    35    81    1
    84    36    82    1
    85    40    83    1
    86    43    84    1
    87    46    85    1
    88    47    86    1
    89    48    87    1
    90    49    88    1
    91    51    89    1
