@<TRIPOS>MOLECULE
*****
 54 55 0 0 0
SMALL
GASTEIGER

@<TRIPOS>ATOM
      1 C           3.8308    0.6355    1.9603 C.3     1  UNL1       -0.0497
      2 C           2.4936    0.7955    1.3178 C.3     1  UNL1        0.0050
      3 C           2.0478    2.2401    1.3920 C.3     1  UNL1       -0.0497
      4 N           2.3835    0.2188    0.0451 N.3     1  UNL1       -0.2974
      5 C           1.1540    0.3363   -0.6403 C.3     1  UNL1        0.0010
      6 C           0.0978   -0.4805    0.0719 C.3     1  UNL1       -0.0166
      7 C          -1.2406   -0.3858   -0.6263 C.3     1  UNL1        0.1144
      8 C          -1.1345   -0.8906   -2.0169 C.2     1  UNL1        0.2269
      9 N          -2.3880   -0.8481   -2.6867 N.am    1  UNL1       -0.3283
     10 O          -0.2611   -1.3520   -2.7960 O.2     1  UNL1       -0.2746
     11 C          -1.6927    1.0087   -0.5591 C.ar    1  UNL1       -0.0266
     12 C          -1.9576    1.8575   -1.5964 C.ar    1  UNL1       -0.0572
     13 C          -2.3823    3.1596   -1.4388 C.ar    1  UNL1       -0.0615
     14 C          -2.5525    3.6404   -0.1518 C.ar    1  UNL1       -0.0617
     15 C          -2.2957    2.8147    0.9254 C.ar    1  UNL1       -0.0615
     16 C          -1.8714    1.5164    0.7126 C.ar    1  UNL1       -0.0572
     17 C          -2.2416   -1.2417    0.0564 C.ar    1  UNL1        0.0606
     18 N          -3.4805   -1.2904   -0.4671 N.ar    1  UNL1       -0.2585
     19 C          -4.4618   -2.0491    0.0952 C.ar    1  UNL1        0.0279
     20 C          -4.2646   -2.8147    1.2274 C.ar    1  UNL1       -0.0436
     21 C          -2.9807   -2.7734    1.7818 C.ar    1  UNL1       -0.0586
     22 C          -2.0184   -1.9883    1.1752 C.ar    1  UNL1       -0.0390
     23 C           3.3921   -0.6028   -0.4725 C.3     1  UNL1        0.0050
     24 C           3.1108   -1.1377   -1.8634 C.3     1  UNL1       -0.0497
     25 C           3.6118   -1.7918    0.4458 C.3     1  UNL1       -0.0497
     26 H           3.9789    1.5389    2.6312 H       1  UNL1        0.0245
     27 H           4.6959    0.6331    1.3002 H       1  UNL1        0.0245
     28 H           3.8791   -0.2451    2.6354 H       1  UNL1        0.0245
     29 H           1.7726    0.2358    1.9915 H       1  UNL1        0.0457
     30 H           0.9931    2.3328    1.7265 H       1  UNL1        0.0245
     31 H           2.6492    2.8280    2.1180 H       1  UNL1        0.0245
     32 H           2.0893    2.7616    0.4138 H       1  UNL1        0.0245
     33 H           1.2307    0.0982   -1.7062 H       1  UNL1        0.0427
     34 H           0.8023    1.4098   -0.5953 H       1  UNL1        0.0427
     35 H           0.3765   -1.5648    0.0385 H       1  UNL1        0.0294
     36 H          -0.0206   -0.1048    1.1066 H       1  UNL1        0.0294
     37 H          -2.9796   -0.4570   -3.4496 H       1  UNL1        0.1450
     38 H          -3.3888   -1.0310   -2.9603 H       1  UNL1        0.1450
     39 H          -1.8153    1.4554   -2.5898 H       1  UNL1        0.0621
     40 H          -2.5600    3.7373   -2.3526 H       1  UNL1        0.0618
     41 H          -2.8898    4.6757   -0.1284 H       1  UNL1        0.0618
     42 H          -2.4626    3.2943    1.8790 H       1  UNL1        0.0618
     43 H          -1.6943    0.9405    1.6075 H       1  UNL1        0.0621
     44 H          -5.4624   -2.0744   -0.3470 H       1  UNL1        0.0829
     45 H          -5.0650   -3.3978    1.6360 H       1  UNL1        0.0633
     46 H          -2.7732   -3.3573    2.6717 H       1  UNL1        0.0619
     47 H          -1.0272   -1.9620    1.6130 H       1  UNL1        0.0636
     48 H           4.3557   -0.0570   -0.5531 H       1  UNL1        0.0457
     49 H           4.0315   -1.7071   -2.1694 H       1  UNL1        0.0245
     50 H           2.2854   -1.8609   -1.8937 H       1  UNL1        0.0245
     51 H           3.0416   -0.2928   -2.5538 H       1  UNL1        0.0245
     52 H           4.6096   -1.7644    0.9457 H       1  UNL1        0.0245
     53 H           3.5996   -2.7563   -0.1448 H       1  UNL1        0.0245
     54 H           2.8494   -1.8853    1.2373 H       1  UNL1        0.0245
@<TRIPOS>BOND
     1     1     2    1
     2     2     3    1
     3     2     4    1
     4     4     5    1
     5     5     6    1
     6     6     7    1
     7     7     8    1
     8     8     9   am
     9     8    10    2
    10     7    11    1
    11    11    12   ar
    12    12    13   ar
    13    13    14   ar
    14    14    15   ar
    15    15    16   ar
    16     7    17    1
    17    17    18   ar
    18    18    19   ar
    19    19    20   ar
    20    20    21   ar
    21    21    22   ar
    22     4    23    1
    23    23    24    1
    24    23    25    1
    25    16    11   ar
    26    22    17   ar
    27     1    26    1
    28     1    27    1
    29     1    28    1
    30     2    29    1
    31     3    30    1
    32     3    31    1
    33     3    32    1
    34     5    33    1
    35     5    34    1
    36     6    35    1
    37     6    36    1
    38     9    37    1
    39     9    38    1
    40    12    39    1
    41    13    40    1
    42    14    41    1
    43    15    42    1
    44    16    43    1
    45    19    44    1
    46    20    45    1
    47    21    46    1
    48    22    47    1
    49    23    48    1
    50    24    49    1
    51    24    50    1
    52    24    51    1
    53    25    52    1
    54    25    53    1
    55    25    54    1
