
     RDKit          3D

 54 55  0  0  0  0  0  0  0  0999 V2000
    3.8308    0.6355    1.9603 C   0  0  0  0  0  0  0  0  0  0  0  0
    2.4936    0.7955    1.3178 C   0  0  0  0  0  0  0  0  0  0  0  0
    2.0478    2.2401    1.3920 C   0  0  0  0  0  0  0  0  0  0  0  0
    2.3835    0.2188    0.0451 N   0  0  0  0  0  0  0  0  0  0  0  0
    1.1540    0.3363   -0.6403 C   0  0  0  0  0  0  0  0  0  0  0  0
    0.0978   -0.4805    0.0719 C   0  0  0  0  0  0  0  0  0  0  0  0
   -1.2406   -0.3858   -0.6263 C   0  0  0  0  0  0  0  0  0  0  0  0
   -1.1345   -0.8906   -2.0169 C   0  0  0  0  0  0  0  0  0  0  0  0
   -2.3880   -0.8481   -2.6867 N   0  0  0  0  0  0  0  0  0  0  0  0
   -0.2611   -1.3520   -2.7960 O   0  0  0  0  0  0  0  0  0  0  0  0
   -1.6927    1.0087   -0.5591 C   0  0  0  0  0  0  0  0  0  0  0  0
   -1.9576    1.8575   -1.5964 C   0  0  0  0  0  0  0  0  0  0  0  0
   -2.3823    3.1596   -1.4388 C   0  0  0  0  0  0  0  0  0  0  0  0
   -2.5525    3.6404   -0.1518 C   0  0  0  0  0  0  0  0  0  0  0  0
   -2.2957    2.8147    0.9254 C   0  0  0  0  0  0  0  0  0  0  0  0
   -1.8714    1.5164    0.7126 C   0  0  0  0  0  0  0  0  0  0  0  0
   -2.2416   -1.2417    0.0564 C   0  0  0  0  0  0  0  0  0  0  0  0
   -3.4805   -1.2904   -0.4671 N   0  0  0  0  0  0  0  0  0  0  0  0
   -4.4618   -2.0491    0.0952 C   0  0  0  0  0  0  0  0  0  0  0  0
   -4.2646   -2.8147    1.2274 C   0  0  0  0  0  0  0  0  0  0  0  0
   -2.9807   -2.7734    1.7818 C   0  0  0  0  0  0  0  0  0  0  0  0
   -2.0184   -1.9883    1.1752 C   0  0  0  0  0  0  0  0  0  0  0  0
    3.3921   -0.6028   -0.4725 C   0  0  0  0  0  0  0  0  0  0  0  0
    3.1108   -1.1377   -1.8634 C   0  0  0  0  0  0  0  0  0  0  0  0
    3.6118   -1.7918    0.4458 C   0  0  0  0  0  0  0  0  0  0  0  0
    3.9789    1.5389    2.6312 H   0  0  0  0  0  0  0  0  0  0  0  0
    4.6959    0.6331    1.3002 H   0  0  0  0  0  0  0  0  0  0  0  0
    3.8791   -0.2451    2.6354 H   0  0  0  0  0  0  0  0  0  0  0  0
    1.7726    0.2358    1.9915 H   0  0  0  0  0  0  0  0  0  0  0  0
    0.9931    2.3328    1.7265 H   0  0  0  0  0  0  0  0  0  0  0  0
    2.6492    2.8280    2.1180 H   0  0  0  0  0  0  0  0  0  0  0  0
    2.0893    2.7616    0.4138 H   0  0  0  0  0  0  0  0  0  0  0  0
    1.2307    0.0982   -1.7062 H   0  0  0  0  0  0  0  0  0  0  0  0
    0.8023    1.4098   -0.5953 H   0  0  0  0  0  0  0  0  0  0  0  0
    0.3765   -1.5648    0.0385 H   0  0  0  0  0  0  0  0  0  0  0  0
   -0.0206   -0.1048    1.1066 H   0  0  0  0  0  0  0  0  0  0  0  0
   -2.9796   -0.4570   -3.4496 H   0  0  0  0  0  0  0  0  0  0  0  0
   -3.3888   -1.0310   -2.9603 H   0  0  0  0  0  0  0  0  0  0  0  0
   -1.8153    1.4554   -2.5898 H   0  0  0  0  0  0  0  0  0  0  0  0
   -2.5600    3.7373   -2.3526 H   0  0  0  0  0  0  0  0  0  0  0  0
   -2.8898    4.6757   -0.1284 H   0  0  0  0  0  0  0  0  0  0  0  0
   -2.4626    3.2943    1.8790 H   0  0  0  0  0  0  0  0  0  0  0  0
   -1.6943    0.9405    1.6075 H   0  0  0  0  0  0  0  0  0  0  0  0
   -5.4624   -2.0744   -0.3470 H   0  0  0  0  0  0  0  0  0  0  0  0
   -5.0650   -3.3978    1.6360 H   0  0  0  0  0  0  0  0  0  0  0  0
   -2.7732   -3.3573    2.6717 H   0  0  0  0  0  0  0  0  0  0  0  0
   -1.0272   -1.9620    1.6130 H   0  0  0  0  0  0  0  0  0  0  0  0
    4.3557   -0.0570   -0.5531 H   0  0  0  0  0  0  0  0  0  0  0  0
    4.0315   -1.7071   -2.1694 H   0  0  0  0  0  0  0  0  0  0  0  0
    2.2854   -1.8609   -1.8937 H   0  0  0  0  0  0  0  0  0  0  0  0
    3.0416   -0.2928   -2.5538 H   0  0  0  0  0  0  0  0  0  0  0  0
    4.6096   -1.7644    0.9457 H   0  0  0  0  0  0  0  0  0  0  0  0
    3.5996   -2.7563   -0.1448 H   0  0  0  0  0  0  0  0  0  0  0  0
    2.8494   -1.8853    1.2373 H   0  0  0  0  0  0  0  0  0  0  0  0
  1  2  1  0
  2  3  1  0
  2  4  1  0
  4  5  1  0
  5  6  1  0
  6  7  1  0
  7  8  1  0
  8  9  1  0
  8 10  2  0
  7 11  1  0
 11 12  2  0
 12 13  1  0
 13 14  2  0
 14 15  1  0
 15 16  2  0
  7 17  1  0
 17 18  2  0
 18 19  1  0
 19 20  2  0
 20 21  1  0
 21 22  2  0
  4 23  1  0
 23 24  1  0
 23 25  1  0
 16 11  1  0
 22 17  1  0
  1 26  1  0
  1 27  1  0
  1 28  1  0
  2 29  1  0
  3 30  1  0
  3 31  1  0
  3 32  1  0
  5 33  1  0
  5 34  1  0
  6 35  1  0
  6 36  1  0
  9 37  1  0
  9 38  1  0
 12 39  1  0
 13 40  1  0
 14 41  1  0
 15 42  1  0
 16 43  1  0
 19 44  1  0
 20 45  1  0
 21 46  1  0
 22 47  1  0
 23 48  1  0
 24 49  1  0
 24 50  1  0
 24 51  1  0
 25 52  1  0
 25 53  1  0
 25 54  1  0
M  END
$$$$
