
     RDKit          3D

 42 45  0  0  0  0  0  0  0  0999 V2000
    6.9439    2.4402    0.4374 N   0  0  0  0  0  0  0  0  0  0  0  0
    6.2563    1.6706   -0.9210 S   0  0  0  0  0  0  0  0  0  0  0  0
    7.4007    1.1233   -1.7617 O   0  0  0  0  0  0  0  0  0  0  0  0
    5.5425    2.6580   -1.7817 O   0  0  0  0  0  0  0  0  0  0  0  0
    5.1658    0.3937   -0.5171 C   0  0  0  0  0  0  0  0  0  0  0  0
    3.8385    0.5993   -0.3404 C   0  0  0  0  0  0  0  0  0  0  0  0
    2.9249   -0.3862   -0.0182 C   0  0  0  0  0  0  0  0  0  0  0  0
    1.5491   -0.0885    0.1543 N   0  0  0  0  0  0  0  0  0  0  0  0
    0.4746   -0.9818    0.4051 C   0  0  0  0  0  0  0  0  0  0  0  0
   -0.7538   -0.4939    0.5634 N   0  0  0  0  0  0  0  0  0  0  0  0
   -1.8422   -1.2361    0.7979 C   0  0  0  0  0  0  0  0  0  0  0  0
   -3.1312   -0.7131    0.9673 N   0  0  0  0  0  0  0  0  0  0  0  0
   -4.3218   -0.3026    0.3485 C   0  0  0  0  0  0  0  0  0  0  0  0
   -5.3897   -1.1359    0.0932 C   0  0  0  0  0  0  0  0  0  0  0  0
   -5.3209   -2.8246    0.5445 Cl  0  0  0  0  0  0  0  0  0  0  0  0
   -6.5382   -0.6794   -0.5172 C   0  0  0  0  0  0  0  0  0  0  0  0
   -6.5554    0.6477   -0.8538 C   0  0  0  0  0  0  0  0  0  0  0  0
   -5.5203    1.5253   -0.6233 C   0  0  0  0  0  0  0  0  0  0  0  0
   -4.3597    1.0523   -0.0038 C   0  0  0  0  0  0  0  0  0  0  0  0
   -3.4616    2.1298    0.1181 O   0  0  0  0  0  0  0  0  0  0  0  0
   -4.2254    3.3285   -0.0383 C   0  0  0  0  0  0  0  0  0  0  0  0
   -5.3110    2.8921   -0.8710 O   0  0  0  0  0  0  0  0  0  0  0  0
   -1.6961   -2.6009    0.8840 C   0  0  0  0  0  0  0  0  0  0  0  0
   -0.4304   -3.1120    0.7215 C   0  0  0  0  0  0  0  0  0  0  0  0
    0.6093   -2.3086    0.4901 N   0  0  0  0  0  0  0  0  0  0  0  0
    3.5004   -1.6262    0.1106 C   0  0  0  0  0  0  0  0  0  0  0  0
    4.8367   -1.8987   -0.0555 C   0  0  0  0  0  0  0  0  0  0  0  0
    5.6929   -0.8688   -0.3767 C   0  0  0  0  0  0  0  0  0  0  0  0
    6.5583    3.4056    0.5959 H   0  0  0  0  0  0  0  0  0  0  0  0
    6.8912    1.8325    1.2816 H   0  0  0  0  0  0  0  0  0  0  0  0
    3.5026    1.6242   -0.4702 H   0  0  0  0  0  0  0  0  0  0  0  0
    1.3123    0.9385    0.0840 H   0  0  0  0  0  0  0  0  0  0  0  0
   -3.2961   -0.5529    1.9839 H   0  0  0  0  0  0  0  0  0  0  0  0
   -7.3979   -1.2898   -0.7384 H   0  0  0  0  0  0  0  0  0  0  0  0
   -7.4076    1.0829   -1.3304 H   0  0  0  0  0  0  0  0  0  0  0  0
   -4.6842    3.5782    0.9436 H   0  0  0  0  0  0  0  0  0  0  0  0
   -3.6409    4.1382   -0.4942 H   0  0  0  0  0  0  0  0  0  0  0  0
   -2.4433   -3.3566    1.0664 H   0  0  0  0  0  0  0  0  0  0  0  0
   -0.1800   -4.1755    0.7661 H   0  0  0  0  0  0  0  0  0  0  0  0
    2.9086   -2.4770    0.3594 H   0  0  0  0  0  0  0  0  0  0  0  0
    5.2504   -2.8912    0.0557 H   0  0  0  0  0  0  0  0  0  0  0  0
    6.7487   -1.0603   -0.5116 H   0  0  0  0  0  0  0  0  0  0  0  0
  1  2  1  0
  2  3  2  0
  2  4  2  0
  2  5  1  0
  5  6  2  0
  6  7  1  0
  7  8  1  0
  8  9  1  0
  9 10  2  0
 10 11  1  0
 11 12  1  0
 12 13  1  0
 13 14  2  0
 14 15  1  0
 14 16  1  0
 16 17  2  0
 17 18  1  0
 18 19  2  0
 19 20  1  0
 20 21  1  0
 21 22  1  0
 11 23  2  0
 23 24  1  0
 24 25  2  0
  7 26  2  0
 26 27  1  0
 27 28  2  0
 28  5  1  0
 25  9  1  0
 19 13  1  0
 22 18  1  0
  1 29  1  0
  1 30  1  0
  6 31  1  0
  8 32  1  0
 12 33  1  0
 16 34  1  0
 17 35  1  0
 21 36  1  0
 21 37  1  0
 23 38  1  0
 24 39  1  0
 26 40  1  0
 27 41  1  0
 28 42  1  0
M  END
$$$$
