
     RDKit          3D

 76 80  0  0  0  0  0  0  0  0999 V2000
   -3.9627    5.9867    0.3044 C   0  0  0  0  0  0  0  0  0  0  0  0
   -4.1136    4.4999    0.1617 C   0  0  0  0  0  0  0  0  0  0  0  0
   -3.0379    3.6994   -0.1524 C   0  0  0  0  0  0  0  0  0  0  0  0
   -3.2009    2.3177   -0.2802 C   0  0  0  0  0  0  0  0  0  0  0  0
   -4.4157    1.7055   -0.1022 C   0  0  0  0  0  0  0  0  0  0  0  0
   -4.6190    0.3041   -0.2236 N   0  0  0  0  0  0  0  0  0  0  0  0
   -5.5219   -0.2509   -1.0268 N   0  0  0  0  0  0  0  0  0  0  0  0
   -5.5036   -1.5824   -0.9343 C   0  0  0  0  0  0  0  0  0  0  0  0
   -6.3635   -2.5740   -1.6736 C   0  0  0  0  0  0  0  0  0  0  0  0
   -7.5894   -2.7915   -0.8151 C   0  0  0  0  0  0  0  0  0  0  0  0
   -5.6113   -3.8874   -1.7264 C   0  0  0  0  0  0  0  0  0  0  0  0
   -6.7045   -2.0899   -3.0457 C   0  0  0  0  0  0  0  0  0  0  0  0
   -4.5238   -1.8838   -0.0116 C   0  0  0  0  0  0  0  0  0  0  0  0
   -3.9830   -0.6890    0.4202 C   0  0  0  0  0  0  0  0  0  0  0  0
   -2.9400   -0.5894    1.3856 N   0  0  0  0  0  0  0  0  0  0  0  0
   -1.5801   -0.6455    1.0337 C   0  0  0  0  0  0  0  0  0  0  0  0
   -1.2869   -0.8003   -0.1863 O   0  0  0  0  0  0  0  0  0  0  0  0
   -0.5356   -0.5332    2.0130 N   0  0  0  0  0  0  0  0  0  0  0  0
    0.8079   -0.5971    1.6305 C   0  0  0  0  0  0  0  0  0  0  0  0
    1.4993    0.5328    1.2814 C   0  0  0  0  0  0  0  0  0  0  0  0
    2.8447    0.4397    0.9022 C   0  0  0  0  0  0  0  0  0  0  0  0
    3.5289   -0.7543    0.8590 C   0  0  0  0  0  0  0  0  0  0  0  0
    4.8185   -0.9547    0.5122 O   0  0  0  0  0  0  0  0  0  0  0  0
    5.8128   -0.1000    0.0943 C   0  0  0  0  0  0  0  0  0  0  0  0
    5.6041    0.6140   -1.1979 C   0  0  0  0  0  0  0  0  0  0  0  0
    6.7323    1.4884   -1.5086 N   0  0  0  0  0  0  0  0  0  0  0  0
    6.7497    2.5560   -0.5762 C   0  0  0  0  0  0  0  0  0  0  0  0
    8.0217    2.7713    0.1721 C   0  0  0  0  0  0  0  0  0  0  0  0
    9.1460    2.3732   -0.5692 O   0  0  0  0  0  0  0  0  0  0  0  0
    9.0098    0.9749   -0.6865 C   0  0  0  0  0  0  0  0  0  0  0  0
    7.9015    0.7017   -1.6442 C   0  0  0  0  0  0  0  0  0  0  0  0
    2.7880   -1.8991    1.2248 C   0  0  0  0  0  0  0  0  0  0  0  0
    3.4035   -3.1403    1.2092 C   0  0  0  0  0  0  0  0  0  0  0  0
    2.7415   -4.3132    1.5567 C   0  0  0  0  0  0  0  0  0  0  0  0
    1.4219   -4.1572    1.9204 C   0  0  0  0  0  0  0  0  0  0  0  0
    0.7721   -2.9624    1.9521 C   0  0  0  0  0  0  0  0  0  0  0  0
    1.4715   -1.8034    1.5955 C   0  0  0  0  0  0  0  0  0  0  0  0
   -5.5038    2.5295    0.2172 C   0  0  0  0  0  0  0  0  0  0  0  0
   -5.3365    3.8918    0.3416 C   0  0  0  0  0  0  0  0  0  0  0  0
   -4.2317    6.4484   -0.6716 H   0  0  0  0  0  0  0  0  0  0  0  0
   -2.9448    6.2320    0.6402 H   0  0  0  0  0  0  0  0  0  0  0  0
   -4.7378    6.3431    1.0320 H   0  0  0  0  0  0  0  0  0  0  0  0
   -2.0469    4.1212   -0.3060 H   0  0  0  0  0  0  0  0  0  0  0  0
   -2.3572    1.6860   -0.5281 H   0  0  0  0  0  0  0  0  0  0  0  0
   -7.3736   -2.6769    0.2656 H   0  0  0  0  0  0  0  0  0  0  0  0
   -8.3250   -1.9988   -1.0928 H   0  0  0  0  0  0  0  0  0  0  0  0
   -8.0472   -3.7607   -1.0606 H   0  0  0  0  0  0  0  0  0  0  0  0
   -4.5767   -3.7194   -2.0841 H   0  0  0  0  0  0  0  0  0  0  0  0
   -5.6487   -4.4135   -0.7494 H   0  0  0  0  0  0  0  0  0  0  0  0
   -6.1383   -4.5225   -2.4644 H   0  0  0  0  0  0  0  0  0  0  0  0
   -6.1015   -2.6695   -3.7861 H   0  0  0  0  0  0  0  0  0  0  0  0
   -7.7670   -2.3226   -3.2628 H   0  0  0  0  0  0  0  0  0  0  0  0
   -6.5781   -0.9947   -3.1689 H   0  0  0  0  0  0  0  0  0  0  0  0
   -4.2415   -2.8991    0.3076 H   0  0  0  0  0  0  0  0  0  0  0  0
   -3.2237   -0.4623    2.3989 H   0  0  0  0  0  0  0  0  0  0  0  0
   -0.7978   -0.4034    3.0109 H   0  0  0  0  0  0  0  0  0  0  0  0
    1.0579    1.5247    1.2799 H   0  0  0  0  0  0  0  0  0  0  0  0
    3.3614    1.3380    0.6506 H   0  0  0  0  0  0  0  0  0  0  0  0
    5.9636    0.6512    0.9326 H   0  0  0  0  0  0  0  0  0  0  0  0
    6.7909   -0.6773    0.0974 H   0  0  0  0  0  0  0  0  0  0  0  0
    4.6940    1.2134   -1.1916 H   0  0  0  0  0  0  0  0  0  0  0  0
    5.5891   -0.1529   -2.0163 H   0  0  0  0  0  0  0  0  0  0  0  0
    5.8675    2.5383    0.1296 H   0  0  0  0  0  0  0  0  0  0  0  0
    6.5745    3.5012   -1.1734 H   0  0  0  0  0  0  0  0  0  0  0  0
    8.1397    3.8142    0.5349 H   0  0  0  0  0  0  0  0  0  0  0  0
    8.0000    2.0577    1.0484 H   0  0  0  0  0  0  0  0  0  0  0  0
    8.7830    0.6210    0.3398 H   0  0  0  0  0  0  0  0  0  0  0  0
    9.9516    0.5143   -1.0467 H   0  0  0  0  0  0  0  0  0  0  0  0
    7.6946   -0.4047   -1.6988 H   0  0  0  0  0  0  0  0  0  0  0  0
    8.3177    0.9212   -2.6750 H   0  0  0  0  0  0  0  0  0  0  0  0
    4.4442   -3.2278    0.9173 H   0  0  0  0  0  0  0  0  0  0  0  0
    3.2370   -5.2773    1.5401 H   0  0  0  0  0  0  0  0  0  0  0  0
    0.8717   -5.0450    2.1978 H   0  0  0  0  0  0  0  0  0  0  0  0
   -0.2677   -2.8406    2.2387 H   0  0  0  0  0  0  0  0  0  0  0  0
   -6.4806    2.0490    0.3617 H   0  0  0  0  0  0  0  0  0  0  0  0
   -6.1945    4.5065    0.5900 H   0  0  0  0  0  0  0  0  0  0  0  0
  1  2  1  0
  2  3  2  0
  3  4  1  0
  4  5  2  0
  5  6  1  0
  6  7  1  0
  7  8  2  0
  8  9  1  0
  9 10  1  0
  9 11  1  0
  9 12  1  0
  8 13  1  0
 13 14  2  0
 14 15  1  0
 15 16  1  0
 16 17  2  0
 16 18  1  0
 18 19  1  0
 19 20  2  0
 20 21  1  0
 21 22  2  0
 22 23  1  0
 23 24  1  0
 24 25  1  0
 25 26  1  0
 26 27  1  0
 27 28  1  0
 28 29  1  0
 29 30  1  0
 30 31  1  0
 22 32  1  0
 32 33  2  0
 33 34  1  0
 34 35  2  0
 35 36  1  0
 36 37  2  0
  5 38  1  0
 38 39  2  0
 39  2  1  0
 14  6  1  0
 37 19  1  0
 31 26  1  0
 37 32  1  0
  1 40  1  0
  1 41  1  0
  1 42  1  0
  3 43  1  0
  4 44  1  0
 10 45  1  0
 10 46  1  0
 10 47  1  0
 11 48  1  0
 11 49  1  0
 11 50  1  0
 12 51  1  0
 12 52  1  0
 12 53  1  0
 13 54  1  0
 15 55  1  0
 18 56  1  0
 20 57  1  0
 21 58  1  0
 24 59  1  0
 24 60  1  0
 25 61  1  0
 25 62  1  0
 27 63  1  0
 27 64  1  0
 28 65  1  0
 28 66  1  0
 30 67  1  0
 30 68  1  0
 31 69  1  0
 31 70  1  0
 33 71  1  0
 34 72  1  0
 35 73  1  0
 36 74  1  0
 38 75  1  0
 39 76  1  0
M  END
$$$$
