@<TRIPOS>MOLECULE
*****
 76 80 0 0 0
SMALL
GASTEIGER

@<TRIPOS>ATOM
      1 C          -3.9627    5.9867    0.3044 C.3     1  UNL1       -0.0397
      2 C          -4.1136    4.4999    0.1617 C.ar    1  UNL1       -0.0503
      3 C          -3.0379    3.6994   -0.1524 C.ar    1  UNL1       -0.0568
      4 C          -3.2009    2.3177   -0.2802 C.ar    1  UNL1       -0.0359
      5 C          -4.4157    1.7055   -0.1022 C.ar    1  UNL1        0.0674
      6 N          -4.6190    0.3041   -0.2236 N.ar    1  UNL1       -0.2181
      7 N          -5.5219   -0.2509   -1.0268 N.ar    1  UNL1       -0.1691
      8 C          -5.5036   -1.5824   -0.9343 C.ar    1  UNL1        0.0706
      9 C          -6.3635   -2.5740   -1.6736 C.3     1  UNL1        0.0063
     10 C          -7.5894   -2.7915   -0.8151 C.3     1  UNL1       -0.0546
     11 C          -5.6113   -3.8874   -1.7264 C.3     1  UNL1       -0.0546
     12 C          -6.7045   -2.0899   -3.0457 C.3     1  UNL1       -0.0546
     13 C          -4.5238   -1.8838   -0.0116 C.ar    1  UNL1        0.0021
     14 C          -3.9830   -0.6890    0.4202 C.ar    1  UNL1        0.1299
     15 N          -2.9400   -0.5894    1.3856 N.am    1  UNL1       -0.2538
     16 C          -1.5801   -0.6455    1.0337 C.2     1  UNL1        0.3092
     17 O          -1.2869   -0.8003   -0.1863 O.2     1  UNL1       -0.2521
     18 N          -0.5356   -0.5332    2.0130 N.am    1  UNL1       -0.2686
     19 C           0.8079   -0.5971    1.6305 C.ar    1  UNL1        0.0427
     20 C           1.4993    0.5328    1.2814 C.ar    1  UNL1       -0.0364
     21 C           2.8447    0.4397    0.9022 C.ar    1  UNL1       -0.0176
     22 C           3.5289   -0.7543    0.8590 C.ar    1  UNL1        0.1283
     23 O           4.8185   -0.9547    0.5122 O.3     1  UNL1       -0.4901
     24 C           5.8128   -0.1000    0.0943 C.3     1  UNL1        0.1023
     25 C           5.6041    0.6140   -1.1979 C.3     1  UNL1        0.0333
     26 N           6.7323    1.4884   -1.5086 N.3     1  UNL1       -0.2948
     27 C           6.7497    2.5560   -0.5762 C.3     1  UNL1        0.0225
     28 C           8.0217    2.7713    0.1721 C.3     1  UNL1        0.0604
     29 O           9.1460    2.3732   -0.5692 O.3     1  UNL1       -0.3772
     30 C           9.0098    0.9749   -0.6865 C.3     1  UNL1        0.0604
     31 C           7.9015    0.7017   -1.6442 C.3     1  UNL1        0.0225
     32 C           2.7880   -1.8991    1.2248 C.ar    1  UNL1        0.0256
     33 C           3.4035   -3.1403    1.2092 C.ar    1  UNL1       -0.0505
     34 C           2.7415   -4.3132    1.5567 C.ar    1  UNL1       -0.0611
     35 C           1.4219   -4.1572    1.9204 C.ar    1  UNL1       -0.0611
     36 C           0.7721   -2.9624    1.9521 C.ar    1  UNL1       -0.0521
     37 C           1.4715   -1.8034    1.5955 C.ar    1  UNL1        0.0069
     38 C          -5.5038    2.5295    0.2172 C.ar    1  UNL1       -0.0359
     39 C          -5.3365    3.8918    0.3416 C.ar    1  UNL1       -0.0568
     40 H          -4.2317    6.4484   -0.6716 H       1  UNL1        0.0278
     41 H          -2.9448    6.2320    0.6402 H       1  UNL1        0.0278
     42 H          -4.7378    6.3431    1.0320 H       1  UNL1        0.0278
     43 H          -2.0469    4.1212   -0.3060 H       1  UNL1        0.0621
     44 H          -2.3572    1.6860   -0.5281 H       1  UNL1        0.0639
     45 H          -7.3736   -2.6769    0.2656 H       1  UNL1        0.0239
     46 H          -8.3250   -1.9988   -1.0928 H       1  UNL1        0.0239
     47 H          -8.0472   -3.7607   -1.0606 H       1  UNL1        0.0239
     48 H          -4.5767   -3.7194   -2.0841 H       1  UNL1        0.0239
     49 H          -5.6487   -4.4135   -0.7494 H       1  UNL1        0.0239
     50 H          -6.1383   -4.5225   -2.4644 H       1  UNL1        0.0239
     51 H          -6.1015   -2.6695   -3.7861 H       1  UNL1        0.0239
     52 H          -7.7670   -2.3226   -3.2628 H       1  UNL1        0.0239
     53 H          -6.5781   -0.9947   -3.1689 H       1  UNL1        0.0239
     54 H          -4.2415   -2.8991    0.3076 H       1  UNL1        0.0671
     55 H          -3.2237   -0.4623    2.3989 H       1  UNL1        0.1578
     56 H          -0.7978   -0.4034    3.0109 H       1  UNL1        0.1564
     57 H           1.0579    1.5247    1.2799 H       1  UNL1        0.0637
     58 H           3.3614    1.3380    0.6506 H       1  UNL1        0.0655
     59 H           5.9636    0.6512    0.9326 H       1  UNL1        0.0709
     60 H           6.7909   -0.6773    0.0974 H       1  UNL1        0.0709
     61 H           4.6940    1.2134   -1.1916 H       1  UNL1        0.0460
     62 H           5.5891   -0.1529   -2.0163 H       1  UNL1        0.0460
     63 H           5.8675    2.5383    0.1296 H       1  UNL1        0.0449
     64 H           6.5745    3.5012   -1.1734 H       1  UNL1        0.0449
     65 H           8.1397    3.8142    0.5349 H       1  UNL1        0.0572
     66 H           8.0000    2.0577    1.0484 H       1  UNL1        0.0572
     67 H           8.7830    0.6210    0.3398 H       1  UNL1        0.0572
     68 H           9.9516    0.5143   -1.0467 H       1  UNL1        0.0572
     69 H           7.6946   -0.4047   -1.6988 H       1  UNL1        0.0449
     70 H           8.3177    0.9212   -2.6750 H       1  UNL1        0.0449
     71 H           4.4442   -3.2278    0.9173 H       1  UNL1        0.0625
     72 H           3.2370   -5.2773    1.5401 H       1  UNL1        0.0618
     73 H           0.8717   -5.0450    2.1978 H       1  UNL1        0.0618
     74 H          -0.2677   -2.8406    2.2387 H       1  UNL1        0.0624
     75 H          -6.4806    2.0490    0.3617 H       1  UNL1        0.0639
     76 H          -6.1945    4.5065    0.5900 H       1  UNL1        0.0621
@<TRIPOS>BOND
     1     1     2    1
     2     2     3   ar
     3     3     4   ar
     4     4     5   ar
     5     5     6    1
     6     6     7   ar
     7     7     8   ar
     8     8     9    1
     9     9    10    1
    10     9    11    1
    11     9    12    1
    12     8    13   ar
    13    13    14   ar
    14    14    15    1
    15    15    16   am
    16    16    17    2
    17    16    18   am
    18    18    19    1
    19    19    20   ar
    20    20    21   ar
    21    21    22   ar
    22    22    23    1
    23    23    24    1
    24    24    25    1
    25    25    26    1
    26    26    27    1
    27    27    28    1
    28    28    29    1
    29    29    30    1
    30    30    31    1
    31    22    32   ar
    32    32    33   ar
    33    33    34   ar
    34    34    35   ar
    35    35    36   ar
    36    36    37   ar
    37     5    38   ar
    38    38    39   ar
    39    39     2   ar
    40    14     6   ar
    41    37    19   ar
    42    31    26    1
    43    37    32   ar
    44     1    40    1
    45     1    41    1
    46     1    42    1
    47     3    43    1
    48     4    44    1
    49    10    45    1
    50    10    46    1
    51    10    47    1
    52    11    48    1
    53    11    49    1
    54    11    50    1
    55    12    51    1
    56    12    52    1
    57    12    53    1
    58    13    54    1
    59    15    55    1
    60    18    56    1
    61    20    57    1
    62    21    58    1
    63    24    59    1
    64    24    60    1
    65    25    61    1
    66    25    62    1
    67    27    63    1
    68    27    64    1
    69    28    65    1
    70    28    66    1
    71    30    67    1
    72    30    68    1
    73    31    69    1
    74    31    70    1
    75    33    71    1
    76    34    72    1
    77    35    73    1
    78    36    74    1
    79    38    75    1
    80    39    76    1
