@<TRIPOS>MOLECULE
*****
 38 39 0 0 0
SMALL
GASTEIGER

@<TRIPOS>ATOM
      1 O          -3.9795    3.2651   -1.5053 O.3     1  UNL1       -0.3927
      2 C          -4.8853    2.4563   -0.8226 C.3     1  UNL1        0.0698
      3 C          -4.3154    1.0550   -0.7532 C.3     1  UNL1        0.0963
      4 O          -3.1088    1.1249   -0.0770 O.3     1  UNL1       -0.2773
      5 N          -2.5528   -0.1099    0.0138 N.am    1  UNL1       -0.1904
      6 C          -1.3099   -0.3361    0.6582 C.2     1  UNL1        0.2686
      7 O          -0.7376    0.6661    1.1476 O.2     1  UNL1       -0.2680
      8 C          -0.6680   -1.6404    0.7842 C.ar    1  UNL1        0.0628
      9 C          -1.2373   -2.7850    0.2717 C.ar    1  UNL1       -0.0449
     10 C          -0.6223   -4.0150    0.3958 C.ar    1  UNL1       -0.0228
     11 C           0.5861   -4.0818    1.0490 C.ar    1  UNL1        0.1603
     12 F           1.2203   -5.2666    1.1915 F       1  UNL1       -0.2024
     13 C           1.1456   -2.9267    1.5579 C.ar    1  UNL1        0.1801
     14 F           2.3330   -3.0467    2.1903 F       1  UNL1       -0.2005
     15 C           0.5427   -1.6681    1.4454 C.ar    1  UNL1        0.0822
     16 N           1.1640   -0.5084    1.9892 N.pl3   1  UNL1       -0.3094
     17 C           2.0522    0.1973    1.1115 C.ar    1  UNL1        0.0671
     18 C           2.2598   -0.2591   -0.1737 C.ar    1  UNL1       -0.0366
     19 C           3.1087    0.3999   -1.0388 C.ar    1  UNL1       -0.0444
     20 C           3.7828    1.5511   -0.6347 C.ar    1  UNL1        0.0275
     21 C           3.5818    2.0161    0.6498 C.ar    1  UNL1       -0.0092
     22 C           2.7251    1.3283    1.4836 C.ar    1  UNL1        0.1456
     23 F           2.5542    1.8222    2.7471 F       1  UNL1       -0.2035
     24 C           4.6732    2.2650   -1.5031 C.1     1  UNL1       -0.0696
     25 C           5.4099    2.8534   -2.2464 C.1     1  UNL1       -0.1139
     26 H          -3.6504    2.7909   -2.3014 H       1  UNL1        0.2095
     27 H          -4.9742    2.8757    0.2074 H       1  UNL1        0.0581
     28 H          -5.8934    2.4400   -1.3284 H       1  UNL1        0.0581
     29 H          -4.1201    0.7697   -1.8205 H       1  UNL1        0.0606
     30 H          -4.9906    0.3475   -0.2588 H       1  UNL1        0.0606
     31 H          -3.0514   -0.9249   -0.4025 H       1  UNL1        0.1828
     32 H          -2.1783   -2.7616   -0.2420 H       1  UNL1        0.0627
     33 H          -1.0803   -4.9119   -0.0123 H       1  UNL1        0.0647
     34 H           1.0293   -0.1386    2.9508 H       1  UNL1        0.1523
     35 H           1.7666   -1.1459   -0.5468 H       1  UNL1        0.0637
     36 H           3.2589    0.0235   -2.0492 H       1  UNL1        0.0630
     37 H           4.1118    2.9134    0.9540 H       1  UNL1        0.0659
     38 H           6.0496    3.3655   -2.9148 H       1  UNL1        0.1232
@<TRIPOS>BOND
     1     1     2    1
     2     2     3    1
     3     3     4    1
     4     4     5    1
     5     5     6   am
     6     6     7    2
     7     6     8    1
     8     8     9   ar
     9     9    10   ar
    10    10    11   ar
    11    11    12    1
    12    11    13   ar
    13    13    14    1
    14    13    15   ar
    15    15    16    1
    16    16    17    1
    17    17    18   ar
    18    18    19   ar
    19    19    20   ar
    20    20    21   ar
    21    21    22   ar
    22    22    23    1
    23    20    24    1
    24    24    25    3
    25    15     8   ar
    26    22    17   ar
    27     1    26    1
    28     2    27    1
    29     2    28    1
    30     3    29    1
    31     3    30    1
    32     5    31    1
    33     9    32    1
    34    10    33    1
    35    16    34    1
    36    18    35    1
    37    19    36    1
    38    21    37    1
    39    25    38    1
