@<TRIPOS>MOLECULE
*****
 90 93 0 0 0
SMALL
GASTEIGER

@<TRIPOS>ATOM
      1 C          -1.8360   -1.4262   -2.5555 C.3     1  UNL1        0.0000
      2 C          -1.6835    0.0603   -2.3257 C.3     1  UNL1        0.0000
      3 C          -2.9047    0.8336   -2.7060 C.3     1  UNL1        0.0000
      4 C          -4.1500    0.4595   -1.9558 C.3     1  UNL1        0.0000
      5 SN         -4.0116    0.7450    0.1467 Sn      1  UNL1        0.0000
      6 C          -3.0918    2.6737    0.5553 C.3     1  UNL1        0.0000
      7 C          -4.1517    3.7093    0.7878 C.3     1  UNL1        0.0000
      8 C          -5.0672    3.9122   -0.3814 C.3     1  UNL1        0.0000
      9 C          -4.3494    4.3666   -1.6245 C.3     1  UNL1        0.0000
     10 C          -5.9489    0.6862    1.0297 C.3     1  UNL1        0.0000
     11 C          -6.9514   -0.1193    0.2649 C.3     1  UNL1        0.0000
     12 C          -6.5856   -1.5598    0.1132 C.3     1  UNL1        0.0000
     13 C          -7.6010   -2.3507   -0.6535 C.3     1  UNL1        0.0000
     14 C          -2.7336   -0.6999    1.0129 C.ar    1  UNL1        0.0000
     15 C          -1.8204   -0.3472    2.0135 C.ar    1  UNL1        0.0000
     16 C          -0.9784   -1.2644    2.5953 C.ar    1  UNL1        0.0000
     17 C          -1.0088   -2.5697    2.2070 C.ar    1  UNL1        0.0000
     18 C          -0.0946   -3.5505    2.8134 C.3     1  UNL1        0.0000
     19 N           1.0784   -3.6411    1.9225 N.am    1  UNL1        0.0000
     20 C           1.2152   -4.5736    0.8414 C.2     1  UNL1        0.0000
     21 O           0.3929   -5.4444    0.4861 O.2     1  UNL1        0.0000
     22 C           2.5009   -4.3312    0.2129 C.2     1  UNL1        0.0000
     23 O           3.0276   -4.9205   -0.7730 O.2     1  UNL1        0.0000
     24 C           3.1371   -3.2319    0.9385 C.ar    1  UNL1        0.0000
     25 C           4.3703   -2.5942    0.7561 C.ar    1  UNL1        0.0000
     26 C           4.7586   -1.5600    1.5746 C.ar    1  UNL1        0.0000
     27 S           6.2994   -0.7383    1.3597 S.O2    1  UNL1        0.0000
     28 O           6.8160   -0.1961    2.6572 O.2     1  UNL1        0.0000
     29 O           7.2983   -1.7187    0.8437 O.2     1  UNL1        0.0000
     30 N           6.0348    0.5728    0.2634 N.3     1  UNL1        0.0000
     31 C           5.5868    0.1154   -1.0390 C.3     1  UNL1        0.0000
     32 C           6.8288   -0.0943   -1.8623 C.3     1  UNL1        0.0000
     33 C           7.9709    0.4837   -1.0830 C.3     1  UNL1        0.0000
     34 C           7.2796    1.2842   -0.0001 C.3     1  UNL1        0.0000
     35 C           6.9231    2.6639   -0.4484 C.3     1  UNL1        0.0000
     36 O           8.0421    3.4529   -0.7312 O.3     1  UNL1        0.0000
     37 C           7.5299    4.6935   -1.1353 C.3     1  UNL1        0.0000
     38 C           3.8826   -1.1894    2.5711 C.ar    1  UNL1        0.0000
     39 C           2.6664   -1.8101    2.7604 C.ar    1  UNL1        0.0000
     40 C           2.2621   -2.8658    1.9287 C.ar    1  UNL1        0.0000
     41 C          -1.8818   -2.9675    1.2344 C.ar    1  UNL1        0.0000
     42 C          -2.7343   -2.0252    0.6488 C.ar    1  UNL1        0.0000
     43 H          -1.1320   -1.9965   -1.9175 H       1  UNL1        0.0000
     44 H          -2.8587   -1.7816   -2.4021 H       1  UNL1        0.0000
     45 H          -1.5560   -1.6946   -3.6159 H       1  UNL1        0.0000
     46 H          -1.3447    0.2834   -1.3083 H       1  UNL1        0.0000
     47 H          -0.8673    0.3916   -3.0194 H       1  UNL1        0.0000
     48 H          -3.1232    0.7057   -3.7822 H       1  UNL1        0.0000
     49 H          -2.6947    1.9036   -2.5305 H       1  UNL1        0.0000
     50 H          -4.5292   -0.5426   -2.2319 H       1  UNL1        0.0000
     51 H          -4.9440    1.1753   -2.3257 H       1  UNL1        0.0000
     52 H          -2.4969    2.6093    1.4949 H       1  UNL1        0.0000
     53 H          -2.3906    2.8822   -0.2494 H       1  UNL1        0.0000
     54 H          -3.7353    4.6842    1.1090 H       1  UNL1        0.0000
     55 H          -4.7748    3.3381    1.6359 H       1  UNL1        0.0000
     56 H          -5.5591    2.9275   -0.6187 H       1  UNL1        0.0000
     57 H          -5.8312    4.6735   -0.1277 H       1  UNL1        0.0000
     58 H          -3.2934    4.0542   -1.6557 H       1  UNL1        0.0000
     59 H          -4.3231    5.4905   -1.5808 H       1  UNL1        0.0000
     60 H          -4.9251    4.1019   -2.5229 H       1  UNL1        0.0000
     61 H          -6.3346    1.7022    1.2794 H       1  UNL1        0.0000
     62 H          -5.8449    0.1831    2.0311 H       1  UNL1        0.0000
     63 H          -7.9063   -0.0880    0.8531 H       1  UNL1        0.0000
     64 H          -7.1668    0.3510   -0.7074 H       1  UNL1        0.0000
     65 H          -6.4451   -2.0635    1.0980 H       1  UNL1        0.0000
     66 H          -5.6305   -1.6261   -0.4322 H       1  UNL1        0.0000
     67 H          -8.1119   -1.7113   -1.4178 H       1  UNL1        0.0000
     68 H          -7.0711   -3.1535   -1.2305 H       1  UNL1        0.0000
     69 H          -8.3201   -2.8946   -0.0045 H       1  UNL1        0.0000
     70 H          -1.8368    0.7137    2.2876 H       1  UNL1        0.0000
     71 H          -0.3025   -0.9447    3.3592 H       1  UNL1        0.0000
     72 H          -0.5331   -4.5604    2.8839 H       1  UNL1        0.0000
     73 H           0.2796   -3.1891    3.7820 H       1  UNL1        0.0000
     74 H           5.0085   -2.9387   -0.0394 H       1  UNL1        0.0000
     75 H           4.9706    0.9558   -1.4710 H       1  UNL1        0.0000
     76 H           4.9219   -0.7617   -0.9830 H       1  UNL1        0.0000
     77 H           6.7239    0.5004   -2.8141 H       1  UNL1        0.0000
     78 H           6.9439   -1.1785   -2.0731 H       1  UNL1        0.0000
     79 H           8.6069    1.1265   -1.7291 H       1  UNL1        0.0000
     80 H           8.5600   -0.3127   -0.6277 H       1  UNL1        0.0000
     81 H           7.9504    1.3255    0.8720 H       1  UNL1        0.0000
     82 H           6.2670    2.5601   -1.3404 H       1  UNL1        0.0000
     83 H           6.3237    3.1832    0.3259 H       1  UNL1        0.0000
     84 H           8.3892    5.3522   -1.3682 H       1  UNL1        0.0000
     85 H           6.8412    5.1212   -0.3833 H       1  UNL1        0.0000
     86 H           6.9188    4.4756   -2.0607 H       1  UNL1        0.0000
     87 H           4.1948   -0.3679    3.2191 H       1  UNL1        0.0000
     88 H           1.9793   -1.5261    3.5432 H       1  UNL1        0.0000
     89 H          -1.9082   -4.0009    0.9243 H       1  UNL1        0.0000
     90 H          -3.4055   -2.3614   -0.1141 H       1  UNL1        0.0000
@<TRIPOS>BOND
     1     1     2    1
     2     2     3    1
     3     3     4    1
     4     4     5    1
     5     5     6    1
     6     6     7    1
     7     7     8    1
     8     8     9    1
     9     5    10    1
    10    10    11    1
    11    11    12    1
    12    12    13    1
    13     5    14    1
    14    14    15   ar
    15    15    16   ar
    16    16    17   ar
    17    17    18    1
    18    18    19    1
    19    19    20   am
    20    20    21    2
    21    20    22    1
    22    22    23    2
    23    22    24    1
    24    24    25   ar
    25    25    26   ar
    26    26    27    1
    27    27    28    2
    28    27    29    2
    29    27    30    1
    30    30    31    1
    31    31    32    1
    32    32    33    1
    33    33    34    1
    34    34    35    1
    35    35    36    1
    36    36    37    1
    37    26    38   ar
    38    38    39   ar
    39    39    40   ar
    40    17    41   ar
    41    41    42   ar
    42    42    14   ar
    43    40    19    1
    44    40    24   ar
    45    34    30    1
    46     1    43    1
    47     1    44    1
    48     1    45    1
    49     2    46    1
    50     2    47    1
    51     3    48    1
    52     3    49    1
    53     4    50    1
    54     4    51    1
    55     6    52    1
    56     6    53    1
    57     7    54    1
    58     7    55    1
    59     8    56    1
    60     8    57    1
    61     9    58    1
    62     9    59    1
    63     9    60    1
    64    10    61    1
    65    10    62    1
    66    11    63    1
    67    11    64    1
    68    12    65    1
    69    12    66    1
    70    13    67    1
    71    13    68    1
    72    13    69    1
    73    15    70    1
    74    16    71    1
    75    18    72    1
    76    18    73    1
    77    25    74    1
    78    31    75    1
    79    31    76    1
    80    32    77    1
    81    32    78    1
    82    33    79    1
    83    33    80    1
    84    34    81    1
    85    35    82    1
    86    35    83    1
    87    37    84    1
    88    37    85    1
    89    37    86    1
    90    38    87    1
    91    39    88    1
    92    41    89    1
    93    42    90    1
