
     RDKit          3D

 96101  0  0  0  0  0  0  0  0999 V2000
    8.0705    4.3434    1.3742 C   0  0  0  0  0  0  0  0  0  0  0  0
    7.1063    3.3535    1.2038 O   0  0  0  0  0  0  0  0  0  0  0  0
    7.3722    2.0155    0.9899 C   0  0  0  0  0  0  0  0  0  0  0  0
    8.6760    1.5637    0.9217 C   0  0  0  0  0  0  0  0  0  0  0  0
    8.9936    0.2482    0.7090 C   0  0  0  0  0  0  0  0  0  0  0  0
   10.3464   -0.2959    0.6229 C   0  0  0  0  0  0  0  0  0  0  0  0
   10.5051   -1.5237    0.4149 O   0  0  0  0  0  0  0  0  0  0  0  0
   11.5180    0.4753    0.7577 N   0  0  0  0  0  0  0  0  0  0  0  0
   12.8822    0.0707    0.6895 C   0  0  0  0  0  0  0  0  0  0  0  0
   13.3541   -0.5351   -0.5757 C   0  0  0  0  0  0  0  0  0  0  0  0
   12.8009   -1.7633   -0.9973 N   0  0  0  0  0  0  0  0  0  0  0  0
   13.2148   -2.9029   -0.1941 C   0  0  0  0  0  0  0  0  0  0  0  0
   13.1103   -2.0786   -2.3759 C   0  0  0  0  0  0  0  0  0  0  0  0
    7.9319   -0.6164    0.5639 C   0  0  0  0  0  0  0  0  0  0  0  0
    6.5957   -0.1845    0.6294 C   0  0  0  0  0  0  0  0  0  0  0  0
    6.2985    1.1455    0.8445 C   0  0  0  0  0  0  0  0  0  0  0  0
    4.9754    1.6340    0.9326 N   0  0  0  0  0  0  0  0  0  0  0  0
    3.7779    0.9259    0.7984 C   0  0  0  0  0  0  0  0  0  0  0  0
    3.6802   -0.3646    0.4892 N   0  0  0  0  0  0  0  0  0  0  0  0
    2.5152   -1.0140    0.3850 C   0  0  0  0  0  0  0  0  0  0  0  0
    1.3226   -0.3476    0.6015 C   0  0  0  0  0  0  0  0  0  0  0  0
    1.4107    0.9929    0.9230 C   0  0  0  0  0  0  0  0  0  0  0  0
    0.2438    1.7428    1.1653 O   0  0  0  0  0  0  0  0  0  0  0  0
   -1.0015    1.1555    1.0099 C   0  0  0  0  0  0  0  0  0  0  0  0
   -1.7893    0.9660    2.1538 C   0  0  0  0  0  0  0  0  0  0  0  0
   -3.0182    0.3835    2.0035 C   0  0  0  0  0  0  0  0  0  0  0  0
   -3.5049   -0.0199    0.7708 C   0  0  0  0  0  0  0  0  0  0  0  0
   -4.7616   -0.6310    0.6428 N   0  0  0  0  0  0  0  0  0  0  0  0
   -5.9227    0.1819    0.4419 C   0  0  0  0  0  0  0  0  0  0  0  0
   -5.8118    1.4425    0.3833 O   0  0  0  0  0  0  0  0  0  0  0  0
   -7.2053   -0.3874    0.3048 N   0  0  0  0  0  0  0  0  0  0  0  0
   -8.3871    0.3506    0.1149 C   0  0  0  0  0  0  0  0  0  0  0  0
   -8.5591    1.6923    0.0364 C   0  0  0  0  0  0  0  0  0  0  0  0
   -9.9153    1.9542   -0.1574 C   0  0  0  0  0  0  0  0  0  0  0  0
  -10.5121    3.2959   -0.2942 C   0  0  0  0  0  0  0  0  0  0  0  0
  -11.5456    3.4615    0.8185 C   0  0  0  0  0  0  0  0  0  0  0  0
  -11.1890    3.3507   -1.6544 C   0  0  0  0  0  0  0  0  0  0  0  0
  -10.5058    0.7465   -0.1877 N   0  0  0  0  0  0  0  0  0  0  0  0
   -9.6052   -0.1970   -0.0270 N   0  0  0  0  0  0  0  0  0  0  0  0
   -9.8729   -1.5860   -0.0075 C   0  0  0  0  0  0  0  0  0  0  0  0
   -9.5348   -2.3699    1.0671 C   0  0  0  0  0  0  0  0  0  0  0  0
   -9.8109   -3.7133    1.0389 C   0  0  0  0  0  0  0  0  0  0  0  0
  -10.4277   -4.3393   -0.0404 C   0  0  0  0  0  0  0  0  0  0  0  0
  -10.7302   -5.7834   -0.0842 C   0  0  0  0  0  0  0  0  0  0  0  0
  -10.7705   -3.5560   -1.1241 C   0  0  0  0  0  0  0  0  0  0  0  0
  -10.4926   -2.2080   -1.0944 C   0  0  0  0  0  0  0  0  0  0  0  0
   -2.6912    0.1899   -0.3361 C   0  0  0  0  0  0  0  0  0  0  0  0
   -3.1762   -0.1893   -1.5648 C   0  0  0  0  0  0  0  0  0  0  0  0
   -2.4065    0.0214   -2.6895 C   0  0  0  0  0  0  0  0  0  0  0  0
   -1.1757    0.6019   -2.5725 C   0  0  0  0  0  0  0  0  0  0  0  0
   -0.6533    0.9969   -1.3451 C   0  0  0  0  0  0  0  0  0  0  0  0
   -1.4303    0.7800   -0.2332 C   0  0  0  0  0  0  0  0  0  0  0  0
    2.6029    1.5852    1.0119 N   0  0  0  0  0  0  0  0  0  0  0  0
    8.3987    4.7143    0.3854 H   0  0  0  0  0  0  0  0  0  0  0  0
    7.5990    5.1518    1.9990 H   0  0  0  0  0  0  0  0  0  0  0  0
    8.8976    3.9500    1.9993 H   0  0  0  0  0  0  0  0  0  0  0  0
    9.5023    2.2634    1.0384 H   0  0  0  0  0  0  0  0  0  0  0  0
   11.3321    1.5129    0.9400 H   0  0  0  0  0  0  0  0  0  0  0  0
   13.5286    0.9890    0.8502 H   0  0  0  0  0  0  0  0  0  0  0  0
   13.1708   -0.5579    1.5932 H   0  0  0  0  0  0  0  0  0  0  0  0
   14.4793   -0.6796   -0.5498 H   0  0  0  0  0  0  0  0  0  0  0  0
   13.2518    0.2689   -1.3699 H   0  0  0  0  0  0  0  0  0  0  0  0
   12.6814   -3.7867   -0.6125 H   0  0  0  0  0  0  0  0  0  0  0  0
   14.3012   -3.1199   -0.2986 H   0  0  0  0  0  0  0  0  0  0  0  0
   12.9042   -2.8107    0.8559 H   0  0  0  0  0  0  0  0  0  0  0  0
   13.3161   -1.1771   -2.9833 H   0  0  0  0  0  0  0  0  0  0  0  0
   14.0459   -2.6834   -2.3668 H   0  0  0  0  0  0  0  0  0  0  0  0
   12.3186   -2.7187   -2.8222 H   0  0  0  0  0  0  0  0  0  0  0  0
    8.0988   -1.6683    0.3887 H   0  0  0  0  0  0  0  0  0  0  0  0
    5.8208   -0.9079    0.5103 H   0  0  0  0  0  0  0  0  0  0  0  0
    4.9019    2.6776    1.1260 H   0  0  0  0  0  0  0  0  0  0  0  0
    2.4822   -2.0783    0.1272 H   0  0  0  0  0  0  0  0  0  0  0  0
    0.3940   -0.8897    0.5182 H   0  0  0  0  0  0  0  0  0  0  0  0
   -1.3947    1.2872    3.1044 H   0  0  0  0  0  0  0  0  0  0  0  0
   -3.6284    0.2355    2.8831 H   0  0  0  0  0  0  0  0  0  0  0  0
   -4.8706   -1.6530    0.6919 H   0  0  0  0  0  0  0  0  0  0  0  0
   -7.2201   -1.4538    0.3628 H   0  0  0  0  0  0  0  0  0  0  0  0
   -7.8111    2.4509    0.1068 H   0  0  0  0  0  0  0  0  0  0  0  0
   -9.7275    4.0714   -0.2220 H   0  0  0  0  0  0  0  0  0  0  0  0
  -12.4375    3.9526    0.4131 H   0  0  0  0  0  0  0  0  0  0  0  0
  -11.0835    4.0547    1.6192 H   0  0  0  0  0  0  0  0  0  0  0  0
  -11.8582    2.4667    1.1946 H   0  0  0  0  0  0  0  0  0  0  0  0
  -10.4856    3.7442   -2.4237 H   0  0  0  0  0  0  0  0  0  0  0  0
  -11.5002    2.3201   -1.9290 H   0  0  0  0  0  0  0  0  0  0  0  0
  -12.1196    3.9582   -1.6395 H   0  0  0  0  0  0  0  0  0  0  0  0
   -9.0436   -1.9029    1.9376 H   0  0  0  0  0  0  0  0  0  0  0  0
   -9.5428   -4.3215    1.8835 H   0  0  0  0  0  0  0  0  0  0  0  0
  -11.7079   -5.9687   -0.5856 H   0  0  0  0  0  0  0  0  0  0  0  0
  -10.7181   -6.2619    0.9303 H   0  0  0  0  0  0  0  0  0  0  0  0
   -9.9512   -6.2642   -0.7427 H   0  0  0  0  0  0  0  0  0  0  0  0
  -11.2567   -3.9496   -2.0153 H   0  0  0  0  0  0  0  0  0  0  0  0
  -10.7573   -1.5785   -1.9432 H   0  0  0  0  0  0  0  0  0  0  0  0
   -4.1507   -0.6452   -1.6145 H   0  0  0  0  0  0  0  0  0  0  0  0
   -2.8171   -0.2901   -3.6580 H   0  0  0  0  0  0  0  0  0  0  0  0
   -0.5722    0.7665   -3.4579 H   0  0  0  0  0  0  0  0  0  0  0  0
    0.3316    1.4710   -1.2969 H   0  0  0  0  0  0  0  0  0  0  0  0
  1  2  1  0
  2  3  1  0
  3  4  2  0
  4  5  1  0
  5  6  1  0
  6  7  2  0
  6  8  1  0
  8  9  1  0
  9 10  1  0
 10 11  1  0
 11 12  1  0
 11 13  1  0
  5 14  2  0
 14 15  1  0
 15 16  2  0
 16 17  1  0
 17 18  1  0
 18 19  2  0
 19 20  1  0
 20 21  2  0
 21 22  1  0
 22 23  1  0
 23 24  1  0
 24 25  2  0
 25 26  1  0
 26 27  2  0
 27 28  1  0
 28 29  1  0
 29 30  2  0
 29 31  1  0
 31 32  1  0
 32 33  2  0
 33 34  1  0
 34 35  1  0
 35 36  1  0
 35 37  1  0
 34 38  2  0
 38 39  1  0
 39 40  1  0
 40 41  2  0
 41 42  1  0
 42 43  2  0
 43 44  1  0
 43 45  1  0
 45 46  2  0
 27 47  1  0
 47 48  2  0
 48 49  1  0
 49 50  2  0
 50 51  1  0
 51 52  2  0
 22 53  2  0
 16  3  1  0
 53 18  1  0
 52 24  1  0
 39 32  1  0
 46 40  1  0
 52 47  1  0
  1 54  1  0
  1 55  1  0
  1 56  1  0
  4 57  1  0
  8 58  1  0
  9 59  1  0
  9 60  1  0
 10 61  1  0
 10 62  1  0
 12 63  1  0
 12 64  1  0
 12 65  1  0
 13 66  1  0
 13 67  1  0
 13 68  1  0
 14 69  1  0
 15 70  1  0
 17 71  1  0
 20 72  1  0
 21 73  1  0
 25 74  1  0
 26 75  1  0
 28 76  1  0
 31 77  1  0
 33 78  1  0
 35 79  1  0
 36 80  1  0
 36 81  1  0
 36 82  1  0
 37 83  1  0
 37 84  1  0
 37 85  1  0
 41 86  1  0
 42 87  1  0
 44 88  1  0
 44 89  1  0
 44 90  1  0
 45 91  1  0
 46 92  1  0
 48 93  1  0
 49 94  1  0
 50 95  1  0
 51 96  1  0
M  END
$$$$
