@<TRIPOS>MOLECULE
*****
 96 101 0 0 0
SMALL
GASTEIGER

@<TRIPOS>ATOM
      1 C           8.0705    4.3434    1.3742 C.3     1  UNL1        0.0789
      2 O           7.1063    3.3535    1.2038 O.3     1  UNL1       -0.4932
      3 C           7.3722    2.0155    0.9899 C.ar    1  UNL1        0.1419
      4 C           8.6760    1.5637    0.9217 C.ar    1  UNL1       -0.0060
      5 C           8.9936    0.2482    0.7090 C.ar    1  UNL1        0.0403
      6 C          10.3464   -0.2959    0.6229 C.2     1  UNL1        0.2442
      7 O          10.5051   -1.5237    0.4149 O.2     1  UNL1       -0.2702
      8 N          11.5180    0.4753    0.7577 N.am    1  UNL1       -0.3101
      9 C          12.8822    0.0707    0.6895 C.3     1  UNL1        0.0246
     10 C          13.3541   -0.5351   -0.5757 C.3     1  UNL1        0.0139
     11 N          12.8009   -1.7633   -0.9973 N.3     1  UNL1       -0.3069
     12 C          13.2148   -2.9029   -0.1941 C.3     1  UNL1       -0.0130
     13 C          13.1103   -2.0786   -2.3759 C.3     1  UNL1       -0.0130
     14 C           7.9319   -0.6164    0.5639 C.ar    1  UNL1       -0.0477
     15 C           6.5957   -0.1845    0.6294 C.ar    1  UNL1       -0.0362
     16 C           6.2985    1.1455    0.8445 C.ar    1  UNL1        0.0758
     17 N           4.9754    1.6340    0.9326 N.pl3   1  UNL1       -0.2806
     18 C           3.7779    0.9259    0.7984 C.ar    1  UNL1        0.2226
     19 N           3.6802   -0.3646    0.4892 N.ar    1  UNL1       -0.2225
     20 C           2.5152   -1.0140    0.3850 C.ar    1  UNL1        0.0362
     21 C           1.3226   -0.3476    0.6015 C.ar    1  UNL1        0.0186
     22 C           1.4107    0.9929    0.9230 C.ar    1  UNL1        0.2249
     23 O           0.2438    1.7428    1.1653 O.3     1  UNL1       -0.4373
     24 C          -1.0015    1.1555    1.0099 C.ar    1  UNL1        0.1381
     25 C          -1.7893    0.9660    2.1538 C.ar    1  UNL1       -0.0169
     26 C          -3.0182    0.3835    2.0035 C.ar    1  UNL1       -0.0363
     27 C          -3.5049   -0.0199    0.7708 C.ar    1  UNL1        0.0427
     28 N          -4.7616   -0.6310    0.6428 N.am    1  UNL1       -0.2686
     29 C          -5.9227    0.1819    0.4419 C.2     1  UNL1        0.3092
     30 O          -5.8118    1.4425    0.3833 O.2     1  UNL1       -0.2521
     31 N          -7.2053   -0.3874    0.3048 N.am    1  UNL1       -0.2538
     32 C          -8.3871    0.3506    0.1149 C.ar    1  UNL1        0.1299
     33 C          -8.5591    1.6923    0.0364 C.ar    1  UNL1        0.0018
     34 C          -9.9153    1.9542   -0.1574 C.ar    1  UNL1        0.0679
     35 C         -10.5121    3.2959   -0.2942 C.3     1  UNL1       -0.0025
     36 C         -11.5456    3.4615    0.8185 C.3     1  UNL1       -0.0572
     37 C         -11.1890    3.3507   -1.6544 C.3     1  UNL1       -0.0572
     38 N         -10.5058    0.7465   -0.1877 N.ar    1  UNL1       -0.1694
     39 N          -9.6052   -0.1970   -0.0270 N.ar    1  UNL1       -0.2181
     40 C          -9.8729   -1.5860   -0.0075 C.ar    1  UNL1        0.0674
     41 C          -9.5348   -2.3699    1.0671 C.ar    1  UNL1       -0.0359
     42 C          -9.8109   -3.7133    1.0389 C.ar    1  UNL1       -0.0568
     43 C         -10.4277   -4.3393   -0.0404 C.ar    1  UNL1       -0.0503
     44 C         -10.7302   -5.7834   -0.0842 C.3     1  UNL1       -0.0397
     45 C         -10.7705   -3.5560   -1.1241 C.ar    1  UNL1       -0.0568
     46 C         -10.4926   -2.2080   -1.0944 C.ar    1  UNL1       -0.0359
     47 C          -2.6912    0.1899   -0.3361 C.ar    1  UNL1        0.0069
     48 C          -3.1762   -0.1893   -1.5648 C.ar    1  UNL1       -0.0521
     49 C          -2.4065    0.0214   -2.6895 C.ar    1  UNL1       -0.0611
     50 C          -1.1757    0.6019   -2.5725 C.ar    1  UNL1       -0.0611
     51 C          -0.6533    0.9969   -1.3451 C.ar    1  UNL1       -0.0505
     52 C          -1.4303    0.7800   -0.2332 C.ar    1  UNL1        0.0262
     53 N           2.6029    1.5852    1.0119 N.ar    1  UNL1       -0.1789
     54 H           8.3987    4.7143    0.3854 H       1  UNL1        0.0660
     55 H           7.5990    5.1518    1.9990 H       1  UNL1        0.0660
     56 H           8.8976    3.9500    1.9993 H       1  UNL1        0.0660
     57 H           9.5023    2.2634    1.0384 H       1  UNL1        0.0662
     58 H          11.3321    1.5129    0.9400 H       1  UNL1        0.1490
     59 H          13.5286    0.9890    0.8502 H       1  UNL1        0.0475
     60 H          13.1708   -0.5579    1.5932 H       1  UNL1        0.0475
     61 H          14.4793   -0.6796   -0.5498 H       1  UNL1        0.0442
     62 H          13.2518    0.2689   -1.3699 H       1  UNL1        0.0442
     63 H          12.6814   -3.7867   -0.6125 H       1  UNL1        0.0391
     64 H          14.3012   -3.1199   -0.2986 H       1  UNL1        0.0391
     65 H          12.9042   -2.8107    0.8559 H       1  UNL1        0.0391
     66 H          13.3161   -1.1771   -2.9833 H       1  UNL1        0.0391
     67 H          14.0459   -2.6834   -2.3668 H       1  UNL1        0.0391
     68 H          12.3186   -2.7187   -2.8222 H       1  UNL1        0.0391
     69 H           8.0988   -1.6683    0.3887 H       1  UNL1        0.0626
     70 H           5.8208   -0.9079    0.5103 H       1  UNL1        0.0637
     71 H           4.9019    2.6776    1.1260 H       1  UNL1        0.1551
     72 H           2.4822   -2.0783    0.1272 H       1  UNL1        0.0832
     73 H           0.3940   -0.8897    0.5182 H       1  UNL1        0.0686
     74 H          -1.3947    1.2872    3.1044 H       1  UNL1        0.0655
     75 H          -3.6284    0.2355    2.8831 H       1  UNL1        0.0637
     76 H          -4.8706   -1.6530    0.6919 H       1  UNL1        0.1564
     77 H          -7.2201   -1.4538    0.3628 H       1  UNL1        0.1578
     78 H          -7.8111    2.4509    0.1068 H       1  UNL1        0.0671
     79 H          -9.7275    4.0714   -0.2220 H       1  UNL1        0.0359
     80 H         -12.4375    3.9526    0.4131 H       1  UNL1        0.0236
     81 H         -11.0835    4.0547    1.6192 H       1  UNL1        0.0236
     82 H         -11.8582    2.4667    1.1946 H       1  UNL1        0.0236
     83 H         -10.4856    3.7442   -2.4237 H       1  UNL1        0.0236
     84 H         -11.5002    2.3201   -1.9290 H       1  UNL1        0.0236
     85 H         -12.1196    3.9582   -1.6395 H       1  UNL1        0.0236
     86 H          -9.0436   -1.9029    1.9376 H       1  UNL1        0.0639
     87 H          -9.5428   -4.3215    1.8835 H       1  UNL1        0.0621
     88 H         -11.7079   -5.9687   -0.5856 H       1  UNL1        0.0278
     89 H         -10.7181   -6.2619    0.9303 H       1  UNL1        0.0278
     90 H          -9.9512   -6.2642   -0.7427 H       1  UNL1        0.0278
     91 H         -11.2567   -3.9496   -2.0153 H       1  UNL1        0.0621
     92 H         -10.7573   -1.5785   -1.9432 H       1  UNL1        0.0639
     93 H          -4.1507   -0.6452   -1.6145 H       1  UNL1        0.0624
     94 H          -2.8171   -0.2901   -3.6580 H       1  UNL1        0.0618
     95 H          -0.5722    0.7665   -3.4579 H       1  UNL1        0.0618
     96 H           0.3316    1.4710   -1.2969 H       1  UNL1        0.0625
@<TRIPOS>BOND
     1     1     2    1
     2     2     3    1
     3     3     4   ar
     4     4     5   ar
     5     5     6    1
     6     6     7    2
     7     6     8   am
     8     8     9    1
     9     9    10    1
    10    10    11    1
    11    11    12    1
    12    11    13    1
    13     5    14   ar
    14    14    15   ar
    15    15    16   ar
    16    16    17    1
    17    17    18    1
    18    18    19   ar
    19    19    20   ar
    20    20    21   ar
    21    21    22   ar
    22    22    23    1
    23    23    24    1
    24    24    25   ar
    25    25    26   ar
    26    26    27   ar
    27    27    28    1
    28    28    29   am
    29    29    30    2
    30    29    31   am
    31    31    32    1
    32    32    33   ar
    33    33    34   ar
    34    34    35    1
    35    35    36    1
    36    35    37    1
    37    34    38   ar
    38    38    39   ar
    39    39    40    1
    40    40    41   ar
    41    41    42   ar
    42    42    43   ar
    43    43    44    1
    44    43    45   ar
    45    45    46   ar
    46    27    47   ar
    47    47    48   ar
    48    48    49   ar
    49    49    50   ar
    50    50    51   ar
    51    51    52   ar
    52    22    53   ar
    53    16     3   ar
    54    53    18   ar
    55    52    24   ar
    56    39    32   ar
    57    46    40   ar
    58    52    47   ar
    59     1    54    1
    60     1    55    1
    61     1    56    1
    62     4    57    1
    63     8    58    1
    64     9    59    1
    65     9    60    1
    66    10    61    1
    67    10    62    1
    68    12    63    1
    69    12    64    1
    70    12    65    1
    71    13    66    1
    72    13    67    1
    73    13    68    1
    74    14    69    1
    75    15    70    1
    76    17    71    1
    77    20    72    1
    78    21    73    1
    79    25    74    1
    80    26    75    1
    81    28    76    1
    82    31    77    1
    83    33    78    1
    84    35    79    1
    85    36    80    1
    86    36    81    1
    87    36    82    1
    88    37    83    1
    89    37    84    1
    90    37    85    1
    91    41    86    1
    92    42    87    1
    93    44    88    1
    94    44    89    1
    95    44    90    1
    96    45    91    1
    97    46    92    1
    98    48    93    1
    99    49    94    1
   100    50    95    1
   101    51    96    1
