
     RDKit          3D

 44 47  0  0  0  0  0  0  0  0999 V2000
    6.1964   -1.6289   -1.7712 N   0  0  0  0  0  0  0  0  0  0  0  0
    6.2090   -1.2765   -0.3900 C   0  0  0  0  0  0  0  0  0  0  0  0
    7.2786   -1.4944    0.2973 N   0  0  0  0  0  4  0  0  0  0  0  0
    5.0629   -0.6773    0.2877 C   0  0  0  0  0  0  0  0  0  0  0  0
    4.1441    0.1330   -0.3586 C   0  0  0  0  0  0  0  0  0  0  0  0
    3.0579    0.6954    0.3029 C   0  0  0  0  0  0  0  0  0  0  0  0
    2.8916    0.4354    1.6523 C   0  0  0  0  0  0  0  0  0  0  0  0
    3.7704   -0.3622    2.3518 C   0  0  0  0  0  0  0  0  0  0  0  0
    4.8434   -0.9043    1.6496 C   0  0  0  0  0  0  0  0  0  0  0  0
    1.7843    1.0904    2.0323 N   0  0  0  0  0  0  0  0  0  0  0  0
    1.2548    1.7464    0.9783 C   0  0  0  0  0  0  0  0  0  0  0  0
    0.0285    2.5408    1.1506 C   0  0  0  0  0  0  0  0  0  0  0  0
   -1.1649    1.6686    0.8925 C   0  0  0  0  0  0  0  0  0  0  0  0
   -1.8306    0.9261    1.8257 N   0  0  0  0  0  0  0  0  0  0  0  0
   -2.8483    0.2723    1.2267 C   0  0  0  0  0  0  0  0  0  0  0  0
   -2.8281    0.6087   -0.1228 C   0  0  0  0  0  0  0  0  0  0  0  0
   -1.7954    1.4535   -0.2780 N   0  0  0  0  0  0  0  0  0  0  0  0
   -3.7413    0.1098   -1.0294 C   0  0  0  0  0  0  0  0  0  0  0  0
   -4.7089   -0.7577   -0.5639 C   0  0  0  0  0  0  0  0  0  0  0  0
   -4.7776   -1.1276    0.7667 C   0  0  0  0  0  0  0  0  0  0  0  0
   -3.8395   -0.6037    1.6505 C   0  0  0  0  0  0  0  0  0  0  0  0
   -5.7009   -1.3204   -1.4615 C   0  0  0  0  0  0  0  0  0  0  0  0
   -5.5728   -1.6103   -2.8445 N   0  0  0  0  0  4  0  0  0  0  0  0
   -6.8803   -1.6303   -1.0442 N   0  0  0  0  0  4  0  0  0  0  0  0
    2.0567    1.4865   -0.0703 N   0  0  0  0  0  0  0  0  0  0  0  0
    5.8763   -1.1707   -2.6552 H   0  0  0  0  0  0  0  0  0  0  0  0
    6.6039   -2.5823   -1.9904 H   0  0  0  0  0  0  0  0  0  0  0  0
    7.3490   -1.2610    1.3009 H   0  0  0  0  0  0  0  0  0  0  0  0
    8.1335   -1.9200   -0.1257 H   0  0  0  0  0  0  0  0  0  0  0  0
    4.2666    0.3399   -1.4079 H   0  0  0  0  0  0  0  0  0  0  0  0
    3.6534   -0.5753    3.4096 H   0  0  0  0  0  0  0  0  0  0  0  0
    5.5214   -1.5247    2.2076 H   0  0  0  0  0  0  0  0  0  0  0  0
   -0.0251    3.3344    0.3694 H   0  0  0  0  0  0  0  0  0  0  0  0
   -0.0159    3.0507    2.1222 H   0  0  0  0  0  0  0  0  0  0  0  0
   -1.5213    1.8831   -1.1838 H   0  0  0  0  0  0  0  0  0  0  0  0
   -3.7240    0.3707   -2.0703 H   0  0  0  0  0  0  0  0  0  0  0  0
   -5.4869   -1.7884    1.2126 H   0  0  0  0  0  0  0  0  0  0  0  0
   -3.8328   -0.8484    2.7027 H   0  0  0  0  0  0  0  0  0  0  0  0
   -4.6830   -1.1808   -3.1965 H   0  0  0  0  0  0  0  0  0  0  0  0
   -5.5593   -2.6485   -2.9483 H   0  0  0  0  0  0  0  0  0  0  0  0
   -6.4021   -1.2543   -3.3876 H   0  0  0  0  0  0  0  0  0  0  0  0
   -7.2210   -1.5101   -0.0566 H   0  0  0  0  0  0  0  0  0  0  0  0
   -7.6862   -1.7597   -0.4186 H   0  0  0  0  0  0  0  0  0  0  0  0
    1.8640    1.8808   -1.0147 H   0  0  0  0  0  0  0  0  0  0  0  0
  1  2  1  0
  2  3  2  0
  2  4  1  0
  4  5  2  0
  5  6  1  0
  6  7  2  0
  7  8  1  0
  8  9  2  0
  7 10  1  0
 10 11  2  0
 11 12  1  0
 12 13  1  0
 13 14  2  0
 14 15  1  0
 15 16  2  0
 16 17  1  0
 16 18  1  0
 18 19  2  0
 19 20  1  0
 20 21  2  0
 19 22  1  0
 22 23  1  0
 22 24  2  0
 11 25  1  0
  9  4  1  0
 17 13  1  0
 25  6  1  0
 21 15  1  0
  1 26  1  0
  1 27  1  0
  3 28  1  0
  3 29  1  0
  5 30  1  0
  8 31  1  0
  9 32  1  0
 12 33  1  0
 12 34  1  0
 17 35  1  0
 18 36  1  0
 20 37  1  0
 21 38  1  0
 23 39  1  0
 23 40  1  0
 23 41  1  0
 24 42  1  0
 24 43  1  0
 25 44  1  0
M  CHG  3   3   1  23   1  24   1
M  END
$$$$
