@<TRIPOS>MOLECULE
*****
 44 47 0 0 0
SMALL
GASTEIGER

@<TRIPOS>ATOM
      1 N           6.1964   -1.6289   -1.7712 N.pl3   1  UNL1       -0.2497
      2 C           6.2090   -1.2765   -0.3900 C.2     1  UNL1        0.2662
      3 N           7.2786   -1.4944    0.2973 N.2     1  UNL1       -0.2884
      4 C           5.0629   -0.6773    0.2877 C.ar    1  UNL1        0.0629
      5 C           4.1441    0.1330   -0.3586 C.ar    1  UNL1       -0.0215
      6 C           3.0579    0.6954    0.3029 C.ar    1  UNL1        0.0670
      7 C           2.8916    0.4354    1.6523 C.ar    1  UNL1        0.0892
      8 C           3.7704   -0.3622    2.3518 C.ar    1  UNL1       -0.0334
      9 C           4.8434   -0.9043    1.6496 C.ar    1  UNL1       -0.0449
     10 N           1.7843    1.0904    2.0323 N.ar    1  UNL1       -0.2321
     11 C           1.2548    1.7464    0.9783 C.ar    1  UNL1        0.1155
     12 C           0.0285    2.5408    1.1506 C.3     1  UNL1        0.0635
     13 C          -1.1649    1.6686    0.8925 C.ar    1  UNL1        0.1155
     14 N          -1.8306    0.9261    1.8257 N.ar    1  UNL1       -0.2321
     15 C          -2.8483    0.2723    1.2267 C.ar    1  UNL1        0.0892
     16 C          -2.8281    0.6087   -0.1228 C.ar    1  UNL1        0.0670
     17 N          -1.7954    1.4535   -0.2780 N.ar    1  UNL1       -0.3414
     18 C          -3.7413    0.1098   -1.0294 C.ar    1  UNL1       -0.0217
     19 C          -4.7089   -0.7577   -0.5639 C.ar    1  UNL1        0.0596
     20 C          -4.7776   -1.1276    0.7667 C.ar    1  UNL1       -0.0450
     21 C          -3.8395   -0.6037    1.6505 C.ar    1  UNL1       -0.0334
     22 C          -5.7009   -1.3204   -1.4615 C.2     1  UNL1        0.2329
     23 N          -5.5728   -1.6103   -2.8445 N.pl3   1  UNL1       -0.3695
     24 N          -6.8803   -1.6303   -1.0442 N.2     1  UNL1       -0.2910
     25 N           2.0567    1.4865   -0.0703 N.ar    1  UNL1       -0.3414
     26 H           5.8763   -1.1707   -2.6552 H       1  UNL1        0.2883
     27 H           6.6039   -2.5823   -1.9904 H       1  UNL1        0.2883
     28 H           7.3490   -1.2610    1.3009 H       1  UNL1        0.3009
     29 H           8.1335   -1.9200   -0.1257 H       1  UNL1        0.3009
     30 H           4.2666    0.3399   -1.4079 H       1  UNL1        0.0647
     31 H           3.6534   -0.5753    3.4096 H       1  UNL1        0.0640
     32 H           5.5214   -1.5247    2.2076 H       1  UNL1        0.0627
     33 H          -0.0251    3.3344    0.3694 H       1  UNL1        0.0422
     34 H          -0.0159    3.0507    2.1222 H       1  UNL1        0.0422
     35 H          -1.5213    1.8831   -1.1838 H       1  UNL1        0.1671
     36 H          -3.7240    0.3707   -2.0703 H       1  UNL1        0.0647
     37 H          -5.4869   -1.7884    1.2126 H       1  UNL1        0.0627
     38 H          -3.8328   -0.8484    2.7027 H       1  UNL1        0.0640
     39 H          -4.6830   -1.1808   -3.1965 H       1  UNL1        0.2454
     40 H          -5.5593   -2.6485   -2.9483 H       1  UNL1        0.2454
     41 H          -6.4021   -1.2543   -3.3876 H       1  UNL1        0.2454
     42 H          -7.2210   -1.5101   -0.0566 H       1  UNL1        0.3008
     43 H          -7.6862   -1.7597   -0.4186 H       1  UNL1        0.3008
     44 H           1.8640    1.8808   -1.0147 H       1  UNL1        0.1671
@<TRIPOS>UNITY_ATOM_ATTR
3 1
charge 1
23 1
charge 1
24 1
charge 1
@<TRIPOS>BOND
     1     1     2    1
     2     2     3    2
     3     2     4    1
     4     4     5   ar
     5     5     6   ar
     6     6     7   ar
     7     7     8   ar
     8     8     9   ar
     9     7    10   ar
    10    10    11   ar
    11    11    12    1
    12    12    13    1
    13    13    14   ar
    14    14    15   ar
    15    15    16   ar
    16    16    17   ar
    17    16    18   ar
    18    18    19   ar
    19    19    20   ar
    20    20    21   ar
    21    19    22    1
    22    22    23    1
    23    22    24    2
    24    11    25   ar
    25     9     4   ar
    26    17    13   ar
    27    25     6   ar
    28    21    15   ar
    29     1    26    1
    30     1    27    1
    31     3    28    1
    32     3    29    1
    33     5    30    1
    34     8    31    1
    35     9    32    1
    36    12    33    1
    37    12    34    1
    38    17    35    1
    39    18    36    1
    40    20    37    1
    41    21    38    1
    42    23    39    1
    43    23    40    1
    44    23    41    1
    45    24    42    1
    46    24    43    1
    47    25    44    1
