@<TRIPOS>MOLECULE
*****
 67 70 0 0 0
SMALL
GASTEIGER

@<TRIPOS>ATOM
      1 C           0.2838    0.7221    1.6773 C.3     1  UNL1       -0.0383
      2 C           0.3337    0.4889    0.1645 C.3     1  UNL1        0.0930
      3 C           0.1134    1.8128   -0.5415 C.3     1  UNL1       -0.0383
      4 C          -0.7755   -0.3984   -0.1793 C.2     1  UNL1        0.2331
      5 O          -0.5799   -1.5154   -0.7288 O.2     1  UNL1       -0.2738
      6 N          -2.1135    0.0331    0.1256 N.am    1  UNL1       -0.3104
      7 C          -3.2364   -0.8105   -0.1962 C.3     1  UNL1        0.0288
      8 C          -4.0462   -1.1705    1.0225 C.3     1  UNL1       -0.0216
      9 C          -5.1836   -2.0609    0.5614 C.3     1  UNL1       -0.0485
     10 C          -5.0348   -2.5015   -0.8659 C.3     1  UNL1       -0.0524
     11 C          -4.9116   -1.3598   -1.8465 C.3     1  UNL1       -0.0485
     12 C          -4.1563   -0.1861   -1.1865 C.3     1  UNL1       -0.0216
     13 C          -5.2153    0.7069   -0.6291 C.3     1  UNL1       -0.0356
     14 C          -4.9958    1.1570    0.7722 C.3     1  UNL1        0.0569
     15 C          -6.3137    1.7270    1.2528 C.2     1  UNL1        0.3078
     16 O          -6.9121    1.2423    2.2459 O.2     1  UNL1       -0.2507
     17 O          -6.9041    2.8011    0.6147 O.3     1  UNL1       -0.4804
     18 C          -4.6380    0.0311    1.6758 C.3     1  UNL1       -0.0356
     19 N           1.6227    0.0103   -0.1593 N.3     1  UNL1       -0.2864
     20 C           2.0115   -1.2104    0.4627 C.3     1  UNL1        0.0157
     21 C           3.5092   -1.1045    0.7736 C.3     1  UNL1        0.0263
     22 N           4.1199   -0.5730   -0.4406 N.pl3   1  UNL1       -0.3127
     23 C           5.4662   -0.1037   -0.3639 C.ar    1  UNL1        0.1213
     24 C           6.1719   -0.1485    0.8167 C.ar    1  UNL1       -0.0212
     25 C           7.4730    0.2980    0.9187 C.ar    1  UNL1       -0.0454
     26 C           8.0980    0.8108   -0.2020 C.ar    1  UNL1        0.0730
     27 C           9.5104    1.3043   -0.1261 C.3     1  UNL1        0.4188
     28 F          10.1576    1.2199   -1.3244 F       1  UNL1       -0.1658
     29 F          10.2390    0.5880    0.7986 F       1  UNL1       -0.1658
     30 F           9.4742    2.6169    0.3157 F       1  UNL1       -0.1658
     31 C           7.3666    0.8433   -1.3709 C.ar    1  UNL1        0.0413
     32 N           6.0889    0.3980   -1.4444 N.ar    1  UNL1       -0.2398
     33 C           3.3715   -0.5280   -1.6827 C.3     1  UNL1        0.0263
     34 C           2.0274    0.1512   -1.5151 C.3     1  UNL1        0.0157
     35 H           1.3270    0.8835    2.0638 H       1  UNL1        0.0252
     36 H          -0.3624    1.5927    1.8449 H       1  UNL1        0.0252
     37 H          -0.1958   -0.1484    2.1445 H       1  UNL1        0.0252
     38 H           1.0290    2.4180   -0.3953 H       1  UNL1        0.0252
     39 H          -0.7752    2.3343   -0.1417 H       1  UNL1        0.0252
     40 H           0.0344    1.5958   -1.6252 H       1  UNL1        0.0252
     41 H          -2.2127    0.9644    0.5804 H       1  UNL1        0.1490
     42 H          -2.8449   -1.7463   -0.6602 H       1  UNL1        0.0504
     43 H          -3.3577   -1.6773    1.7289 H       1  UNL1        0.0319
     44 H          -6.1767   -1.6608    0.8006 H       1  UNL1        0.0269
     45 H          -5.0922   -3.0011    1.1775 H       1  UNL1        0.0269
     46 H          -4.2040   -3.2373   -0.9550 H       1  UNL1        0.0265
     47 H          -5.9583   -3.0647   -1.1325 H       1  UNL1        0.0265
     48 H          -5.8879   -1.0360   -2.2210 H       1  UNL1        0.0269
     49 H          -4.3025   -1.7120   -2.7064 H       1  UNL1        0.0269
     50 H          -3.6325    0.3283   -2.0175 H       1  UNL1        0.0319
     51 H          -5.3488    1.6075   -1.3043 H       1  UNL1        0.0276
     52 H          -6.2468    0.2420   -0.6505 H       1  UNL1        0.0276
     53 H          -4.3041    2.0306    0.8309 H       1  UNL1        0.0413
     54 H          -7.5999    3.3868    1.0769 H       1  UNL1        0.2951
     55 H          -3.9526    0.4622    2.4631 H       1  UNL1        0.0276
     56 H          -5.5572   -0.2798    2.2476 H       1  UNL1        0.0276
     57 H           1.4200   -1.4759    1.3358 H       1  UNL1        0.0442
     58 H           1.9389   -2.0758   -0.2586 H       1  UNL1        0.0442
     59 H           3.6031   -0.2897    1.5328 H       1  UNL1        0.0477
     60 H           3.9368   -2.0551    1.0913 H       1  UNL1        0.0477
     61 H           5.6670   -0.5524    1.6817 H       1  UNL1        0.0652
     62 H           8.0251    0.2582    1.8610 H       1  UNL1        0.0625
     63 H           7.8785    1.2518   -2.2437 H       1  UNL1        0.0836
     64 H           4.0016   -0.0158   -2.4368 H       1  UNL1        0.0477
     65 H           3.2305   -1.6047   -1.9878 H       1  UNL1        0.0477
     66 H           1.3061   -0.2408   -2.2491 H       1  UNL1        0.0442
     67 H           2.1919    1.2261   -1.7541 H       1  UNL1        0.0442
@<TRIPOS>BOND
     1     1     2    1
     2     2     3    1
     3     2     4    1
     4     4     5    2
     5     4     6   am
     6     6     7    1
     7     7     8    1
     8     8     9    1
     9     9    10    1
    10    10    11    1
    11    11    12    1
    12    12    13    1
    13    13    14    1
    14    14    15    1
    15    15    16    2
    16    15    17    1
    17    14    18    1
    18     2    19    1
    19    19    20    1
    20    20    21    1
    21    21    22    1
    22    22    23    1
    23    23    24   ar
    24    24    25   ar
    25    25    26   ar
    26    26    27    1
    27    27    28    1
    28    27    29    1
    29    27    30    1
    30    26    31   ar
    31    31    32   ar
    32    22    33    1
    33    33    34    1
    34    12     7    1
    35    34    19    1
    36    18     8    1
    37    32    23   ar
    38     1    35    1
    39     1    36    1
    40     1    37    1
    41     3    38    1
    42     3    39    1
    43     3    40    1
    44     6    41    1
    45     7    42    1
    46     8    43    1
    47     9    44    1
    48     9    45    1
    49    10    46    1
    50    10    47    1
    51    11    48    1
    52    11    49    1
    53    12    50    1
    54    13    51    1
    55    13    52    1
    56    14    53    1
    57    17    54    1
    58    18    55    1
    59    18    56    1
    60    20    57    1
    61    20    58    1
    62    21    59    1
    63    21    60    1
    64    24    61    1
    65    25    62    1
    66    31    63    1
    67    33    64    1
    68    33    65    1
    69    34    66    1
    70    34    67    1
