@<TRIPOS>MOLECULE
*****
 38 40 0 0 0
SMALL
GASTEIGER

@<TRIPOS>ATOM
      1 C           1.5576   -1.5149   -0.5979 C.3     1  UNL1        0.0999
      2 O           1.2132   -2.1560    0.5975 O.3     1  UNL1       -0.3855
      3 C           0.2950   -1.0266   -1.2759 C.3     1  UNL1        0.0652
      4 N          -0.5470   -0.3603   -0.2688 N.pl3   1  UNL1       -0.1997
      5 C          -1.9530   -0.2303   -0.1501 C.ar    1  UNL1        0.0516
      6 C          -2.4963   -1.2719    0.5759 C.ar    1  UNL1       -0.0356
      7 C          -3.8748   -1.3318    0.8090 C.ar    1  UNL1       -0.0182
      8 C          -4.6937   -0.3426    0.3090 C.ar    1  UNL1        0.1202
      9 O          -6.0572   -0.4253    0.5542 O.3     1  UNL1       -0.4951
     10 C          -6.9787    0.5173    0.0979 C.3     1  UNL1        0.0788
     11 C          -4.1367    0.6971   -0.4177 C.ar    1  UNL1       -0.0182
     12 C          -2.7873    0.7476   -0.6408 C.ar    1  UNL1       -0.0356
     13 S           0.3223    0.4188    1.0253 S.O2    1  UNL1        0.0815
     14 O          -0.2333    1.8216    1.2049 O.2     1  UNL1       -0.1493
     15 O           0.1999   -0.2916    2.3144 O.2     1  UNL1       -0.1493
     16 C           1.9513    0.5868    0.4406 C.ar    1  UNL1        0.1534
     17 C           2.5079   -0.3981   -0.3553 C.ar    1  UNL1        0.0182
     18 C           3.7928   -0.2442   -0.8043 C.ar    1  UNL1       -0.0204
     19 C           4.4477    0.9241   -0.4099 C.ar    1  UNL1        0.1443
     20 S           3.2858    1.8204    0.5884 S.2     1  UNL1       -0.0481
     21 S           6.0547    1.4610   -0.7743 S.O2    1  UNL1        0.0623
     22 N           6.9201    1.6477    0.7078 N.3     1  UNL1       -0.2030
     23 O           5.9832    2.7646   -1.5102 O.2     1  UNL1       -0.1527
     24 O           6.7473    0.4209   -1.5898 O.2     1  UNL1       -0.1527
     25 H           1.9760   -2.2905   -1.2711 H       1  UNL1        0.0661
     26 H           1.8935   -2.8704    0.7685 H       1  UNL1        0.2103
     27 H           0.6016   -0.2055   -1.9734 H       1  UNL1        0.0511
     28 H          -0.1952   -1.8692   -1.7602 H       1  UNL1        0.0511
     29 H          -1.9648   -2.1100    1.0224 H       1  UNL1        0.0638
     30 H          -4.3385   -2.1456    1.3818 H       1  UNL1        0.0655
     31 H          -6.8932    0.7500   -0.9708 H       1  UNL1        0.0660
     32 H          -7.9971    0.0873    0.2856 H       1  UNL1        0.0660
     33 H          -6.9002    1.4554    0.7056 H       1  UNL1        0.0660
     34 H          -4.7589    1.4850   -0.8201 H       1  UNL1        0.0655
     35 H          -2.2662    1.5155   -1.1932 H       1  UNL1        0.0638
     36 H           4.3226   -0.9460   -1.4270 H       1  UNL1        0.0647
     37 H           7.7895    2.2124    0.6078 H       1  UNL1        0.1443
     38 H           7.2103    0.6974    1.0344 H       1  UNL1        0.1443
@<TRIPOS>BOND
     1     1     2    1
     2     1     3    1
     3     3     4    1
     4     4     5    1
     5     5     6   ar
     6     6     7   ar
     7     7     8   ar
     8     8     9    1
     9     9    10    1
    10     8    11   ar
    11    11    12   ar
    12     4    13    1
    13    13    14    2
    14    13    15    2
    15    13    16    1
    16    16    17   ar
    17    17    18   ar
    18    18    19   ar
    19    19    20   ar
    20    19    21    1
    21    21    22    1
    22    21    23    2
    23    21    24    2
    24    17     1    1
    25    12     5   ar
    26    20    16   ar
    27     1    25    1
    28     2    26    1
    29     3    27    1
    30     3    28    1
    31     6    29    1
    32     7    30    1
    33    10    31    1
    34    10    32    1
    35    10    33    1
    36    11    34    1
    37    12    35    1
    38    18    36    1
    39    22    37    1
    40    22    38    1
