
     RDKit          3D

 38 40  0  0  0  0  0  0  0  0999 V2000
    1.5576   -1.5149   -0.5979 C   0  0  1  0  0  0  0  0  0  0  0  0
    1.2132   -2.1560    0.5975 O   0  0  0  0  0  0  0  0  0  0  0  0
    0.2950   -1.0266   -1.2759 C   0  0  0  0  0  0  0  0  0  0  0  0
   -0.5470   -0.3603   -0.2688 N   0  0  0  0  0  0  0  0  0  0  0  0
   -1.9530   -0.2303   -0.1501 C   0  0  0  0  0  0  0  0  0  0  0  0
   -2.4963   -1.2719    0.5759 C   0  0  0  0  0  0  0  0  0  0  0  0
   -3.8748   -1.3318    0.8090 C   0  0  0  0  0  0  0  0  0  0  0  0
   -4.6937   -0.3426    0.3090 C   0  0  0  0  0  0  0  0  0  0  0  0
   -6.0572   -0.4253    0.5542 O   0  0  0  0  0  0  0  0  0  0  0  0
   -6.9787    0.5173    0.0979 C   0  0  0  0  0  0  0  0  0  0  0  0
   -4.1367    0.6971   -0.4177 C   0  0  0  0  0  0  0  0  0  0  0  0
   -2.7873    0.7476   -0.6408 C   0  0  0  0  0  0  0  0  0  0  0  0
    0.3223    0.4188    1.0253 S   0  0  0  0  0  0  0  0  0  0  0  0
   -0.2333    1.8216    1.2049 O   0  0  0  0  0  0  0  0  0  0  0  0
    0.1999   -0.2916    2.3144 O   0  0  0  0  0  0  0  0  0  0  0  0
    1.9513    0.5868    0.4406 C   0  0  0  0  0  0  0  0  0  0  0  0
    2.5079   -0.3981   -0.3553 C   0  0  0  0  0  0  0  0  0  0  0  0
    3.7928   -0.2442   -0.8043 C   0  0  0  0  0  0  0  0  0  0  0  0
    4.4477    0.9241   -0.4099 C   0  0  0  0  0  0  0  0  0  0  0  0
    3.2858    1.8204    0.5884 S   0  0  0  0  0  0  0  0  0  0  0  0
    6.0547    1.4610   -0.7743 S   0  0  0  0  0  0  0  0  0  0  0  0
    6.9201    1.6477    0.7078 N   0  0  0  0  0  0  0  0  0  0  0  0
    5.9832    2.7646   -1.5102 O   0  0  0  0  0  0  0  0  0  0  0  0
    6.7473    0.4209   -1.5898 O   0  0  0  0  0  0  0  0  0  0  0  0
    1.9760   -2.2905   -1.2711 H   0  0  0  0  0  0  0  0  0  0  0  0
    1.8935   -2.8704    0.7685 H   0  0  0  0  0  0  0  0  0  0  0  0
    0.6016   -0.2055   -1.9734 H   0  0  0  0  0  0  0  0  0  0  0  0
   -0.1952   -1.8692   -1.7602 H   0  0  0  0  0  0  0  0  0  0  0  0
   -1.9648   -2.1100    1.0224 H   0  0  0  0  0  0  0  0  0  0  0  0
   -4.3385   -2.1456    1.3818 H   0  0  0  0  0  0  0  0  0  0  0  0
   -6.8932    0.7500   -0.9708 H   0  0  0  0  0  0  0  0  0  0  0  0
   -7.9971    0.0873    0.2856 H   0  0  0  0  0  0  0  0  0  0  0  0
   -6.9002    1.4554    0.7056 H   0  0  0  0  0  0  0  0  0  0  0  0
   -4.7589    1.4850   -0.8201 H   0  0  0  0  0  0  0  0  0  0  0  0
   -2.2662    1.5155   -1.1932 H   0  0  0  0  0  0  0  0  0  0  0  0
    4.3226   -0.9460   -1.4270 H   0  0  0  0  0  0  0  0  0  0  0  0
    7.7895    2.2124    0.6078 H   0  0  0  0  0  0  0  0  0  0  0  0
    7.2103    0.6974    1.0344 H   0  0  0  0  0  0  0  0  0  0  0  0
  1  2  1  0
  1  3  1  0
  3  4  1  0
  4  5  1  0
  5  6  2  0
  6  7  1  0
  7  8  2  0
  8  9  1  0
  9 10  1  0
  8 11  1  0
 11 12  2  0
  4 13  1  0
 13 14  2  0
 13 15  2  0
 13 16  1  0
 16 17  2  0
 17 18  1  0
 18 19  2  0
 19 20  1  0
 19 21  1  0
 21 22  1  0
 21 23  2  0
 21 24  2  0
 17  1  1  0
 12  5  1  0
 20 16  1  0
  1 25  1  6
  2 26  1  0
  3 27  1  0
  3 28  1  0
  6 29  1  0
  7 30  1  0
 10 31  1  0
 10 32  1  0
 10 33  1  0
 11 34  1  0
 12 35  1  0
 18 36  1  0
 22 37  1  0
 22 38  1  0
M  END
$$$$
