
     RDKit          3D

 54 58  0  0  0  0  0  0  0  0999 V2000
   -3.4129   -2.7663   -2.2719 C   0  0  0  0  0  0  0  0  0  0  0  0
   -2.3568   -2.2608   -1.4996 O   0  0  0  0  0  0  0  0  0  0  0  0
   -2.5695   -1.2195   -0.6222 C   0  0  0  0  0  0  0  0  0  0  0  0
   -3.7682   -0.5896   -0.4075 C   0  0  0  0  0  0  0  0  0  0  0  0
   -3.9183    0.4652    0.5016 C   0  0  0  0  0  0  0  0  0  0  0  0
   -5.2019    1.1007    0.6908 C   0  0  0  0  0  0  0  0  0  0  0  0
   -5.7463    1.4065    1.9056 C   0  0  0  0  0  0  0  0  0  0  0  0
   -6.9840    2.0103    2.0484 C   0  0  0  0  0  0  0  0  0  0  0  0
   -7.7124    2.3224    0.9093 C   0  0  0  0  0  0  0  0  0  0  0  0
   -7.1782    2.0207   -0.3233 C   0  0  0  0  0  0  0  0  0  0  0  0
   -7.9063    2.3302   -1.4379 F   0  0  0  0  0  0  0  0  0  0  0  0
   -5.9300    1.4127   -0.4451 C   0  0  0  0  0  0  0  0  0  0  0  0
   -2.8165    0.8748    1.1983 C   0  0  0  0  0  0  0  0  0  0  0  0
   -2.9404    2.1830    2.3336 Cl  0  0  0  0  0  0  0  0  0  0  0  0
   -1.5899    0.2312    0.9798 C   0  0  0  0  0  0  0  0  0  0  0  0
   -1.4369   -0.7991    0.0932 C   0  0  0  0  0  0  0  0  0  0  0  0
   -0.1578   -1.4862   -0.1313 C   0  0  0  0  0  0  0  0  0  0  0  0
   -0.0801   -2.8329    0.0728 N   0  0  0  0  0  0  0  0  0  0  0  0
    1.0428   -3.5124   -0.1328 C   0  0  0  0  0  0  0  0  0  0  0  0
    2.1626   -2.8419   -0.5648 C   0  0  0  0  0  0  0  0  0  0  0  0
    2.1564   -1.4861   -0.7912 C   0  0  0  0  0  0  0  0  0  0  0  0
    3.2898   -0.8200   -1.2326 C   0  0  0  0  0  0  0  0  0  0  0  0
    3.2439    0.5396   -1.4536 C   0  0  0  0  0  0  0  0  0  0  0  0
    4.6109    1.4444   -2.0101 S   0  0  0  0  0  6  0  0  0  0  0  0
    5.4589    0.6162   -2.9475 O   0  0  0  0  0  0  0  0  0  0  0  0
    4.0928    2.6047   -2.8513 O   0  0  0  0  0  0  0  0  0  0  0  0
    5.5701    2.1138   -0.7567 N   0  0  0  0  0  0  0  0  0  0  0  0
    6.2059    1.2589    0.1691 C   0  0  0  0  0  0  0  0  0  0  0  0
    6.9845    1.7182    1.1842 N   0  0  0  0  0  0  0  0  0  0  0  0
    7.5910    0.9162    2.0578 C   0  0  0  0  0  0  0  0  0  0  0  0
    7.4410   -0.4559    1.9543 C   0  0  0  0  0  0  0  0  0  0  0  0
    6.6561   -0.9174    0.9319 C   0  0  0  0  0  0  0  0  0  0  0  0
    6.0744   -0.0526    0.0870 N   0  0  0  0  0  0  0  0  0  0  0  0
    2.0317    1.1728   -1.2142 C   0  0  0  0  0  0  0  0  0  0  0  0
    0.8981    0.5312   -0.7777 C   0  0  0  0  0  0  0  0  0  0  0  0
    0.9440   -0.8242   -0.5566 C   0  0  0  0  0  0  0  0  0  0  0  0
   -3.2600   -3.8866   -2.3879 H   0  0  0  0  0  0  0  0  0  0  0  0
   -4.4083   -2.6631   -1.8041 H   0  0  0  0  0  0  0  0  0  0  0  0
   -3.4638   -2.2987   -3.2821 H   0  0  0  0  0  0  0  0  0  0  0  0
   -4.6533   -0.8897   -0.9437 H   0  0  0  0  0  0  0  0  0  0  0  0
   -5.1993    1.1659    2.8052 H   0  0  0  0  0  0  0  0  0  0  0  0
   -7.4372    2.2626    2.9974 H   0  0  0  0  0  0  0  0  0  0  0  0
   -8.6965    2.8001    0.9917 H   0  0  0  0  0  0  0  0  0  0  0  0
   -5.5396    1.1847   -1.4326 H   0  0  0  0  0  0  0  0  0  0  0  0
   -0.7175    0.5642    1.5480 H   0  0  0  0  0  0  0  0  0  0  0  0
    1.0828   -4.6031    0.0393 H   0  0  0  0  0  0  0  0  0  0  0  0
    3.0793   -3.3954   -0.7328 H   0  0  0  0  0  0  0  0  0  0  0  0
    4.1930   -1.3955   -1.4018 H   0  0  0  0  0  0  0  0  0  0  0  0
    5.7019    3.1643   -0.6535 H   0  0  0  0  0  0  0  0  0  0  0  0
    8.2061    1.3350    2.8534 H   0  0  0  0  0  0  0  0  0  0  0  0
    7.9043   -1.1448    2.6265 H   0  0  0  0  0  0  0  0  0  0  0  0
    6.4688   -1.9786    0.7572 H   0  0  0  0  0  0  0  0  0  0  0  0
    1.9888    2.2451   -1.3876 H   0  0  0  0  0  0  0  0  0  0  0  0
    0.0020    1.1249   -0.6311 H   0  0  0  0  0  0  0  0  0  0  0  0
  1  2  1  0
  2  3  1  0
  3  4  2  0
  4  5  1  0
  5  6  1  0
  6  7  2  0
  7  8  1  0
  8  9  2  0
  9 10  1  0
 10 11  1  0
 10 12  2  0
  5 13  2  0
 13 14  1  0
 13 15  1  0
 15 16  2  0
 16 17  1  0
 17 18  2  0
 18 19  1  0
 19 20  2  0
 20 21  1  0
 21 22  2  0
 22 23  1  0
 23 24  1  0
 24 25  2  0
 24 26  2  0
 24 27  1  0
 27 28  1  0
 28 29  2  0
 29 30  1  0
 30 31  2  0
 31 32  1  0
 32 33  2  0
 23 34  2  0
 34 35  1  0
 35 36  2  0
 16  3  1  0
 36 17  1  0
 12  6  1  0
 36 21  1  0
 33 28  1  0
  1 37  1  0
  1 38  1  0
  1 39  1  0
  4 40  1  0
  7 41  1  0
  8 42  1  0
  9 43  1  0
 12 44  1  0
 15 45  1  0
 19 46  1  0
 20 47  1  0
 22 48  1  0
 27 49  1  0
 30 50  1  0
 31 51  1  0
 32 52  1  0
 34 53  1  0
 35 54  1  0
M  END
$$$$
