@<TRIPOS>MOLECULE
*****
 54 58 0 0 0
SMALL
GASTEIGER

@<TRIPOS>ATOM
      1 C          -3.4129   -2.7663   -2.2719 C.3     1  UNL1        0.0788
      2 O          -2.3568   -2.2608   -1.4996 O.3     1  UNL1       -0.4944
      3 C          -2.5695   -1.2195   -0.6222 C.ar    1  UNL1        0.1299
      4 C          -3.7682   -0.5896   -0.4075 C.ar    1  UNL1       -0.0102
      5 C          -3.9183    0.4652    0.5016 C.ar    1  UNL1        0.0040
      6 C          -5.2019    1.1007    0.6908 C.ar    1  UNL1       -0.0137
      7 C          -5.7463    1.4065    1.9056 C.ar    1  UNL1       -0.0538
      8 C          -6.9840    2.0103    2.0484 C.ar    1  UNL1       -0.0585
      9 C          -7.7124    2.3224    0.9093 C.ar    1  UNL1       -0.0264
     10 C          -7.1782    2.0207   -0.3233 C.ar    1  UNL1        0.1240
     11 F          -7.9063    2.3302   -1.4379 F       1  UNL1       -0.2055
     12 C          -5.9300    1.4127   -0.4451 C.ar    1  UNL1       -0.0187
     13 C          -2.8165    0.8748    1.1983 C.ar    1  UNL1        0.0495
     14 CL         -2.9404    2.1830    2.3336 Cl      1  UNL1       -0.0829
     15 C          -1.5899    0.2312    0.9798 C.ar    1  UNL1       -0.0301
     16 C          -1.4369   -0.7991    0.0932 C.ar    1  UNL1        0.0440
     17 C          -0.1578   -1.4862   -0.1313 C.ar    1  UNL1        0.0822
     18 N          -0.0801   -2.8329    0.0728 N.ar    1  UNL1       -0.2542
     19 C           1.0428   -3.5124   -0.1328 C.ar    1  UNL1        0.0289
     20 C           2.1626   -2.8419   -0.5648 C.ar    1  UNL1       -0.0358
     21 C           2.1564   -1.4861   -0.7912 C.ar    1  UNL1       -0.0126
     22 C           3.2898   -0.8200   -1.2326 C.ar    1  UNL1       -0.0272
     23 C           3.2439    0.5396   -1.4536 C.ar    1  UNL1        0.1092
     24 S           4.6109    1.4444   -2.0101 S.O2    1  UNL1        0.0746
     25 O           5.4589    0.6162   -2.9475 O.2     1  UNL1       -0.1499
     26 O           4.0928    2.6047   -2.8513 O.2     1  UNL1       -0.1499
     27 N           5.5701    2.1138   -0.7567 N.pl3   1  UNL1       -0.1836
     28 C           6.2059    1.2589    0.1691 C.ar    1  UNL1        0.2347
     29 N           6.9845    1.7182    1.1842 N.ar    1  UNL1       -0.2217
     30 C           7.5910    0.9162    2.0578 C.ar    1  UNL1        0.0327
     31 C           7.4410   -0.4559    1.9543 C.ar    1  UNL1       -0.0253
     32 C           6.6561   -0.9174    0.9319 C.ar    1  UNL1        0.0327
     33 N           6.0744   -0.0526    0.0870 N.ar    1  UNL1       -0.2217
     34 C           2.0317    1.1728   -1.2142 C.ar    1  UNL1       -0.0344
     35 C           0.8981    0.5312   -0.7777 C.ar    1  UNL1       -0.0501
     36 C           0.9440   -0.8242   -0.5566 C.ar    1  UNL1        0.0083
     37 H          -3.2600   -3.8866   -2.3879 H       1  UNL1        0.0660
     38 H          -4.4083   -2.6631   -1.8041 H       1  UNL1        0.0660
     39 H          -3.4638   -2.2987   -3.2821 H       1  UNL1        0.0660
     40 H          -4.6533   -0.8897   -0.9437 H       1  UNL1        0.0661
     41 H          -5.1993    1.1659    2.8052 H       1  UNL1        0.0624
     42 H          -7.4372    2.2626    2.9974 H       1  UNL1        0.0619
     43 H          -8.6965    2.8001    0.9917 H       1  UNL1        0.0646
     44 H          -5.5396    1.1847   -1.4326 H       1  UNL1        0.0652
     45 H          -0.7175    0.5642    1.5480 H       1  UNL1        0.0640
     46 H           1.0828   -4.6031    0.0393 H       1  UNL1        0.0830
     47 H           3.0793   -3.3954   -0.7328 H       1  UNL1        0.0639
     48 H           4.1930   -1.3955   -1.4018 H       1  UNL1        0.0643
     49 H           5.7019    3.1643   -0.6535 H       1  UNL1        0.1767
     50 H           8.2061    1.3350    2.8534 H       1  UNL1        0.0831
     51 H           7.9043   -1.1448    2.6265 H       1  UNL1        0.0648
     52 H           6.4688   -1.9786    0.7572 H       1  UNL1        0.0831
     53 H           1.9888    2.2451   -1.3876 H       1  UNL1        0.0637
     54 H           0.0020    1.1249   -0.6311 H       1  UNL1        0.0625
@<TRIPOS>BOND
     1     1     2    1
     2     2     3    1
     3     3     4   ar
     4     4     5   ar
     5     5     6    1
     6     6     7   ar
     7     7     8   ar
     8     8     9   ar
     9     9    10   ar
    10    10    11    1
    11    10    12   ar
    12     5    13   ar
    13    13    14    1
    14    13    15   ar
    15    15    16   ar
    16    16    17    1
    17    17    18   ar
    18    18    19   ar
    19    19    20   ar
    20    20    21   ar
    21    21    22   ar
    22    22    23   ar
    23    23    24    1
    24    24    25    2
    25    24    26    2
    26    24    27    1
    27    27    28    1
    28    28    29   ar
    29    29    30   ar
    30    30    31   ar
    31    31    32   ar
    32    32    33   ar
    33    23    34   ar
    34    34    35   ar
    35    35    36   ar
    36    16     3   ar
    37    36    17   ar
    38    12     6   ar
    39    36    21   ar
    40    33    28   ar
    41     1    37    1
    42     1    38    1
    43     1    39    1
    44     4    40    1
    45     7    41    1
    46     8    42    1
    47     9    43    1
    48    12    44    1
    49    15    45    1
    50    19    46    1
    51    20    47    1
    52    22    48    1
    53    27    49    1
    54    30    50    1
    55    31    51    1
    56    32    52    1
    57    34    53    1
    58    35    54    1
