
     RDKit          3D

 52 55  0  0  0  0  0  0  0  0999 V2000
   -8.2115    0.7800    0.5468 C   0  0  0  0  0  0  0  0  0  0  0  0
   -7.3136    0.0540   -0.4262 C   0  0  0  0  0  0  0  0  0  0  0  0
   -6.1399   -0.5001    0.1647 N   0  0  0  0  0  0  0  0  0  0  0  0
   -5.1402    0.2332    0.8370 C   0  0  0  0  0  0  0  0  0  0  0  0
   -5.2622    1.4733    0.9423 O   0  0  0  0  0  0  0  0  0  0  0  0
   -3.9729   -0.4208    1.4088 C   0  0  0  0  0  0  0  0  0  0  0  0
   -4.1479   -1.3039    2.4661 C   0  0  0  0  0  0  0  0  0  0  0  0
   -3.0398   -1.9303    3.0107 C   0  0  0  0  0  0  0  0  0  0  0  0
   -1.8028   -1.6595    2.4894 C   0  0  0  0  0  0  0  0  0  0  0  0
   -1.6316   -0.7694    1.4247 C   0  0  0  0  0  0  0  0  0  0  0  0
   -0.3947   -0.5028    0.9074 C   0  0  0  0  0  0  0  0  0  0  0  0
   -0.1964    0.3948   -0.1716 C   0  0  0  0  0  0  0  0  0  0  0  0
    1.0467    0.5551   -0.5665 O   0  0  0  0  0  0  0  0  0  0  0  0
    1.9087    1.1271   -1.3657 C   0  0  0  0  0  0  0  0  0  0  0  0
    1.6342    2.0456   -2.3532 C   0  0  0  0  0  0  0  0  0  0  0  0
    2.6546    2.5844   -3.1441 C   0  0  0  0  0  0  0  0  0  0  0  0
    3.9239    2.2022   -2.9397 N   0  0  0  0  0  0  0  0  0  0  0  0
    4.2344    1.3077   -1.9857 C   0  0  0  0  0  0  0  0  0  0  0  0
    5.5570    0.9078   -1.7722 C   0  0  0  0  0  0  0  0  0  0  0  0
    5.8947   -0.0010   -0.8082 C   0  0  0  0  0  0  0  0  0  0  0  0
    7.2066   -0.3980   -0.5964 O   0  0  0  0  0  0  0  0  0  0  0  0
    8.2658    0.1315   -1.3833 C   0  0  0  0  0  0  0  0  0  0  0  0
    4.9174   -0.5631    0.0013 C   0  0  0  0  0  0  0  0  0  0  0  0
    5.2797   -1.4733    0.9635 O   0  0  0  0  0  0  0  0  0  0  0  0
    4.3531   -2.0831    1.8211 C   0  0  0  0  0  0  0  0  0  0  0  0
    3.6154   -0.1637   -0.2153 C   0  0  0  0  0  0  0  0  0  0  0  0
    3.2650    0.7654   -1.2003 C   0  0  0  0  0  0  0  0  0  0  0  0
   -1.3394    0.9793   -0.6617 C   0  0  0  0  0  0  0  0  0  0  0  0
   -2.6164    0.7376   -0.1665 C   0  0  0  0  0  0  0  0  0  0  0  0
   -2.7310   -0.1446    0.8803 C   0  0  0  0  0  0  0  0  0  0  0  0
   -7.9923    1.8849    0.5684 H   0  0  0  0  0  0  0  0  0  0  0  0
   -8.2165    0.3524    1.5510 H   0  0  0  0  0  0  0  0  0  0  0  0
   -9.2474    0.7143    0.1471 H   0  0  0  0  0  0  0  0  0  0  0  0
   -7.9084   -0.7589   -0.8850 H   0  0  0  0  0  0  0  0  0  0  0  0
   -7.0723    0.8023   -1.2284 H   0  0  0  0  0  0  0  0  0  0  0  0
   -5.9852   -1.5322    0.1085 H   0  0  0  0  0  0  0  0  0  0  0  0
   -5.1491   -1.4689    2.8241 H   0  0  0  0  0  0  0  0  0  0  0  0
   -3.1453   -2.6214    3.8340 H   0  0  0  0  0  0  0  0  0  0  0  0
   -0.9113   -2.1186    2.8764 H   0  0  0  0  0  0  0  0  0  0  0  0
    0.4542   -1.0128    1.3578 H   0  0  0  0  0  0  0  0  0  0  0  0
    0.6293    2.3882   -2.5582 H   0  0  0  0  0  0  0  0  0  0  0  0
    2.4540    3.3093   -3.9260 H   0  0  0  0  0  0  0  0  0  0  0  0
    6.2979    1.3567   -2.4107 H   0  0  0  0  0  0  0  0  0  0  0  0
    8.5670    1.1254   -1.0430 H   0  0  0  0  0  0  0  0  0  0  0  0
    9.1055   -0.6156   -1.3628 H   0  0  0  0  0  0  0  0  0  0  0  0
    7.9514    0.1622   -2.4569 H   0  0  0  0  0  0  0  0  0  0  0  0
    3.5952   -2.6408    1.2327 H   0  0  0  0  0  0  0  0  0  0  0  0
    4.8635   -2.8169    2.4761 H   0  0  0  0  0  0  0  0  0  0  0  0
    3.7940   -1.3443    2.4415 H   0  0  0  0  0  0  0  0  0  0  0  0
    2.8437   -0.5878    0.3991 H   0  0  0  0  0  0  0  0  0  0  0  0
   -1.2406    1.6686   -1.4836 H   0  0  0  0  0  0  0  0  0  0  0  0
   -3.5037    1.2104   -0.5693 H   0  0  0  0  0  0  0  0  0  0  0  0
  1  2  1  0
  2  3  1  0
  3  4  1  0
  4  5  2  0
  4  6  1  0
  6  7  2  0
  7  8  1  0
  8  9  2  0
  9 10  1  0
 10 11  2  0
 11 12  1  0
 12 13  1  0
 13 14  1  0
 14 15  2  0
 15 16  1  0
 16 17  2  0
 17 18  1  0
 18 19  2  0
 19 20  1  0
 20 21  1  0
 21 22  1  0
 20 23  2  0
 23 24  1  0
 24 25  1  0
 23 26  1  0
 26 27  2  0
 12 28  2  0
 28 29  1  0
 29 30  2  0
 30  6  1  0
 30 10  1  0
 27 14  1  0
 27 18  1  0
  1 31  1  0
  1 32  1  0
  1 33  1  0
  2 34  1  0
  2 35  1  0
  3 36  1  0
  7 37  1  0
  8 38  1  0
  9 39  1  0
 11 40  1  0
 15 41  1  0
 16 42  1  0
 19 43  1  0
 22 44  1  0
 22 45  1  0
 22 46  1  0
 25 47  1  0
 25 48  1  0
 25 49  1  0
 26 50  1  0
 28 51  1  0
 29 52  1  0
M  END
$$$$
