@<TRIPOS>MOLECULE
*****
 52 55 0 0 0
SMALL
GASTEIGER

@<TRIPOS>ATOM
      1 C          -8.2115    0.7800    0.5468 C.3     1  UNL1       -0.0495
      2 C          -7.3136    0.0540   -0.4262 C.3     1  UNL1        0.0091
      3 N          -6.1399   -0.5001    0.1647 N.am    1  UNL1       -0.3116
      4 C          -5.1402    0.2332    0.8370 C.2     1  UNL1        0.2447
      5 O          -5.2622    1.4733    0.9423 O.2     1  UNL1       -0.2702
      6 C          -3.9729   -0.4208    1.4088 C.ar    1  UNL1        0.0444
      7 C          -4.1479   -1.3039    2.4661 C.ar    1  UNL1       -0.0490
      8 C          -3.0398   -1.9303    3.0107 C.ar    1  UNL1       -0.0605
      9 C          -1.8028   -1.6595    2.4894 C.ar    1  UNL1       -0.0539
     10 C          -1.6316   -0.7694    1.4247 C.ar    1  UNL1       -0.0137
     11 C          -0.3947   -0.5028    0.9074 C.ar    1  UNL1       -0.0116
     12 C          -0.1964    0.3948   -0.1716 C.ar    1  UNL1        0.1291
     13 O           1.0467    0.5551   -0.5665 O.3     1  UNL1       -0.4553
     14 C           1.9087    1.1271   -1.3657 C.ar    1  UNL1        0.1391
     15 C           1.6342    2.0456   -2.3532 C.ar    1  UNL1       -0.0006
     16 C           2.6546    2.5844   -3.1441 C.ar    1  UNL1        0.0318
     17 N           3.9239    2.2022   -2.9397 N.ar    1  UNL1       -0.2546
     18 C           4.2344    1.3077   -1.9857 C.ar    1  UNL1        0.0782
     19 C           5.5570    0.9078   -1.7722 C.ar    1  UNL1        0.0098
     20 C           5.8947   -0.0010   -0.8082 C.ar    1  UNL1        0.1635
     21 O           7.2066   -0.3980   -0.5964 O.3     1  UNL1       -0.4914
     22 C           8.2658    0.1315   -1.3833 C.3     1  UNL1        0.0790
     23 C           4.9174   -0.5631    0.0013 C.ar    1  UNL1        0.1623
     24 O           5.2797   -1.4733    0.9635 O.3     1  UNL1       -0.4914
     25 C           4.3531   -2.0831    1.8211 C.3     1  UNL1        0.0790
     26 C           3.6154   -0.1637   -0.2153 C.ar    1  UNL1       -0.0036
     27 C           3.2650    0.7654   -1.2003 C.ar    1  UNL1        0.0463
     28 C          -1.3394    0.9793   -0.6617 C.ar    1  UNL1       -0.0187
     29 C          -2.6164    0.7376   -0.1665 C.ar    1  UNL1       -0.0498
     30 C          -2.7310   -0.1446    0.8803 C.ar    1  UNL1       -0.0056
     31 H          -7.9923    1.8849    0.5684 H       1  UNL1        0.0245
     32 H          -8.2165    0.3524    1.5510 H       1  UNL1        0.0245
     33 H          -9.2474    0.7143    0.1471 H       1  UNL1        0.0245
     34 H          -7.9084   -0.7589   -0.8850 H       1  UNL1        0.0459
     35 H          -7.0723    0.8023   -1.2284 H       1  UNL1        0.0459
     36 H          -5.9852   -1.5322    0.1085 H       1  UNL1        0.1490
     37 H          -5.1491   -1.4689    2.8241 H       1  UNL1        0.0625
     38 H          -3.1453   -2.6214    3.8340 H       1  UNL1        0.0618
     39 H          -0.9113   -2.1186    2.8764 H       1  UNL1        0.0624
     40 H           0.4542   -1.0128    1.3578 H       1  UNL1        0.0660
     41 H           0.6293    2.3882   -2.5582 H       1  UNL1        0.0670
     42 H           2.4540    3.3093   -3.9260 H       1  UNL1        0.0831
     43 H           6.2979    1.3567   -2.4107 H       1  UNL1        0.0677
     44 H           8.5670    1.1254   -1.0430 H       1  UNL1        0.0660
     45 H           9.1055   -0.6156   -1.3628 H       1  UNL1        0.0660
     46 H           7.9514    0.1622   -2.4569 H       1  UNL1        0.0660
     47 H           3.5952   -2.6408    1.2327 H       1  UNL1        0.0660
     48 H           4.8635   -2.8169    2.4761 H       1  UNL1        0.0660
     49 H           3.7940   -1.3443    2.4415 H       1  UNL1        0.0660
     50 H           2.8437   -0.5878    0.3991 H       1  UNL1        0.0663
     51 H          -1.2406    1.6686   -1.4836 H       1  UNL1        0.0654
     52 H          -3.5037    1.2104   -0.5693 H       1  UNL1        0.0625
@<TRIPOS>BOND
     1     1     2    1
     2     2     3    1
     3     3     4   am
     4     4     5    2
     5     4     6    1
     6     6     7   ar
     7     7     8   ar
     8     8     9   ar
     9     9    10   ar
    10    10    11   ar
    11    11    12   ar
    12    12    13    1
    13    13    14    1
    14    14    15   ar
    15    15    16   ar
    16    16    17   ar
    17    17    18   ar
    18    18    19   ar
    19    19    20   ar
    20    20    21    1
    21    21    22    1
    22    20    23   ar
    23    23    24    1
    24    24    25    1
    25    23    26   ar
    26    26    27   ar
    27    12    28   ar
    28    28    29   ar
    29    29    30   ar
    30    30     6   ar
    31    30    10   ar
    32    27    14   ar
    33    27    18   ar
    34     1    31    1
    35     1    32    1
    36     1    33    1
    37     2    34    1
    38     2    35    1
    39     3    36    1
    40     7    37    1
    41     8    38    1
    42     9    39    1
    43    11    40    1
    44    15    41    1
    45    16    42    1
    46    19    43    1
    47    22    44    1
    48    22    45    1
    49    22    46    1
    50    25    47    1
    51    25    48    1
    52    25    49    1
    53    26    50    1
    54    28    51    1
    55    29    52    1
