
     RDKit          3D

 49 52  0  0  0  0  0  0  0  0999 V2000
    3.3799   -0.1004   -2.3966 N   0  0  0  0  0  0  0  0  0  0  0  0
    2.1570    0.1015   -1.6431 C   0  0  1  0  0  0  0  0  0  0  0  0
    1.1021   -0.8942   -2.0910 C   0  0  0  0  0  0  0  0  0  0  0  0
   -0.1718   -0.6886   -1.3244 C   0  0  0  0  0  0  0  0  0  0  0  0
   -0.6350    0.4992   -1.4392 O   0  0  0  0  0  0  0  0  0  0  0  0
   -0.7789   -1.6975   -0.5684 N   0  0  0  0  0  0  0  0  0  0  0  0
   -0.2955   -3.0387   -0.3971 C   0  0  0  0  0  0  0  0  0  0  0  0
   -0.5789   -3.3076    1.0640 C   0  0  0  0  0  0  0  0  0  0  0  0
   -1.5067   -2.2035    1.5284 C   0  0  0  0  0  0  0  0  0  0  0  0
   -1.9929   -1.6265    0.1813 C   0  0  1  0  0  0  0  0  0  0  0  0
   -2.5656   -0.2909    0.3586 C   0  0  0  0  0  0  0  0  0  0  0  0
   -3.8655    0.0816    0.1468 N   0  0  0  0  0  0  0  0  0  0  0  0
   -3.9870    1.3872    0.4211 C   0  0  0  0  0  0  0  0  0  0  0  0
   -5.1886    2.2567    0.3459 C   0  0  0  0  0  0  0  0  0  0  0  0
   -6.4725    1.5512    0.7428 C   0  0  0  0  0  0  0  0  0  0  0  0
   -6.2502    1.8677   -0.7024 C   0  0  0  0  0  0  0  0  0  0  0  0
   -2.7699    1.8064    0.7978 N   0  0  0  0  0  0  0  0  0  0  0  0
   -1.9573    0.7868    0.7480 O   0  0  0  0  0  0  0  0  0  0  0  0
    2.4970   -0.2146   -0.1983 C   0  0  0  0  0  0  0  0  0  0  0  0
    3.5591    0.6461    0.3547 C   0  0  0  0  0  0  0  0  0  0  0  0
    4.8619    0.2305    0.5313 C   0  0  0  0  0  0  0  0  0  0  0  0
    5.8405    1.0628    1.0499 C   0  0  0  0  0  0  0  0  0  0  0  0
    7.1134    0.6343    1.2124 F   0  0  0  0  0  0  0  0  0  0  0  0
    5.5372    2.3618    1.4148 C   0  0  0  0  0  0  0  0  0  0  0  0
    6.5000    3.1708    1.9226 F   0  0  0  0  0  0  0  0  0  0  0  0
    4.2423    2.7908    1.2444 C   0  0  0  0  0  0  0  0  0  0  0  0
    3.2767    1.9648    0.7304 C   0  0  0  0  0  0  0  0  0  0  0  0
    2.0164    2.4320    0.5811 F   0  0  0  0  0  0  0  0  0  0  0  0
    3.3517    0.4137   -3.2910 H   0  0  0  0  0  0  0  0  0  0  0  0
    4.2233    0.1719   -1.8371 H   0  0  0  0  0  0  0  0  0  0  0  0
    1.8564    1.1388   -1.7400 H   0  0  0  0  0  0  0  0  0  0  0  0
    0.8567   -0.6165   -3.1517 H   0  0  0  0  0  0  0  0  0  0  0  0
    1.4391   -1.9204   -2.1040 H   0  0  0  0  0  0  0  0  0  0  0  0
   -0.9394   -3.7056   -1.0318 H   0  0  0  0  0  0  0  0  0  0  0  0
    0.7784   -3.1605   -0.6452 H   0  0  0  0  0  0  0  0  0  0  0  0
    0.3810   -3.2798    1.6005 H   0  0  0  0  0  0  0  0  0  0  0  0
   -1.0148   -4.3165    1.2269 H   0  0  0  0  0  0  0  0  0  0  0  0
   -0.9343   -1.3451    1.9956 H   0  0  0  0  0  0  0  0  0  0  0  0
   -2.3359   -2.5460    2.1454 H   0  0  0  0  0  0  0  0  0  0  0  0
   -2.7312   -2.3462   -0.2476 H   0  0  0  0  0  0  0  0  0  0  0  0
   -5.0838    3.3269    0.5924 H   0  0  0  0  0  0  0  0  0  0  0  0
   -7.2827    2.1723    1.2127 H   0  0  0  0  0  0  0  0  0  0  0  0
   -6.4251    0.5052    1.0888 H   0  0  0  0  0  0  0  0  0  0  0  0
   -5.9729    0.9835   -1.3493 H   0  0  0  0  0  0  0  0  0  0  0  0
   -6.8203    2.6976   -1.1775 H   0  0  0  0  0  0  0  0  0  0  0  0
    2.8273   -1.2843   -0.1427 H   0  0  0  0  0  0  0  0  0  0  0  0
    1.5782   -0.1600    0.4310 H   0  0  0  0  0  0  0  0  0  0  0  0
    5.1494   -0.7626    0.2655 H   0  0  0  0  0  0  0  0  0  0  0  0
    4.0318    3.8255    1.5434 H   0  0  0  0  0  0  0  0  0  0  0  0
  1  2  1  0
  2  3  1  0
  3  4  1  0
  4  5  2  0
  4  6  1  0
  6  7  1  0
  7  8  1  0
  8  9  1  0
  9 10  1  0
 10 11  1  0
 11 12  2  0
 12 13  1  0
 13 14  1  0
 14 15  1  0
 15 16  1  0
 13 17  2  0
 17 18  1  0
  2 19  1  0
 19 20  1  0
 20 21  2  0
 21 22  1  0
 22 23  1  0
 22 24  2  0
 24 25  1  0
 24 26  1  0
 26 27  2  0
 27 28  1  0
 10  6  1  0
 18 11  1  0
 27 20  1  0
 16 14  1  0
  1 29  1  0
  1 30  1  0
  2 31  1  1
  3 32  1  0
  3 33  1  0
  7 34  1  0
  7 35  1  0
  8 36  1  0
  8 37  1  0
  9 38  1  0
  9 39  1  0
 10 40  1  6
 14 41  1  0
 15 42  1  0
 15 43  1  0
 16 44  1  0
 16 45  1  0
 19 46  1  0
 19 47  1  0
 21 48  1  0
 26 49  1  0
M  END
$$$$
