@<TRIPOS>MOLECULE
*****
 49 52 0 0 0
SMALL
GASTEIGER

@<TRIPOS>ATOM
      1 N           3.3799   -0.1004   -2.3966 N.3     1  UNL1       -0.3265
      2 C           2.1570    0.1015   -1.6431 C.3     1  UNL1        0.0172
      3 C           1.1021   -0.8942   -2.0910 C.3     1  UNL1        0.0396
      4 C          -0.1718   -0.6886   -1.3244 C.2     1  UNL1        0.2177
      5 O          -0.6350    0.4992   -1.4392 O.2     1  UNL1       -0.2755
      6 N          -0.7789   -1.6975   -0.5684 N.am    1  UNL1       -0.2897
      7 C          -0.2955   -3.0387   -0.3971 C.3     1  UNL1        0.0155
      8 C          -0.5789   -3.3076    1.0640 C.3     1  UNL1       -0.0350
      9 C          -1.5067   -2.2035    1.5284 C.3     1  UNL1       -0.0241
     10 C          -1.9929   -1.6265    0.1813 C.3     1  UNL1        0.1048
     11 C          -2.5656   -0.2909    0.3586 C.ar    1  UNL1        0.2479
     12 N          -3.8655    0.0816    0.1468 N.ar    1  UNL1       -0.1942
     13 C          -3.9870    1.3872    0.4211 C.ar    1  UNL1        0.1749
     14 C          -5.1886    2.2567    0.3459 C.3     1  UNL1        0.0223
     15 C          -6.4725    1.5512    0.7428 C.3     1  UNL1       -0.0426
     16 C          -6.2502    1.8677   -0.7024 C.3     1  UNL1       -0.0426
     17 N          -2.7699    1.8064    0.7978 N.ar    1  UNL1       -0.0610
     18 O          -1.9573    0.7868    0.7480 O.2     1  UNL1       -0.3361
     19 C           2.4970   -0.2146   -0.1983 C.3     1  UNL1       -0.0092
     20 C           3.5591    0.6461    0.3547 C.ar    1  UNL1       -0.0078
     21 C           4.8619    0.2305    0.5313 C.ar    1  UNL1       -0.0176
     22 C           5.8405    1.0628    1.0499 C.ar    1  UNL1        0.1588
     23 F           7.1134    0.6343    1.2124 F       1  UNL1       -0.2025
     24 C           5.5372    2.3618    1.4148 C.ar    1  UNL1        0.1611
     25 F           6.5000    3.1708    1.9226 F       1  UNL1       -0.2024
     26 C           4.2423    2.7908    1.2444 C.ar    1  UNL1        0.0119
     27 C           3.2767    1.9648    0.7304 C.ar    1  UNL1        0.1295
     28 F           2.0164    2.4320    0.5811 F       1  UNL1       -0.2051
     29 H           3.3517    0.4137   -3.2910 H       1  UNL1        0.1185
     30 H           4.2233    0.1719   -1.8371 H       1  UNL1        0.1185
     31 H           1.8564    1.1388   -1.7400 H       1  UNL1        0.0466
     32 H           0.8567   -0.6165   -3.1517 H       1  UNL1        0.0374
     33 H           1.4391   -1.9204   -2.1040 H       1  UNL1        0.0374
     34 H          -0.9394   -3.7056   -1.0318 H       1  UNL1        0.0465
     35 H           0.7784   -3.1605   -0.6452 H       1  UNL1        0.0465
     36 H           0.3810   -3.2798    1.6005 H       1  UNL1        0.0281
     37 H          -1.0148   -4.3165    1.2269 H       1  UNL1        0.0281
     38 H          -0.9343   -1.3451    1.9956 H       1  UNL1        0.0288
     39 H          -2.3359   -2.5460    2.1454 H       1  UNL1        0.0288
     40 H          -2.7312   -2.3462   -0.2476 H       1  UNL1        0.0599
     41 H          -5.0838    3.3269    0.5924 H       1  UNL1        0.0381
     42 H          -7.2827    2.1723    1.2127 H       1  UNL1        0.0272
     43 H          -6.4251    0.5052    1.0888 H       1  UNL1        0.0272
     44 H          -5.9729    0.9835   -1.3493 H       1  UNL1        0.0272
     45 H          -6.8203    2.6976   -1.1775 H       1  UNL1        0.0272
     46 H           2.8273   -1.2843   -0.1427 H       1  UNL1        0.0329
     47 H           1.5782   -0.1600    0.4310 H       1  UNL1        0.0329
     48 H           5.1494   -0.7626    0.2655 H       1  UNL1        0.0651
     49 H           4.0318    3.8255    1.5434 H       1  UNL1        0.0676
@<TRIPOS>BOND
     1     1     2    1
     2     2     3    1
     3     3     4    1
     4     4     5    2
     5     4     6   am
     6     6     7    1
     7     7     8    1
     8     8     9    1
     9     9    10    1
    10    10    11    1
    11    11    12   ar
    12    12    13   ar
    13    13    14    1
    14    14    15    1
    15    15    16    1
    16    13    17   ar
    17    17    18   ar
    18     2    19    1
    19    19    20    1
    20    20    21   ar
    21    21    22   ar
    22    22    23    1
    23    22    24   ar
    24    24    25    1
    25    24    26   ar
    26    26    27   ar
    27    27    28    1
    28    10     6    1
    29    18    11   ar
    30    27    20   ar
    31    16    14    1
    32     1    29    1
    33     1    30    1
    34     2    31    1
    35     3    32    1
    36     3    33    1
    37     7    34    1
    38     7    35    1
    39     8    36    1
    40     8    37    1
    41     9    38    1
    42     9    39    1
    43    10    40    1
    44    14    41    1
    45    15    42    1
    46    15    43    1
    47    16    44    1
    48    16    45    1
    49    19    46    1
    50    19    47    1
    51    21    48    1
    52    26    49    1
