@<TRIPOS>MOLECULE
*****
 23 23 0 0 0
SMALL
GASTEIGER

@<TRIPOS>ATOM
      1 N           3.4871   -0.0850   -0.1252 N.3     1  UNL1       -0.3288
      2 C           2.0858   -0.1626   -0.5706 C.3     1  UNL1        0.0059
      3 C           1.1561    0.0690    0.5984 C.3     1  UNL1        0.0114
      4 N          -0.1753    0.0198    0.2003 N.3     1  UNL1       -0.2968
      5 C          -0.7682   -1.2035   -0.2129 C.3     1  UNL1        0.0225
      6 C          -2.2891   -1.1641   -0.1477 C.3     1  UNL1        0.0604
      7 O          -2.7676    0.0766    0.2238 O.3     1  UNL1       -0.3772
      8 C          -2.2352    1.1504   -0.4587 C.3     1  UNL1        0.0604
      9 C          -0.7327    1.1908   -0.3943 C.3     1  UNL1        0.0225
     10 H           3.6895    0.9183    0.0890 H       1  UNL1        0.1183
     11 H           4.0996   -0.4557   -0.8885 H       1  UNL1        0.1183
     12 H           1.8409   -1.1541   -1.0045 H       1  UNL1        0.0434
     13 H           1.9300    0.6659   -1.2964 H       1  UNL1        0.0434
     14 H           1.3550   -0.6866    1.3911 H       1  UNL1        0.0439
     15 H           1.4345    1.0588    1.0325 H       1  UNL1        0.0439
     16 H          -0.3204   -2.0424    0.3380 H       1  UNL1        0.0449
     17 H          -0.5319   -1.3564   -1.2860 H       1  UNL1        0.0449
     18 H          -2.7766   -1.5922   -1.0431 H       1  UNL1        0.0572
     19 H          -2.5664   -1.8553    0.6961 H       1  UNL1        0.0572
     20 H          -2.5831    2.0691    0.0656 H       1  UNL1        0.0572
     21 H          -2.6418    1.2350   -1.4915 H       1  UNL1        0.0572
     22 H          -0.3703    1.2249   -1.4457 H       1  UNL1        0.0449
     23 H          -0.3198    2.0795    0.1156 H       1  UNL1        0.0449
@<TRIPOS>BOND
     1     1     2    1
     2     2     3    1
     3     3     4    1
     4     4     5    1
     5     5     6    1
     6     6     7    1
     7     7     8    1
     8     8     9    1
     9     9     4    1
    10     1    10    1
    11     1    11    1
    12     2    12    1
    13     2    13    1
    14     3    14    1
    15     3    15    1
    16     5    16    1
    17     5    17    1
    18     6    18    1
    19     6    19    1
    20     8    20    1
    21     8    21    1
    22     9    22    1
    23     9    23    1
