@<TRIPOS>MOLECULE
*****
 40 42 0 0 0
SMALL
GASTEIGER

@<TRIPOS>ATOM
      1 C          -4.3609   -3.0011    0.5587 C.3     1  UNL1       -0.0397
      2 C          -3.4984   -1.8087    0.3891 C.ar    1  UNL1       -0.0504
      3 C          -2.4786   -1.7719   -0.5659 C.ar    1  UNL1       -0.0582
      4 C          -1.6962   -0.6459   -0.6953 C.ar    1  UNL1       -0.0523
      5 C          -1.8758    0.4771    0.0934 C.ar    1  UNL1        0.0005
      6 C          -1.0435    1.6382   -0.0644 C.ar    1  UNL1        0.0752
      7 C          -1.5137    2.9417   -0.1014 C.ar    1  UNL1       -0.0039
      8 C          -0.4403    3.8084   -0.2644 C.ar    1  UNL1        0.1662
      9 C          -0.4489    5.2780   -0.3582 C.3     1  UNL1        0.4360
     10 F          -1.5998    5.7547    0.2396 F       1  UNL1       -0.1644
     11 F           0.6193    5.8363    0.3278 F       1  UNL1       -0.1644
     12 F          -0.3467    5.7028   -1.6663 F       1  UNL1       -0.1644
     13 N           0.6346    3.0363   -0.3220 N.ar    1  UNL1       -0.1618
     14 N           0.2826    1.7476   -0.2039 N.ar    1  UNL1       -0.2316
     15 C           1.1971    0.7022   -0.2279 C.ar    1  UNL1        0.0661
     16 C           1.8333    0.3483   -1.3872 C.ar    1  UNL1       -0.0344
     17 C           2.7359   -0.6931   -1.3810 C.ar    1  UNL1       -0.0334
     18 C           3.0227   -1.4001   -0.2285 C.ar    1  UNL1        0.1051
     19 S           4.1784   -2.7132   -0.2833 S.O2    1  UNL1        0.0559
     20 N           5.7767   -2.1093    0.0408 N.3     1  UNL1       -0.2035
     21 O           4.2248   -3.3303   -1.6565 O.2     1  UNL1       -0.1533
     22 O           3.8568   -3.7421    0.7639 O.2     1  UNL1       -0.1533
     23 C           2.3834   -1.0466    0.9426 C.ar    1  UNL1       -0.0334
     24 C           1.4806    0.0021    0.9155 C.ar    1  UNL1       -0.0344
     25 C          -2.8988    0.3928    1.0254 C.ar    1  UNL1       -0.0523
     26 C          -3.6867   -0.7137    1.1708 C.ar    1  UNL1       -0.0582
     27 H          -4.5696   -3.1104    1.6388 H       1  UNL1        0.0278
     28 H          -5.3179   -2.8054    0.0570 H       1  UNL1        0.0278
     29 H          -3.8966   -3.9276    0.1365 H       1  UNL1        0.0278
     30 H          -2.3385   -2.6395   -1.1766 H       1  UNL1        0.0620
     31 H          -0.9050   -0.6060   -1.4301 H       1  UNL1        0.0624
     32 H          -2.5334    3.2964   -0.0224 H       1  UNL1        0.0660
     33 H           1.6357    0.8706   -2.2886 H       1  UNL1        0.0639
     34 H           3.2622   -1.0012   -2.2933 H       1  UNL1        0.0638
     35 H           6.4630   -2.7347   -0.4436 H       1  UNL1        0.1442
     36 H           5.8579   -1.1804   -0.4592 H       1  UNL1        0.1442
     37 H           2.5867   -1.5871    1.8804 H       1  UNL1        0.0638
     38 H           0.9937    0.2508    1.8700 H       1  UNL1        0.0639
     39 H          -3.0826    1.2422    1.6679 H       1  UNL1        0.0624
     40 H          -4.4933   -0.7582    1.9178 H       1  UNL1        0.0620
@<TRIPOS>BOND
     1     1     2    1
     2     2     3   ar
     3     3     4   ar
     4     4     5   ar
     5     5     6    1
     6     6     7   ar
     7     7     8   ar
     8     8     9    1
     9     9    10    1
    10     9    11    1
    11     9    12    1
    12     8    13   ar
    13    13    14   ar
    14    14    15    1
    15    15    16   ar
    16    16    17   ar
    17    17    18   ar
    18    18    19    1
    19    19    20    1
    20    19    21    2
    21    19    22    2
    22    18    23   ar
    23    23    24   ar
    24     5    25   ar
    25    25    26   ar
    26    26     2   ar
    27    14     6   ar
    28    24    15   ar
    29     1    27    1
    30     1    28    1
    31     1    29    1
    32     3    30    1
    33     4    31    1
    34     7    32    1
    35    16    33    1
    36    17    34    1
    37    20    35    1
    38    20    36    1
    39    23    37    1
    40    24    38    1
    41    25    39    1
    42    26    40    1
