@<TRIPOS>MOLECULE
*****
 22 22 0 0 0
SMALL
GASTEIGER

@<TRIPOS>ATOM
      1 C          -1.7975   -0.8883    0.0084 C.3     1  UNL1        0.1553
      2 O          -1.4490   -1.6588   -1.0784 O.3     1  UNL1       -0.3803
      3 C          -0.6803   -0.7233    1.0078 C.3     1  UNL1        0.0089
      4 C           0.5135   -0.0722    0.4106 C.ar    1  UNL1       -0.0444
      5 C           0.7335    1.2906    0.3859 C.ar    1  UNL1       -0.0585
      6 C           1.8978    1.7945   -0.2055 C.ar    1  UNL1       -0.0615
      7 C           2.8199    0.9304   -0.7605 C.ar    1  UNL1       -0.0617
      8 C           2.6516   -0.4402   -0.7641 C.ar    1  UNL1       -0.0615
      9 C           1.4807   -0.8791   -0.1647 C.ar    1  UNL1       -0.0585
     10 C          -2.4019    0.3715   -0.4424 C.2     1  UNL1        0.3340
     11 O          -2.6696    0.8943   -1.7139 O.3     1  UNL1       -0.4788
     12 O          -2.8131    1.2631    0.3120 O.2     1  UNL1       -0.2481
     13 H          -2.6097   -1.4458    0.5349 H       1  UNL1        0.0713
     14 H          -1.0406   -2.5071   -0.7882 H       1  UNL1        0.2105
     15 H          -0.4175   -1.7429    1.3588 H       1  UNL1        0.0344
     16 H          -1.0769   -0.1974    1.8902 H       1  UNL1        0.0344
     17 H          -0.0012    1.9307    0.8248 H       1  UNL1        0.0620
     18 H           2.0800    2.8592   -0.2303 H       1  UNL1        0.0618
     19 H           3.7344    1.2988   -1.2269 H       1  UNL1        0.0618
     20 H           3.3452   -1.1554   -1.1861 H       1  UNL1        0.0618
     21 H           1.3245   -1.9616   -0.1550 H       1  UNL1        0.0620
     22 H          -3.6241    1.0389   -2.0405 H       1  UNL1        0.2951
@<TRIPOS>BOND
     1     1     2    1
     2     1     3    1
     3     3     4    1
     4     4     5   ar
     5     5     6   ar
     6     6     7   ar
     7     7     8   ar
     8     8     9   ar
     9     1    10    1
    10    10    11    1
    11    10    12    2
    12     9     4   ar
    13     1    13    1
    14     2    14    1
    15     3    15    1
    16     3    16    1
    17     5    17    1
    18     6    18    1
    19     7    19    1
    20     8    20    1
    21     9    21    1
    22    11    22    1
