@<TRIPOS>MOLECULE
*****
 39 41 0 0 0
SMALL
GASTEIGER

@<TRIPOS>ATOM
      1 C           5.0838   -0.7973   -0.1882 C.3     1  UNL1        0.0120
      2 N           4.4497    0.3866    0.3606 N.ar    1  UNL1       -0.3461
      3 C           5.0655    1.5859    0.4570 C.ar    1  UNL1        0.0050
      4 C           4.2037    2.5085    1.0234 C.ar    1  UNL1       -0.0435
      5 C           3.0250    1.7984    1.2664 C.ar    1  UNL1       -0.0317
      6 C           3.1898    0.5046    0.8569 C.ar    1  UNL1        0.1043
      7 C           2.2730   -0.6292    0.8919 C.2     1  UNL1        0.2634
      8 O           2.6300   -1.5968    1.6189 O.2     1  UNL1       -0.2684
      9 N           1.0648   -0.6408    0.1587 N.am    1  UNL1       -0.2917
     10 C           0.7286    0.4940   -0.6513 C.3     1  UNL1        0.0194
     11 C          -0.5881    0.3667   -1.3693 C.3     1  UNL1       -0.0115
     12 C          -1.6212   -0.3282   -0.5813 C.ar    1  UNL1       -0.0405
     13 C          -2.9361    0.0735   -0.6398 C.ar    1  UNL1       -0.0460
     14 C          -3.9132   -0.5604    0.0769 C.ar    1  UNL1        0.0390
     15 C          -5.3260   -0.1724    0.0732 C.2     1  UNL1        0.2665
     16 O          -6.2013   -0.8257    0.6877 O.2     1  UNL1       -0.2681
     17 N          -5.7601    0.9681   -0.6334 N.am    1  UNL1       -0.1935
     18 O          -7.0888    1.3401   -0.6394 O.3     1  UNL1       -0.2949
     19 C          -3.5121   -1.6404    0.8750 C.ar    1  UNL1       -0.0492
     20 C          -2.1983   -2.0434    0.9350 C.ar    1  UNL1       -0.0561
     21 C          -1.2241   -1.4033    0.2149 C.ar    1  UNL1       -0.0268
     22 C           0.2108   -1.8136    0.2703 C.3     1  UNL1        0.0403
     23 H           4.4295   -1.6570   -0.0025 H       1  UNL1        0.0456
     24 H           5.1773   -0.6673   -1.2774 H       1  UNL1        0.0456
     25 H           6.0683   -0.8805    0.3210 H       1  UNL1        0.0456
     26 H           6.0857    1.7752    0.1311 H       1  UNL1        0.0809
     27 H           4.4198    3.5385    1.2194 H       1  UNL1        0.0633
     28 H           2.1329    2.2142    1.7126 H       1  UNL1        0.0640
     29 H           0.7363    1.4020   -0.0205 H       1  UNL1        0.0468
     30 H           1.5117    0.6006   -1.4452 H       1  UNL1        0.0468
     31 H          -0.9236    1.4070   -1.6001 H       1  UNL1        0.0328
     32 H          -0.4335   -0.1144   -2.3737 H       1  UNL1        0.0328
     33 H          -3.2070    0.9052   -1.2644 H       1  UNL1        0.0628
     34 H          -5.0799    1.5481   -1.1599 H       1  UNL1        0.1825
     35 H          -7.0938    2.1859   -0.0928 H       1  UNL1        0.2414
     36 H          -4.3004   -2.1425    1.4443 H       1  UNL1        0.0625
     37 H          -1.9226   -2.8830    1.5630 H       1  UNL1        0.0621
     38 H           0.4601   -2.5441   -0.5135 H       1  UNL1        0.0514
     39 H           0.3835   -2.2627    1.2687 H       1  UNL1        0.0514
@<TRIPOS>BOND
     1     1     2    1
     2     2     3   ar
     3     3     4   ar
     4     4     5   ar
     5     5     6   ar
     6     6     7    1
     7     7     8    2
     8     7     9   am
     9     9    10    1
    10    10    11    1
    11    11    12    1
    12    12    13   ar
    13    13    14   ar
    14    14    15    1
    15    15    16    2
    16    15    17   am
    17    17    18    1
    18    14    19   ar
    19    19    20   ar
    20    20    21   ar
    21    21    22    1
    22     6     2   ar
    23    22     9    1
    24    21    12   ar
    25     1    23    1
    26     1    24    1
    27     1    25    1
    28     3    26    1
    29     4    27    1
    30     5    28    1
    31    10    29    1
    32    10    30    1
    33    11    31    1
    34    11    32    1
    35    13    33    1
    36    17    34    1
    37    18    35    1
    38    19    36    1
    39    20    37    1
    40    22    38    1
    41    22    39    1
