@<TRIPOS>MOLECULE
*****
 52 54 0 0 0
SMALL
GASTEIGER

@<TRIPOS>ATOM
      1 C           1.0845    2.0549    1.0682 C.3     1  UNL1       -0.0240
      2 C           1.2386    0.6458    0.6450 C.ar    1  UNL1        0.0228
      3 C           2.3257    0.3403   -0.1869 C.ar    1  UNL1        0.0006
      4 C           2.5913   -0.9367   -0.6229 C.ar    1  UNL1        0.1418
      5 O           3.5828   -1.2618   -1.3918 O.3     1  UNL1       -0.4859
      6 C           4.6555   -1.1516   -2.1277 C.3     1  UNL1        0.1173
      7 C           5.8209   -0.6416   -1.3200 C.ar    1  UNL1        0.0250
      8 C           6.6788   -1.5624   -0.7697 C.ar    1  UNL1       -0.0499
      9 C           7.7123   -1.1074    0.0147 C.ar    1  UNL1       -0.0259
     10 C           7.9184    0.2437    0.2697 C.ar    1  UNL1        0.1261
     11 F           8.9647    0.6428    1.0617 F       1  UNL1       -0.2054
     12 C           7.0378    1.1314   -0.3009 C.ar    1  UNL1        0.0092
     13 C           5.9868    0.6776   -1.1010 C.ar    1  UNL1        0.1325
     14 F           5.2074    1.6545   -1.6393 F       1  UNL1       -0.2050
     15 C           1.6744   -1.9057   -0.1586 C.ar    1  UNL1        0.1238
     16 BR          1.9594   -3.7011   -0.7129 Br      1  UNL1       -0.0409
     17 C           0.6211   -1.5776    0.6540 C.ar    1  UNL1        0.2694
     18 O          -0.1534   -2.5158    1.0238 O.2     1  UNL1       -0.2663
     19 N           0.4030   -0.2906    1.0577 N.ar    1  UNL1       -0.3072
     20 C          -0.7095   -0.0926    1.9296 C.3     1  UNL1        0.0514
     21 C          -1.9613    0.0293    1.1425 C.ar    1  UNL1       -0.0276
     22 C          -2.8881   -1.0281    1.1487 C.ar    1  UNL1       -0.0562
     23 C          -4.0524   -0.9689    0.4304 C.ar    1  UNL1       -0.0493
     24 C          -4.3693    0.1343   -0.3328 C.ar    1  UNL1        0.0369
     25 C          -5.6474    0.1105   -1.0561 C.2     1  UNL1        0.2461
     26 O          -5.6501   -0.0518   -2.2951 O.2     1  UNL1       -0.2700
     27 N          -6.8766    0.2655   -0.3817 N.am    1  UNL1       -0.3036
     28 C          -6.8634    0.4683    1.0513 C.3     1  UNL1        0.0031
     29 C          -8.1159    0.2096   -1.0896 C.3     1  UNL1        0.0031
     30 C          -3.4827    1.1774   -0.3544 C.ar    1  UNL1       -0.0493
     31 C          -2.2864    1.1187    0.3816 C.ar    1  UNL1       -0.0562
     32 H           2.0606    2.3679    1.5391 H       1  UNL1        0.0292
     33 H           0.9667    2.6565    0.1189 H       1  UNL1        0.0292
     34 H           0.2521    2.2723    1.7252 H       1  UNL1        0.0292
     35 H           2.9760    1.1441   -0.4990 H       1  UNL1        0.0672
     36 H           5.0030   -2.1570   -2.5568 H       1  UNL1        0.0749
     37 H           4.5937   -0.4706   -3.0362 H       1  UNL1        0.0749
     38 H           6.5520   -2.6404   -0.9461 H       1  UNL1        0.0623
     39 H           8.4158   -1.8141    0.4704 H       1  UNL1        0.0646
     40 H           7.1603    2.2034   -0.1252 H       1  UNL1        0.0675
     41 H          -0.8380   -0.9970    2.6056 H       1  UNL1        0.0542
     42 H          -0.6357    0.7510    2.6285 H       1  UNL1        0.0542
     43 H          -2.6555   -1.8840    1.7459 H       1  UNL1        0.0621
     44 H          -4.7497   -1.8001    0.4516 H       1  UNL1        0.0625
     45 H          -5.8955    0.8503    1.4269 H       1  UNL1        0.0428
     46 H          -7.0341   -0.5140    1.5743 H       1  UNL1        0.0428
     47 H          -7.7116    1.1388    1.3670 H       1  UNL1        0.0428
     48 H          -8.4489    1.2129   -1.4669 H       1  UNL1        0.0428
     49 H          -8.1038   -0.4647   -1.9784 H       1  UNL1        0.0428
     50 H          -8.9517   -0.1848   -0.4523 H       1  UNL1        0.0428
     51 H          -3.7290    2.0484   -0.9540 H       1  UNL1        0.0625
     52 H          -1.6337    1.9778    0.3238 H       1  UNL1        0.0621
@<TRIPOS>BOND
     1     1     2    1
     2     2     3   ar
     3     3     4   ar
     4     4     5    1
     5     5     6    1
     6     6     7    1
     7     7     8   ar
     8     8     9   ar
     9     9    10   ar
    10    10    11    1
    11    10    12   ar
    12    12    13   ar
    13    13    14    1
    14     4    15   ar
    15    15    16    1
    16    15    17   ar
    17    17    18    2
    18    17    19   ar
    19    19    20    1
    20    20    21    1
    21    21    22   ar
    22    22    23   ar
    23    23    24   ar
    24    24    25    1
    25    25    26    2
    26    25    27   am
    27    27    28    1
    28    27    29    1
    29    24    30   ar
    30    30    31   ar
    31    19     2   ar
    32    31    21   ar
    33    13     7   ar
    34     1    32    1
    35     1    33    1
    36     1    34    1
    37     3    35    1
    38     6    36    1
    39     6    37    1
    40     8    38    1
    41     9    39    1
    42    12    40    1
    43    20    41    1
    44    20    42    1
    45    22    43    1
    46    23    44    1
    47    28    45    1
    48    28    46    1
    49    28    47    1
    50    29    48    1
    51    29    49    1
    52    29    50    1
    53    30    51    1
    54    31    52    1
