@<TRIPOS>MOLECULE
*****
 39 41 0 0 0
SMALL
GASTEIGER

@<TRIPOS>ATOM
      1 C          -3.8236    3.2393    0.2883 C.3     1  UNL1       -0.0224
      2 C          -3.2029    1.9073    0.1602 C.ar    1  UNL1        0.0382
      3 N          -2.4501    1.5376   -0.8884 N.ar    1  UNL1       -0.2595
      4 C          -1.9155    0.2853   -0.9236 C.ar    1  UNL1        0.0370
      5 C          -2.1341   -0.6241    0.1098 C.ar    1  UNL1        0.0190
      6 C          -2.9064   -0.2729    1.2058 C.ar    1  UNL1       -0.0494
      7 C          -3.4219    1.0163    1.1811 C.ar    1  UNL1       -0.0400
      8 C          -1.5041   -1.9296   -0.0555 C.ar    1  UNL1        0.0802
      9 C          -0.1588   -2.2120   -0.1428 C.ar    1  UNL1        0.0095
     10 C           0.2668   -3.5081   -0.2985 C.ar    1  UNL1       -0.0321
     11 C          -0.7181   -4.4867   -0.3604 C.ar    1  UNL1        0.0596
     12 CL         -0.1372   -6.1382   -0.5606 Cl      1  UNL1       -0.0820
     13 C          -2.0480   -4.2152   -0.2749 C.ar    1  UNL1        0.0466
     14 N          -2.4234   -2.9240   -0.1219 N.ar    1  UNL1       -0.2529
     15 C           0.7269   -1.0597   -0.0588 C.ar    1  UNL1       -0.0157
     16 C           0.8441   -0.2239    1.0318 C.ar    1  UNL1       -0.0522
     17 C           1.7137    0.8504    1.0254 C.ar    1  UNL1       -0.0363
     18 C           2.4695    1.0693   -0.1091 C.ar    1  UNL1        0.0879
     19 C           2.3838    0.2490   -1.2370 C.ar    1  UNL1       -0.0363
     20 C           1.4996   -0.8054   -1.1710 C.ar    1  UNL1       -0.0522
     21 S           3.6185    2.4086   -0.2323 S.O2    1  UNL1       -0.0059
     22 C           5.2109    1.8467    0.3301 C.3     1  UNL1        0.0596
     23 O           3.6418    2.8818   -1.6348 O.2     1  UNL1       -0.1696
     24 O           3.2220    3.5410    0.6683 O.2     1  UNL1       -0.1696
     25 H          -3.5649    3.9020   -0.5731 H       1  UNL1        0.0292
     26 H          -3.5495    3.6813    1.2682 H       1  UNL1        0.0292
     27 H          -4.9398    3.1661    0.2696 H       1  UNL1        0.0292
     28 H          -1.3252    0.0650   -1.7964 H       1  UNL1        0.0836
     29 H          -3.0506   -0.9980    1.9776 H       1  UNL1        0.0625
     30 H          -4.0291    1.2737    2.0556 H       1  UNL1        0.0636
     31 H           1.3271   -3.6992   -0.3644 H       1  UNL1        0.0639
     32 H          -2.7885   -5.0171   -0.3284 H       1  UNL1        0.0844
     33 H           0.2267   -0.4424    1.8956 H       1  UNL1        0.0624
     34 H           1.8159    1.5125    1.8713 H       1  UNL1        0.0637
     35 H           2.9752    0.4243   -2.1179 H       1  UNL1        0.0637
     36 H           1.4433   -1.4304   -2.0479 H       1  UNL1        0.0624
     37 H           5.1466    0.7723    0.6423 H       1  UNL1        0.0468
     38 H           5.5999    2.4099    1.1809 H       1  UNL1        0.0468
     39 H           5.9595    1.9476   -0.4999 H       1  UNL1        0.0468
@<TRIPOS>BOND
     1     1     2    1
     2     2     3   ar
     3     3     4   ar
     4     4     5   ar
     5     5     6   ar
     6     6     7   ar
     7     5     8    1
     8     8     9   ar
     9     9    10   ar
    10    10    11   ar
    11    11    12    1
    12    11    13   ar
    13    13    14   ar
    14     9    15    1
    15    15    16   ar
    16    16    17   ar
    17    17    18   ar
    18    18    19   ar
    19    19    20   ar
    20    18    21    1
    21    21    22    1
    22    21    23    2
    23    21    24    2
    24     7     2   ar
    25    14     8   ar
    26    20    15   ar
    27     1    25    1
    28     1    26    1
    29     1    27    1
    30     4    28    1
    31     6    29    1
    32     7    30    1
    33    10    31    1
    34    13    32    1
    35    16    33    1
    36    17    34    1
    37    19    35    1
    38    20    36    1
    39    22    37    1
    40    22    38    1
    41    22    39    1
