
     RDKit          3D

 38 39  0  0  0  0  0  0  0  0999 V2000
   -2.6411    0.7959    1.7091 C   0  0  0  0  0  0  0  0  0  0  0  0
   -3.3039    0.4895    0.3982 C   0  0  0  0  0  0  0  0  0  0  0  0
   -4.2112   -0.7017    0.5005 C   0  0  0  0  0  0  0  0  0  0  0  0
   -4.1704    1.7128    0.0772 C   0  0  0  0  0  0  0  0  0  0  0  0
   -2.3473    0.3923   -0.6423 O   0  0  0  0  0  0  0  0  0  0  0  0
   -1.3065   -0.5259   -0.6560 C   0  0  0  0  0  0  0  0  0  0  0  0
   -1.3888   -1.2248    0.4069 O   0  0  0  0  0  0  0  0  0  0  0  0
   -0.3552   -0.6071   -1.7119 N   0  0  0  0  0  0  0  0  0  0  0  0
    0.6461   -1.6207   -1.5459 C   0  0  0  0  0  0  0  0  0  0  0  0
    1.8540   -1.3858   -0.9024 C   0  0  0  0  0  0  0  0  0  0  0  0
    2.7774   -2.3609   -0.7616 N   0  0  0  0  0  0  0  0  0  0  0  0
    2.5371   -3.6094   -1.2551 C   0  0  0  0  0  0  0  0  0  0  0  0
    1.3543   -3.8972   -1.9028 C   0  0  0  0  0  0  0  0  0  0  0  0
    0.4168   -2.9042   -2.0449 C   0  0  0  0  0  0  0  0  0  0  0  0
    2.1028   -0.0324   -0.3729 C   0  0  0  0  0  0  0  0  0  0  0  0
    1.1899    0.8099   -0.5491 O   0  0  0  0  0  0  0  0  0  0  0  0
    3.3341    0.2299    0.2901 N   0  0  0  0  0  0  0  0  0  0  0  0
    3.7398    1.4731    0.8603 C   0  0  0  0  0  0  0  0  0  0  0  0
    4.3225    2.4128    0.4510 N   0  0  0  0  0  0  0  0  0  0  0  0
    4.6126    3.5019    1.1492 C   0  0  0  0  0  0  0  0  0  0  0  0
    4.2095    3.5641    2.4668 C   0  0  0  0  0  0  0  0  0  0  0  0
    3.3726    1.9346    2.6481 S   0  0  0  0  0  0  0  0  0  0  0  0
   -2.3347   -0.1181    2.2367 H   0  0  0  0  0  0  0  0  0  0  0  0
   -1.7717    1.4516    1.4936 H   0  0  0  0  0  0  0  0  0  0  0  0
   -3.3642    1.3922    2.3362 H   0  0  0  0  0  0  0  0  0  0  0  0
   -4.3164   -1.2698   -0.4345 H   0  0  0  0  0  0  0  0  0  0  0  0
   -5.2200   -0.3520    0.8097 H   0  0  0  0  0  0  0  0  0  0  0  0
   -3.8737   -1.3563    1.3485 H   0  0  0  0  0  0  0  0  0  0  0  0
   -5.1661    1.5424    0.5505 H   0  0  0  0  0  0  0  0  0  0  0  0
   -3.6889    2.6452    0.4500 H   0  0  0  0  0  0  0  0  0  0  0  0
   -4.2978    1.7243   -1.0070 H   0  0  0  0  0  0  0  0  0  0  0  0
   -0.4788    0.0767   -2.5014 H   0  0  0  0  0  0  0  0  0  0  0  0
    3.3500   -4.3080   -1.0825 H   0  0  0  0  0  0  0  0  0  0  0  0
    1.2748   -4.9135   -2.2496 H   0  0  0  0  0  0  0  0  0  0  0  0
   -0.4920   -3.1701   -2.5562 H   0  0  0  0  0  0  0  0  0  0  0  0
    4.0769   -0.4824    0.4253 H   0  0  0  0  0  0  0  0  0  0  0  0
    5.1645    4.3030    0.6323 H   0  0  0  0  0  0  0  0  0  0  0  0
    4.3931    4.3878    3.1037 H   0  0  0  0  0  0  0  0  0  0  0  0
  1  2  1  0
  2  3  1  0
  2  4  1  0
  2  5  1  0
  5  6  1  0
  6  7  2  0
  6  8  1  0
  8  9  1  0
  9 10  2  0
 10 11  1  0
 11 12  2  0
 12 13  1  0
 13 14  2  0
 10 15  1  0
 15 16  2  0
 15 17  1  0
 17 18  1  0
 18 19  2  0
 19 20  1  0
 20 21  2  0
 21 22  1  0
 14  9  1  0
 22 18  1  0
  1 23  1  0
  1 24  1  0
  1 25  1  0
  3 26  1  0
  3 27  1  0
  3 28  1  0
  4 29  1  0
  4 30  1  0
  4 31  1  0
  8 32  1  0
 12 33  1  0
 13 34  1  0
 14 35  1  0
 17 36  1  0
 20 37  1  0
 21 38  1  0
M  END
$$$$
