@<TRIPOS>MOLECULE
*****
 68 73 0 0 0
SMALL
GASTEIGER

@<TRIPOS>ATOM
      1 C          -6.5878    1.7057    1.6395 C.3     1  UNL1        0.0032
      2 N          -7.3527    1.0282    0.5970 N.am    1  UNL1       -0.3024
      3 C          -8.7614    0.7915    0.7917 C.3     1  UNL1        0.0032
      4 C          -6.7180    0.6036   -0.5951 C.2     1  UNL1        0.2627
      5 O          -7.4383    0.0271   -1.4666 O.2     1  UNL1       -0.2684
      6 C          -5.3001    0.8486   -0.7612 C.ar    1  UNL1        0.1070
      7 C          -4.7561    2.1209   -0.9696 C.ar    1  UNL1       -0.0209
      8 C          -3.4073    1.9304   -1.1229 C.ar    1  UNL1        0.0378
      9 C          -2.3476    2.7989   -1.3933 C.ar    1  UNL1        0.0419
     10 N          -1.1215    2.2832   -1.5362 N.ar    1  UNL1       -0.2219
     11 C          -0.8580    0.9738   -1.4341 C.ar    1  UNL1        0.2224
     12 N           0.3907    0.3905   -1.7110 N.pl3   1  UNL1       -0.2684
     13 C           1.5523    0.4349   -0.9567 C.ar    1  UNL1        0.1251
     14 C           2.6526   -0.2664   -1.4599 C.ar    1  UNL1       -0.0197
     15 C           3.8452   -0.2429   -0.7854 C.ar    1  UNL1       -0.0355
     16 C           4.0169    0.4528    0.3890 C.ar    1  UNL1        0.0545
     17 N           5.2948    0.4297    0.9638 N.am    1  UNL1       -0.2697
     18 C           6.3155    1.4358    0.6459 C.3     1  UNL1        0.0241
     19 C           7.6352    0.8352    0.3042 C.3     1  UNL1       -0.0079
     20 C           7.7254    0.4380   -1.1501 C.3     1  UNL1        0.0005
     21 N           7.8400   -1.0015   -1.1373 N.3     1  UNL1       -0.3154
     22 C           8.6501   -1.2659    0.0262 C.3     1  UNL1       -0.0005
     23 C           8.0824   -0.3275    1.0913 C.3     1  UNL1       -0.0148
     24 C           7.0948   -1.0724    1.8842 C.3     1  UNL1        0.0288
     25 C           5.7172   -0.5744    1.8846 C.2     1  UNL1        0.2201
     26 O           4.8969   -1.0352    2.7017 O.2     1  UNL1       -0.2752
     27 C           2.9317    1.1250    0.8576 C.ar    1  UNL1        0.0511
     28 N           1.7382    1.0996    0.1808 N.ar    1  UNL1       -0.2383
     29 N          -1.9078    0.1412   -1.1620 N.ar    1  UNL1       -0.1962
     30 C          -3.1465    0.6086   -1.0120 C.ar    1  UNL1        0.1466
     31 N          -4.3493   -0.0639   -0.7817 N.ar    1  UNL1       -0.3180
     32 C          -4.2940   -1.4595   -0.5996 C.3     1  UNL1        0.0366
     33 C          -5.4580   -2.2826   -0.3930 C.3     1  UNL1       -0.0320
     34 C          -5.7359   -2.2383    1.0938 C.3     1  UNL1       -0.0511
     35 C          -4.3286   -2.3617    1.6560 C.3     1  UNL1       -0.0511
     36 C          -3.4041   -1.8285    0.6088 C.3     1  UNL1       -0.0320
     37 H          -7.1557    1.6298    2.6037 H       1  UNL1        0.0428
     38 H          -6.4714    2.8020    1.3803 H       1  UNL1        0.0428
     39 H          -5.5985    1.2369    1.8226 H       1  UNL1        0.0428
     40 H          -9.2068    1.4944    1.5560 H       1  UNL1        0.0428
     41 H          -9.2980    0.9230   -0.1902 H       1  UNL1        0.0428
     42 H          -8.9244   -0.2581    1.0656 H       1  UNL1        0.0428
     43 H          -5.2618    3.0505   -1.0043 H       1  UNL1        0.0647
     44 H          -2.4967    3.8458   -1.4861 H       1  UNL1        0.0838
     45 H           0.4056   -0.1502   -2.6423 H       1  UNL1        0.1564
     46 H           2.5440   -0.8259   -2.3890 H       1  UNL1        0.0652
     47 H           4.6643   -0.8185   -1.2390 H       1  UNL1        0.0638
     48 H           6.3436    2.2495    1.3954 H       1  UNL1        0.0472
     49 H           5.9409    1.9176   -0.3061 H       1  UNL1        0.0472
     50 H           8.3937    1.6677    0.4402 H       1  UNL1        0.0332
     51 H           8.6587    0.8356   -1.6337 H       1  UNL1        0.0427
     52 H           6.8965    0.8306   -1.7510 H       1  UNL1        0.0427
     53 H           8.3026   -1.2892   -2.0252 H       1  UNL1        0.1220
     54 H           9.7251   -1.0575   -0.1521 H       1  UNL1        0.0427
     55 H           8.4630   -2.3300    0.2997 H       1  UNL1        0.0427
     56 H           8.9849   -0.0675    1.7246 H       1  UNL1        0.0321
     57 H           7.0442   -2.1674    1.5919 H       1  UNL1        0.0362
     58 H           7.4285   -1.1065    2.9607 H       1  UNL1        0.0362
     59 H           3.0212    1.6864    1.7787 H       1  UNL1        0.0849
     60 H          -3.7069   -1.8761   -1.4819 H       1  UNL1        0.0528
     61 H          -5.0888   -3.3768   -0.5246 H       1  UNL1        0.0285
     62 H          -6.3153   -2.2668   -1.0432 H       1  UNL1        0.0285
     63 H          -6.3418   -3.1289    1.3306 H       1  UNL1        0.0266
     64 H          -6.1642   -1.3175    1.4664 H       1  UNL1        0.0266
     65 H          -4.2350   -1.8442    2.6359 H       1  UNL1        0.0266
     66 H          -4.0985   -3.4420    1.7861 H       1  UNL1        0.0266
     67 H          -2.5691   -2.4666    0.3451 H       1  UNL1        0.0285
     68 H          -2.9911   -0.8622    0.9920 H       1  UNL1        0.0285
@<TRIPOS>BOND
     1     1     2    1
     2     2     3    1
     3     2     4   am
     4     4     5    2
     5     4     6    1
     6     6     7   ar
     7     7     8   ar
     8     8     9   ar
     9     9    10   ar
    10    10    11   ar
    11    11    12    1
    12    12    13    1
    13    13    14   ar
    14    14    15   ar
    15    15    16   ar
    16    16    17    1
    17    17    18    1
    18    18    19    1
    19    19    20    1
    20    20    21    1
    21    21    22    1
    22    22    23    1
    23    23    24    1
    24    24    25    1
    25    25    26    2
    26    16    27   ar
    27    27    28   ar
    28    11    29   ar
    29    29    30   ar
    30    30    31   ar
    31    31    32    1
    32    32    33    1
    33    33    34    1
    34    34    35    1
    35    35    36    1
    36    31     6   ar
    37    36    32    1
    38    30     8   ar
    39    28    13   ar
    40    25    17   am
    41    23    19    1
    42     1    37    1
    43     1    38    1
    44     1    39    1
    45     3    40    1
    46     3    41    1
    47     3    42    1
    48     7    43    1
    49     9    44    1
    50    12    45    1
    51    14    46    1
    52    15    47    1
    53    18    48    1
    54    18    49    1
    55    19    50    1
    56    20    51    1
    57    20    52    1
    58    21    53    1
    59    22    54    1
    60    22    55    1
    61    23    56    1
    62    24    57    1
    63    24    58    1
    64    27    59    1
    65    32    60    1
    66    33    61    1
    67    33    62    1
    68    34    63    1
    69    34    64    1
    70    35    65    1
    71    35    66    1
    72    36    67    1
    73    36    68    1
