
     RDKit          3D

 68 73  0  0  0  0  0  0  0  0999 V2000
   -6.5878    1.7057    1.6395 C   0  0  0  0  0  0  0  0  0  0  0  0
   -7.3527    1.0282    0.5970 N   0  0  0  0  0  0  0  0  0  0  0  0
   -8.7614    0.7915    0.7917 C   0  0  0  0  0  0  0  0  0  0  0  0
   -6.7180    0.6036   -0.5951 C   0  0  0  0  0  0  0  0  0  0  0  0
   -7.4383    0.0271   -1.4666 O   0  0  0  0  0  0  0  0  0  0  0  0
   -5.3001    0.8486   -0.7612 C   0  0  0  0  0  0  0  0  0  0  0  0
   -4.7561    2.1209   -0.9696 C   0  0  0  0  0  0  0  0  0  0  0  0
   -3.4073    1.9304   -1.1229 C   0  0  0  0  0  0  0  0  0  0  0  0
   -2.3476    2.7989   -1.3933 C   0  0  0  0  0  0  0  0  0  0  0  0
   -1.1215    2.2832   -1.5362 N   0  0  0  0  0  0  0  0  0  0  0  0
   -0.8580    0.9738   -1.4341 C   0  0  0  0  0  0  0  0  0  0  0  0
    0.3907    0.3905   -1.7110 N   0  0  0  0  0  0  0  0  0  0  0  0
    1.5523    0.4349   -0.9567 C   0  0  0  0  0  0  0  0  0  0  0  0
    2.6526   -0.2664   -1.4599 C   0  0  0  0  0  0  0  0  0  0  0  0
    3.8452   -0.2429   -0.7854 C   0  0  0  0  0  0  0  0  0  0  0  0
    4.0169    0.4528    0.3890 C   0  0  0  0  0  0  0  0  0  0  0  0
    5.2948    0.4297    0.9638 N   0  0  0  0  0  0  0  0  0  0  0  0
    6.3155    1.4358    0.6459 C   0  0  0  0  0  0  0  0  0  0  0  0
    7.6352    0.8352    0.3042 C   0  0  0  0  0  0  0  0  0  0  0  0
    7.7254    0.4380   -1.1501 C   0  0  0  0  0  0  0  0  0  0  0  0
    7.8400   -1.0015   -1.1373 N   0  0  0  0  0  0  0  0  0  0  0  0
    8.6501   -1.2659    0.0262 C   0  0  0  0  0  0  0  0  0  0  0  0
    8.0824   -0.3275    1.0913 C   0  0  0  0  0  0  0  0  0  0  0  0
    7.0948   -1.0724    1.8842 C   0  0  0  0  0  0  0  0  0  0  0  0
    5.7172   -0.5744    1.8846 C   0  0  0  0  0  0  0  0  0  0  0  0
    4.8969   -1.0352    2.7017 O   0  0  0  0  0  0  0  0  0  0  0  0
    2.9317    1.1250    0.8576 C   0  0  0  0  0  0  0  0  0  0  0  0
    1.7382    1.0996    0.1808 N   0  0  0  0  0  0  0  0  0  0  0  0
   -1.9078    0.1412   -1.1620 N   0  0  0  0  0  0  0  0  0  0  0  0
   -3.1465    0.6086   -1.0120 C   0  0  0  0  0  0  0  0  0  0  0  0
   -4.3493   -0.0639   -0.7817 N   0  0  0  0  0  0  0  0  0  0  0  0
   -4.2940   -1.4595   -0.5996 C   0  0  0  0  0  0  0  0  0  0  0  0
   -5.4580   -2.2826   -0.3930 C   0  0  0  0  0  0  0  0  0  0  0  0
   -5.7359   -2.2383    1.0938 C   0  0  0  0  0  0  0  0  0  0  0  0
   -4.3286   -2.3617    1.6560 C   0  0  0  0  0  0  0  0  0  0  0  0
   -3.4041   -1.8285    0.6088 C   0  0  0  0  0  0  0  0  0  0  0  0
   -7.1557    1.6298    2.6037 H   0  0  0  0  0  0  0  0  0  0  0  0
   -6.4714    2.8020    1.3803 H   0  0  0  0  0  0  0  0  0  0  0  0
   -5.5985    1.2369    1.8226 H   0  0  0  0  0  0  0  0  0  0  0  0
   -9.2068    1.4944    1.5560 H   0  0  0  0  0  0  0  0  0  0  0  0
   -9.2980    0.9230   -0.1902 H   0  0  0  0  0  0  0  0  0  0  0  0
   -8.9244   -0.2581    1.0656 H   0  0  0  0  0  0  0  0  0  0  0  0
   -5.2618    3.0505   -1.0043 H   0  0  0  0  0  0  0  0  0  0  0  0
   -2.4967    3.8458   -1.4861 H   0  0  0  0  0  0  0  0  0  0  0  0
    0.4056   -0.1502   -2.6423 H   0  0  0  0  0  0  0  0  0  0  0  0
    2.5440   -0.8259   -2.3890 H   0  0  0  0  0  0  0  0  0  0  0  0
    4.6643   -0.8185   -1.2390 H   0  0  0  0  0  0  0  0  0  0  0  0
    6.3436    2.2495    1.3954 H   0  0  0  0  0  0  0  0  0  0  0  0
    5.9409    1.9176   -0.3061 H   0  0  0  0  0  0  0  0  0  0  0  0
    8.3937    1.6677    0.4402 H   0  0  0  0  0  0  0  0  0  0  0  0
    8.6587    0.8356   -1.6337 H   0  0  0  0  0  0  0  0  0  0  0  0
    6.8965    0.8306   -1.7510 H   0  0  0  0  0  0  0  0  0  0  0  0
    8.3026   -1.2892   -2.0252 H   0  0  0  0  0  0  0  0  0  0  0  0
    9.7251   -1.0575   -0.1521 H   0  0  0  0  0  0  0  0  0  0  0  0
    8.4630   -2.3300    0.2997 H   0  0  0  0  0  0  0  0  0  0  0  0
    8.9849   -0.0675    1.7246 H   0  0  0  0  0  0  0  0  0  0  0  0
    7.0442   -2.1674    1.5919 H   0  0  0  0  0  0  0  0  0  0  0  0
    7.4285   -1.1065    2.9607 H   0  0  0  0  0  0  0  0  0  0  0  0
    3.0212    1.6864    1.7787 H   0  0  0  0  0  0  0  0  0  0  0  0
   -3.7069   -1.8761   -1.4819 H   0  0  0  0  0  0  0  0  0  0  0  0
   -5.0888   -3.3768   -0.5246 H   0  0  0  0  0  0  0  0  0  0  0  0
   -6.3153   -2.2668   -1.0432 H   0  0  0  0  0  0  0  0  0  0  0  0
   -6.3418   -3.1289    1.3306 H   0  0  0  0  0  0  0  0  0  0  0  0
   -6.1642   -1.3175    1.4664 H   0  0  0  0  0  0  0  0  0  0  0  0
   -4.2350   -1.8442    2.6359 H   0  0  0  0  0  0  0  0  0  0  0  0
   -4.0985   -3.4420    1.7861 H   0  0  0  0  0  0  0  0  0  0  0  0
   -2.5691   -2.4666    0.3451 H   0  0  0  0  0  0  0  0  0  0  0  0
   -2.9911   -0.8622    0.9920 H   0  0  0  0  0  0  0  0  0  0  0  0
  1  2  1  0
  2  3  1  0
  2  4  1  0
  4  5  2  0
  4  6  1  0
  6  7  2  0
  7  8  1  0
  8  9  2  0
  9 10  1  0
 10 11  2  0
 11 12  1  0
 12 13  1  0
 13 14  2  0
 14 15  1  0
 15 16  2  0
 16 17  1  0
 17 18  1  0
 18 19  1  0
 19 20  1  0
 20 21  1  0
 21 22  1  0
 22 23  1  0
 23 24  1  0
 24 25  1  0
 25 26  2  0
 16 27  1  0
 27 28  2  0
 11 29  1  0
 29 30  2  0
 30 31  1  0
 31 32  1  0
 32 33  1  0
 33 34  1  0
 34 35  1  0
 35 36  1  0
 31  6  1  0
 36 32  1  0
 30  8  1  0
 28 13  1  0
 25 17  1  0
 23 19  1  0
  1 37  1  0
  1 38  1  0
  1 39  1  0
  3 40  1  0
  3 41  1  0
  3 42  1  0
  7 43  1  0
  9 44  1  0
 12 45  1  0
 14 46  1  0
 15 47  1  0
 18 48  1  0
 18 49  1  0
 19 50  1  0
 20 51  1  0
 20 52  1  0
 21 53  1  0
 22 54  1  0
 22 55  1  0
 23 56  1  0
 24 57  1  0
 24 58  1  0
 27 59  1  0
 32 60  1  0
 33 61  1  0
 33 62  1  0
 34 63  1  0
 34 64  1  0
 35 65  1  0
 35 66  1  0
 36 67  1  0
 36 68  1  0
M  END
$$$$
