
     RDKit          3D

 40 43  0  0  0  0  0  0  0  0999 V2000
    0.8542    0.4658    3.0793 O   0  0  0  0  0  0  0  0  0  0  0  0
    0.2911    0.2137    1.9830 C   0  0  0  0  0  0  0  0  0  0  0  0
   -0.9475   -0.6022    2.0396 C   0  0  0  0  0  0  0  0  0  0  0  0
   -1.5241   -0.8439    0.7611 N   0  0  0  0  0  0  0  0  0  0  0  0
   -1.1215   -2.0182    0.0233 C   0  0  0  0  0  0  0  0  0  0  0  0
   -0.6793   -3.0065    0.6190 O   0  0  0  0  0  0  0  0  0  0  0  0
   -1.2514   -2.0115   -1.4756 C   0  0  0  0  0  0  0  0  0  0  0  0
   -2.6166   -1.5474   -1.8902 C   0  0  0  0  0  0  0  0  0  0  0  0
   -3.0027   -0.3353   -1.1421 C   0  0  0  0  0  0  0  0  0  0  0  0
   -3.9263    0.4907   -1.7491 C   0  0  0  0  0  0  0  0  0  0  0  0
   -4.3250    1.6286   -1.0847 C   0  0  0  0  0  0  0  0  0  0  0  0
   -3.8088    1.9332    0.1627 C   0  0  0  0  0  0  0  0  0  0  0  0
   -2.8858    1.1147    0.7772 C   0  0  0  0  0  0  0  0  0  0  0  0
   -2.4864   -0.0352    0.0996 C   0  0  0  0  0  0  0  0  0  0  0  0
    0.8606    0.7108    0.8044 N   0  0  0  0  0  0  0  0  0  0  0  0
    2.0810    1.5111    0.7823 C   0  0  0  0  0  0  0  0  0  0  0  0
    2.1096    3.2459    1.0056 S   0  0  0  0  0  0  0  0  0  0  0  0
    3.8737    3.4402    0.8553 C   0  0  0  0  0  0  0  0  0  0  0  0
    4.3034    2.1507    0.6439 C   0  0  0  0  0  0  0  0  0  0  0  0
    6.2335    1.8830    0.4185 Br  0  0  0  0  0  0  0  0  0  0  0  0
    3.3627    1.1816    0.6105 C   0  0  0  0  0  0  0  0  0  0  0  0
    3.7340   -0.2395    0.3476 C   0  0  0  0  0  0  0  0  0  0  0  0
    4.9746   -0.6766    0.1724 N   0  0  0  0  0  0  0  0  0  0  0  0
    4.9423   -1.9699   -0.0557 N   0  0  0  0  0  0  0  0  0  0  0  0
    3.6705   -2.3922   -0.0316 C   0  0  0  0  0  0  0  0  0  0  0  0
    2.9285   -1.3010    0.2210 N   0  0  0  0  0  0  0  0  0  0  0  0
   -0.6259   -1.5691    2.5407 H   0  0  0  0  0  0  0  0  0  0  0  0
   -1.6144   -0.1380    2.7927 H   0  0  0  0  0  0  0  0  0  0  0  0
   -0.4340   -1.4393   -1.9525 H   0  0  0  0  0  0  0  0  0  0  0  0
   -1.1458   -3.0614   -1.8068 H   0  0  0  0  0  0  0  0  0  0  0  0
   -2.5639   -1.3245   -2.9810 H   0  0  0  0  0  0  0  0  0  0  0  0
   -3.3153   -2.3990   -1.7017 H   0  0  0  0  0  0  0  0  0  0  0  0
   -4.3524    0.2920   -2.7163 H   0  0  0  0  0  0  0  0  0  0  0  0
   -5.0547    2.3174   -1.5214 H   0  0  0  0  0  0  0  0  0  0  0  0
   -4.1085    2.8253    0.7058 H   0  0  0  0  0  0  0  0  0  0  0  0
   -2.4743    1.3570    1.7666 H   0  0  0  0  0  0  0  0  0  0  0  0
    0.4229    0.5215   -0.1107 H   0  0  0  0  0  0  0  0  0  0  0  0
    4.4312    4.3729    0.9216 H   0  0  0  0  0  0  0  0  0  0  0  0
    3.2922   -3.4131   -0.1840 H   0  0  0  0  0  0  0  0  0  0  0  0
    1.8986   -1.3325    0.2884 H   0  0  0  0  0  0  0  0  0  0  0  0
  1  2  2  0
  2  3  1  0
  3  4  1  0
  4  5  1  0
  5  6  2  0
  5  7  1  0
  7  8  1  0
  8  9  1  0
  9 10  2  0
 10 11  1  0
 11 12  2  0
 12 13  1  0
 13 14  2  0
  2 15  1  0
 15 16  1  0
 16 17  1  0
 17 18  1  0
 18 19  2  0
 19 20  1  0
 19 21  1  0
 21 22  1  0
 22 23  2  0
 23 24  1  0
 24 25  2  0
 25 26  1  0
 14  4  1  0
 21 16  2  0
 26 22  1  0
 14  9  1  0
  3 27  1  0
  3 28  1  0
  7 29  1  0
  7 30  1  0
  8 31  1  0
  8 32  1  0
 10 33  1  0
 11 34  1  0
 12 35  1  0
 13 36  1  0
 15 37  1  0
 18 38  1  0
 25 39  1  0
 26 40  1  0
M  END
$$$$
