@<TRIPOS>MOLECULE
*****
 40 43 0 0 0
SMALL
GASTEIGER

@<TRIPOS>ATOM
      1 O           0.8542    0.4658    3.0793 O.2     1  UNL1       -0.2737
      2 C           0.2911    0.2137    1.9830 C.2     1  UNL1        0.2354
      3 C          -0.9475   -0.6022    2.0396 C.3     1  UNL1        0.0964
      4 N          -1.5241   -0.8439    0.7611 N.am    1  UNL1       -0.2623
      5 C          -1.1215   -2.0182    0.0233 C.2     1  UNL1        0.2205
      6 O          -0.6793   -3.0065    0.6190 O.2     1  UNL1       -0.2752
      7 C          -1.2514   -2.0115   -1.4756 C.3     1  UNL1        0.0285
      8 C          -2.6166   -1.5474   -1.8902 C.3     1  UNL1       -0.0177
      9 C          -3.0027   -0.3353   -1.1421 C.ar    1  UNL1       -0.0255
     10 C          -3.9263    0.4907   -1.7491 C.ar    1  UNL1       -0.0568
     11 C          -4.3250    1.6286   -1.0847 C.ar    1  UNL1       -0.0614
     12 C          -3.8088    1.9332    0.1627 C.ar    1  UNL1       -0.0600
     13 C          -2.8858    1.1147    0.7772 C.ar    1  UNL1       -0.0400
     14 C          -2.4864   -0.0352    0.0996 C.ar    1  UNL1        0.0400
     15 N           0.8606    0.7108    0.8044 N.am    1  UNL1       -0.2781
     16 C           2.0810    1.5111    0.7823 C.ar    1  UNL1        0.0836
     17 S           2.1096    3.2459    1.0056 S.2     1  UNL1       -0.0801
     18 C           3.8737    3.4402    0.8553 C.ar    1  UNL1       -0.0078
     19 C           4.3034    2.1507    0.6439 C.ar    1  UNL1        0.0374
     20 BR          6.2335    1.8830    0.4185 Br      1  UNL1       -0.0490
     21 C           3.3627    1.1816    0.6105 C.ar    1  UNL1        0.0614
     22 C           3.7340   -0.2395    0.3476 C.ar    1  UNL1        0.1648
     23 N           4.9746   -0.6766    0.1724 N.ar    1  UNL1       -0.1295
     24 N           4.9423   -1.9699   -0.0557 N.ar    1  UNL1       -0.1377
     25 C           3.6705   -2.3922   -0.0316 C.ar    1  UNL1        0.1175
     26 N           2.9285   -1.3010    0.2210 N.ar    1  UNL1       -0.3276
     27 H          -0.6259   -1.5691    2.5407 H       1  UNL1        0.0564
     28 H          -1.6144   -0.1380    2.7927 H       1  UNL1        0.0564
     29 H          -0.4340   -1.4393   -1.9525 H       1  UNL1        0.0362
     30 H          -1.1458   -3.0614   -1.8068 H       1  UNL1        0.0362
     31 H          -2.5639   -1.3245   -2.9810 H       1  UNL1        0.0318
     32 H          -3.3153   -2.3990   -1.7017 H       1  UNL1        0.0318
     33 H          -4.3524    0.2920   -2.7163 H       1  UNL1        0.0621
     34 H          -5.0547    2.3174   -1.5214 H       1  UNL1        0.0618
     35 H          -4.1085    2.8253    0.7058 H       1  UNL1        0.0618
     36 H          -2.4743    1.3570    1.7666 H       1  UNL1        0.0636
     37 H           0.4229    0.5215   -0.1107 H       1  UNL1        0.1554
     38 H           4.4312    4.3729    0.9216 H       1  UNL1        0.0705
     39 H           3.2922   -3.4131   -0.1840 H       1  UNL1        0.1046
     40 H           1.8986   -1.3325    0.2884 H       1  UNL1        0.1683
@<TRIPOS>BOND
     1     1     2    2
     2     2     3    1
     3     3     4    1
     4     4     5   am
     5     5     6    2
     6     5     7    1
     7     7     8    1
     8     8     9    1
     9     9    10   ar
    10    10    11   ar
    11    11    12   ar
    12    12    13   ar
    13    13    14   ar
    14     2    15   am
    15    15    16    1
    16    16    17   ar
    17    17    18   ar
    18    18    19   ar
    19    19    20    1
    20    19    21   ar
    21    21    22    1
    22    22    23   ar
    23    23    24   ar
    24    24    25   ar
    25    25    26   ar
    26    14     4    1
    27    21    16   ar
    28    26    22   ar
    29    14     9   ar
    30     3    27    1
    31     3    28    1
    32     7    29    1
    33     7    30    1
    34     8    31    1
    35     8    32    1
    36    10    33    1
    37    11    34    1
    38    12    35    1
    39    13    36    1
    40    15    37    1
    41    18    38    1
    42    25    39    1
    43    26    40    1
