@<TRIPOS>MOLECULE
*****
 52 55 0 0 0
SMALL
GASTEIGER

@<TRIPOS>ATOM
      1 N           6.7729    2.0656   -0.1683 N.3     1  UNL1       -0.3272
      2 C           6.0698    0.9306    0.4558 C.3     1  UNL1        0.0049
      3 C           6.2759   -0.2448   -0.4689 C.3     1  UNL1       -0.0363
      4 C           5.3646   -1.4104   -0.1725 C.3     1  UNL1       -0.0361
      5 C           3.9452   -0.9285   -0.1204 C.3     1  UNL1        0.0080
      6 N           2.9591   -1.9612   -0.0660 N.3     1  UNL1       -0.3099
      7 C           1.6471   -1.3667   -0.0405 C.3     1  UNL1        0.0153
      8 C           1.3731   -0.4760   -1.2704 C.3     1  UNL1       -0.0287
      9 C           0.6013   -1.7807   -0.9685 C.3     1  UNL1        0.0010
     10 C          -0.8303   -1.5186   -0.7274 C.ar    1  UNL1       -0.0425
     11 C          -1.7373   -1.7035   -1.7392 C.ar    1  UNL1       -0.0548
     12 C          -3.0810   -1.4918   -1.5607 C.ar    1  UNL1       -0.0197
     13 C          -3.6105   -1.0707   -0.3217 C.ar    1  UNL1        0.1210
     14 O          -4.8640   -0.8552   -0.0972 O.3     1  UNL1       -0.4873
     15 C          -6.1119   -0.6382    0.1354 C.3     1  UNL1        0.1160
     16 C          -6.5008    0.7405    0.5909 C.ar    1  UNL1        0.0077
     17 C          -6.7585    1.6816   -0.3699 C.ar    1  UNL1       -0.0525
     18 C          -7.1173    2.9600    0.0160 C.ar    1  UNL1       -0.0432
     19 C          -7.2116    3.2753    1.3494 C.ar    1  UNL1        0.0276
     20 N          -6.9488    2.3160    2.2508 N.ar    1  UNL1       -0.2629
     21 C          -6.5997    1.0700    1.9123 C.ar    1  UNL1        0.0339
     22 C          -2.6461   -0.8929    0.6899 C.ar    1  UNL1       -0.0197
     23 C          -1.3085   -1.1056    0.5048 C.ar    1  UNL1       -0.0548
     24 C           3.8597    0.0735    1.0191 C.3     1  UNL1       -0.0361
     25 C           4.6048    1.3142    0.5142 C.3     1  UNL1       -0.0363
     26 H           6.4092    2.2247   -1.1324 H       1  UNL1        0.1185
     27 H           6.5106    2.9252    0.3830 H       1  UNL1        0.1185
     28 H           6.4362    0.7374    1.4635 H       1  UNL1        0.0458
     29 H           6.0803    0.1040   -1.5091 H       1  UNL1        0.0281
     30 H           7.3118   -0.5917   -0.4002 H       1  UNL1        0.0281
     31 H           5.5395   -2.1478   -0.9809 H       1  UNL1        0.0281
     32 H           5.6168   -1.8663    0.7933 H       1  UNL1        0.0281
     33 H           3.7790   -0.3429   -1.0706 H       1  UNL1        0.0460
     34 H           3.0972   -2.5686   -0.9059 H       1  UNL1        0.1225
     35 H           1.3620   -0.9608    0.9381 H       1  UNL1        0.0466
     36 H           0.8688    0.4848   -1.1138 H       1  UNL1        0.0287
     37 H           2.0554   -0.5584   -2.1279 H       1  UNL1        0.0287
     38 H           0.7572   -2.5913   -1.7404 H       1  UNL1        0.0364
     39 H          -1.3690   -2.0331   -2.7277 H       1  UNL1        0.0622
     40 H          -3.8204   -1.6320   -2.3486 H       1  UNL1        0.0654
     41 H          -6.7851   -0.8194   -0.7608 H       1  UNL1        0.0748
     42 H          -6.5288   -1.3047    0.9475 H       1  UNL1        0.0748
     43 H          -6.6830    1.4279   -1.4400 H       1  UNL1        0.0622
     44 H          -7.3223    3.7071   -0.7227 H       1  UNL1        0.0633
     45 H          -7.4948    4.2939    1.6561 H       1  UNL1        0.0829
     46 H          -6.4022    0.3471    2.6860 H       1  UNL1        0.0833
     47 H          -3.0055   -0.5693    1.6616 H       1  UNL1        0.0654
     48 H          -0.5918   -0.9608    1.3051 H       1  UNL1        0.0622
     49 H           4.4482   -0.3305    1.8718 H       1  UNL1        0.0281
     50 H           2.8497    0.3904    1.2598 H       1  UNL1        0.0281
     51 H           4.2669    1.4650   -0.5452 H       1  UNL1        0.0281
     52 H           4.4669    2.1878    1.1532 H       1  UNL1        0.0281
@<TRIPOS>BOND
     1     1     2    1
     2     2     3    1
     3     3     4    1
     4     4     5    1
     5     5     6    1
     6     6     7    1
     7     7     8    1
     8     8     9    1
     9     9    10    1
    10    10    11   ar
    11    11    12   ar
    12    12    13   ar
    13    13    14    1
    14    14    15    1
    15    15    16    1
    16    16    17   ar
    17    17    18   ar
    18    18    19   ar
    19    19    20   ar
    20    20    21   ar
    21    13    22   ar
    22    22    23   ar
    23     5    24    1
    24    24    25    1
    25    25     2    1
    26     9     7    1
    27    23    10   ar
    28    21    16   ar
    29     1    26    1
    30     1    27    1
    31     2    28    1
    32     3    29    1
    33     3    30    1
    34     4    31    1
    35     4    32    1
    36     5    33    1
    37     6    34    1
    38     7    35    1
    39     8    36    1
    40     8    37    1
    41     9    38    1
    42    11    39    1
    43    12    40    1
    44    15    41    1
    45    15    42    1
    46    17    43    1
    47    18    44    1
    48    19    45    1
    49    21    46    1
    50    22    47    1
    51    23    48    1
    52    24    49    1
    53    24    50    1
    54    25    51    1
    55    25    52    1
