
     RDKit          3D

 52 55  0  0  0  0  0  0  0  0999 V2000
    6.7729    2.0656   -0.1683 N   0  0  0  0  0  0  0  0  0  0  0  0
    6.0698    0.9306    0.4558 C   0  0  0  0  0  0  0  0  0  0  0  0
    6.2759   -0.2448   -0.4689 C   0  0  0  0  0  0  0  0  0  0  0  0
    5.3646   -1.4104   -0.1725 C   0  0  0  0  0  0  0  0  0  0  0  0
    3.9452   -0.9285   -0.1204 C   0  0  0  0  0  0  0  0  0  0  0  0
    2.9591   -1.9612   -0.0660 N   0  0  0  0  0  0  0  0  0  0  0  0
    1.6471   -1.3667   -0.0405 C   0  0  1  0  0  0  0  0  0  0  0  0
    1.3731   -0.4760   -1.2704 C   0  0  0  0  0  0  0  0  0  0  0  0
    0.6013   -1.7807   -0.9685 C   0  0  2  0  0  0  0  0  0  0  0  0
   -0.8303   -1.5186   -0.7274 C   0  0  0  0  0  0  0  0  0  0  0  0
   -1.7373   -1.7035   -1.7392 C   0  0  0  0  0  0  0  0  0  0  0  0
   -3.0810   -1.4918   -1.5607 C   0  0  0  0  0  0  0  0  0  0  0  0
   -3.6105   -1.0707   -0.3217 C   0  0  0  0  0  0  0  0  0  0  0  0
   -4.8640   -0.8552   -0.0972 O   0  0  0  0  0  0  0  0  0  0  0  0
   -6.1119   -0.6382    0.1354 C   0  0  0  0  0  0  0  0  0  0  0  0
   -6.5008    0.7405    0.5909 C   0  0  0  0  0  0  0  0  0  0  0  0
   -6.7585    1.6816   -0.3699 C   0  0  0  0  0  0  0  0  0  0  0  0
   -7.1173    2.9600    0.0160 C   0  0  0  0  0  0  0  0  0  0  0  0
   -7.2116    3.2753    1.3494 C   0  0  0  0  0  0  0  0  0  0  0  0
   -6.9488    2.3160    2.2508 N   0  0  0  0  0  0  0  0  0  0  0  0
   -6.5997    1.0700    1.9123 C   0  0  0  0  0  0  0  0  0  0  0  0
   -2.6461   -0.8929    0.6899 C   0  0  0  0  0  0  0  0  0  0  0  0
   -1.3085   -1.1056    0.5048 C   0  0  0  0  0  0  0  0  0  0  0  0
    3.8597    0.0735    1.0191 C   0  0  0  0  0  0  0  0  0  0  0  0
    4.6048    1.3142    0.5142 C   0  0  0  0  0  0  0  0  0  0  0  0
    6.4092    2.2247   -1.1324 H   0  0  0  0  0  0  0  0  0  0  0  0
    6.5106    2.9252    0.3830 H   0  0  0  0  0  0  0  0  0  0  0  0
    6.4362    0.7374    1.4635 H   0  0  0  0  0  0  0  0  0  0  0  0
    6.0803    0.1040   -1.5091 H   0  0  0  0  0  0  0  0  0  0  0  0
    7.3118   -0.5917   -0.4002 H   0  0  0  0  0  0  0  0  0  0  0  0
    5.5395   -2.1478   -0.9809 H   0  0  0  0  0  0  0  0  0  0  0  0
    5.6168   -1.8663    0.7933 H   0  0  0  0  0  0  0  0  0  0  0  0
    3.7790   -0.3429   -1.0706 H   0  0  0  0  0  0  0  0  0  0  0  0
    3.0972   -2.5686   -0.9059 H   0  0  0  0  0  0  0  0  0  0  0  0
    1.3620   -0.9608    0.9381 H   0  0  0  0  0  0  0  0  0  0  0  0
    0.8688    0.4848   -1.1138 H   0  0  0  0  0  0  0  0  0  0  0  0
    2.0554   -0.5584   -2.1279 H   0  0  0  0  0  0  0  0  0  0  0  0
    0.7572   -2.5913   -1.7404 H   0  0  0  0  0  0  0  0  0  0  0  0
   -1.3690   -2.0331   -2.7277 H   0  0  0  0  0  0  0  0  0  0  0  0
   -3.8204   -1.6320   -2.3486 H   0  0  0  0  0  0  0  0  0  0  0  0
   -6.7851   -0.8194   -0.7608 H   0  0  0  0  0  0  0  0  0  0  0  0
   -6.5288   -1.3047    0.9475 H   0  0  0  0  0  0  0  0  0  0  0  0
   -6.6830    1.4279   -1.4400 H   0  0  0  0  0  0  0  0  0  0  0  0
   -7.3223    3.7071   -0.7227 H   0  0  0  0  0  0  0  0  0  0  0  0
   -7.4948    4.2939    1.6561 H   0  0  0  0  0  0  0  0  0  0  0  0
   -6.4022    0.3471    2.6860 H   0  0  0  0  0  0  0  0  0  0  0  0
   -3.0055   -0.5693    1.6616 H   0  0  0  0  0  0  0  0  0  0  0  0
   -0.5918   -0.9608    1.3051 H   0  0  0  0  0  0  0  0  0  0  0  0
    4.4482   -0.3305    1.8718 H   0  0  0  0  0  0  0  0  0  0  0  0
    2.8497    0.3904    1.2598 H   0  0  0  0  0  0  0  0  0  0  0  0
    4.2669    1.4650   -0.5452 H   0  0  0  0  0  0  0  0  0  0  0  0
    4.4669    2.1878    1.1532 H   0  0  0  0  0  0  0  0  0  0  0  0
  1  2  1  0
  2  3  1  0
  3  4  1  0
  4  5  1  0
  5  6  1  0
  6  7  1  0
  7  8  1  0
  8  9  1  0
  9 10  1  0
 10 11  2  0
 11 12  1  0
 12 13  2  0
 13 14  1  0
 14 15  1  0
 15 16  1  0
 16 17  2  0
 17 18  1  0
 18 19  2  0
 19 20  1  0
 20 21  2  0
 13 22  1  0
 22 23  2  0
  5 24  1  0
 24 25  1  0
 25  2  1  0
  9  7  1  0
 23 10  1  0
 21 16  1  0
  1 26  1  0
  1 27  1  0
  2 28  1  0
  3 29  1  0
  3 30  1  0
  4 31  1  0
  4 32  1  0
  5 33  1  0
  6 34  1  0
  7 35  1  1
  8 36  1  0
  8 37  1  0
  9 38  1  6
 11 39  1  0
 12 40  1  0
 15 41  1  0
 15 42  1  0
 17 43  1  0
 18 44  1  0
 19 45  1  0
 21 46  1  0
 22 47  1  0
 23 48  1  0
 24 49  1  0
 24 50  1  0
 25 51  1  0
 25 52  1  0
M  END
$$$$
