
     RDKit          3D

 46 49  0  0  0  0  0  0  0  0999 V2000
   -0.7679   -3.0785   -1.3013 C   0  0  0  0  0  0  0  0  0  0  0  0
   -1.4949   -1.9354   -0.9018 O   0  0  0  0  0  0  0  0  0  0  0  0
   -0.8154   -0.8162   -0.4420 C   0  0  0  0  0  0  0  0  0  0  0  0
    0.5783   -0.7825   -0.3593 C   0  0  0  0  0  0  0  0  0  0  0  0
    1.2754    0.3119    0.0916 C   0  0  0  0  0  0  0  0  0  0  0  0
    2.6726    0.3520    0.1764 C   0  0  0  0  0  0  0  0  0  0  0  0
    3.4169   -0.7800   -0.1883 N   0  0  0  0  0  0  0  0  0  0  0  0
    4.8371   -0.7243   -0.2058 C   0  0  0  0  0  0  0  0  0  0  0  0
    5.5833   -1.8802    0.0764 C   0  0  0  0  0  0  0  0  0  0  0  0
    6.9577   -1.8460    0.0425 C   0  0  0  0  0  0  0  0  0  0  0  0
    7.6636   -0.7035   -0.2627 C   0  0  0  0  0  0  0  0  0  0  0  0
    9.4193   -0.6810   -0.2992 Cl  0  0  0  0  0  0  0  0  0  0  0  0
    6.9406    0.4311   -0.5403 C   0  0  0  0  0  0  0  0  0  0  0  0
    7.7888    1.9259   -0.9383 Cl  0  0  0  0  0  0  0  0  0  0  0  0
    5.5365    0.3954   -0.5059 C   0  0  0  0  0  0  0  0  0  0  0  0
    3.2561    1.4766    0.6322 N   0  0  0  0  0  0  0  0  0  0  0  0
    2.5695    2.5475    1.0043 C   0  0  0  0  0  0  0  0  0  0  0  0
    1.2364    2.5080    0.9230 N   0  0  0  0  0  0  0  0  0  0  0  0
    0.5598    1.4368    0.4830 C   0  0  0  0  0  0  0  0  0  0  0  0
   -0.8138    1.4059    0.4024 C   0  0  0  0  0  0  0  0  0  0  0  0
   -1.5150    0.3025   -0.0519 C   0  0  0  0  0  0  0  0  0  0  0  0
   -2.8998    0.3185   -0.1148 O   0  0  0  0  0  0  0  0  0  0  0  0
   -3.6863    1.4125    0.2615 C   0  0  0  0  0  0  0  0  0  0  0  0
   -5.1196    1.0263    0.0468 C   0  0  0  0  0  0  0  0  0  0  0  0
   -5.7415    0.1707    0.9561 C   0  0  0  0  0  0  0  0  0  0  0  0
   -5.0324   -0.3001    2.0266 F   0  0  0  0  0  0  0  0  0  0  0  0
   -7.0589   -0.1995    0.7809 C   0  0  0  0  0  0  0  0  0  0  0  0
   -7.7469    0.2954   -0.3131 C   0  0  0  0  0  0  0  0  0  0  0  0
   -7.1423    1.1533   -1.2349 C   0  0  0  0  0  0  0  0  0  0  0  0
   -5.8314    1.4972   -1.0252 C   0  0  0  0  0  0  0  0  0  0  0  0
   -5.2360    2.3300   -1.9148 F   0  0  0  0  0  0  0  0  0  0  0  0
    0.0632   -2.8385   -1.9878 H   0  0  0  0  0  0  0  0  0  0  0  0
   -0.3104   -3.6140   -0.4407 H   0  0  0  0  0  0  0  0  0  0  0  0
   -1.4880   -3.7928   -1.7694 H   0  0  0  0  0  0  0  0  0  0  0  0
    1.0965   -1.6723   -0.6731 H   0  0  0  0  0  0  0  0  0  0  0  0
    2.9945   -1.7026   -0.4574 H   0  0  0  0  0  0  0  0  0  0  0  0
    5.0175   -2.7834    0.3178 H   0  0  0  0  0  0  0  0  0  0  0  0
    7.5368   -2.7483    0.2625 H   0  0  0  0  0  0  0  0  0  0  0  0
    5.0277    1.3246   -0.7515 H   0  0  0  0  0  0  0  0  0  0  0  0
    3.0946    3.4321    1.3658 H   0  0  0  0  0  0  0  0  0  0  0  0
   -1.3425    2.2984    0.7151 H   0  0  0  0  0  0  0  0  0  0  0  0
   -3.5681    1.5472    1.3692 H   0  0  0  0  0  0  0  0  0  0  0  0
   -3.4415    2.3363   -0.2830 H   0  0  0  0  0  0  0  0  0  0  0  0
   -7.5668   -0.8728    1.4866 H   0  0  0  0  0  0  0  0  0  0  0  0
   -8.7663    0.0075   -0.4455 H   0  0  0  0  0  0  0  0  0  0  0  0
   -7.7371    1.5085   -2.0759 H   0  0  0  0  0  0  0  0  0  0  0  0
  1  2  1  0
  2  3  1  0
  3  4  2  0
  4  5  1  0
  5  6  2  0
  6  7  1  0
  7  8  1  0
  8  9  2  0
  9 10  1  0
 10 11  2  0
 11 12  1  0
 11 13  1  0
 13 14  1  0
 13 15  2  0
  6 16  1  0
 16 17  2  0
 17 18  1  0
 18 19  2  0
 19 20  1  0
 20 21  2  0
 21 22  1  0
 22 23  1  0
 23 24  1  0
 24 25  2  0
 25 26  1  0
 25 27  1  0
 27 28  2  0
 28 29  1  0
 29 30  2  0
 30 31  1  0
 21  3  1  0
 30 24  1  0
 19  5  1  0
 15  8  1  0
  1 32  1  0
  1 33  1  0
  1 34  1  0
  4 35  1  0
  7 36  1  0
  9 37  1  0
 10 38  1  0
 15 39  1  0
 17 40  1  0
 20 41  1  0
 23 42  1  0
 23 43  1  0
 27 44  1  0
 28 45  1  0
 29 46  1  0
M  END
$$$$
