@<TRIPOS>MOLECULE
*****
 46 49 0 0 0
SMALL
GASTEIGER

@<TRIPOS>ATOM
      1 C          -0.7679   -3.0785   -1.3013 C.3     1  UNL1        0.0790
      2 O          -1.4949   -1.9354   -0.9018 O.3     1  UNL1       -0.4914
      3 C          -0.8154   -0.8162   -0.4420 C.ar    1  UNL1        0.1623
      4 C           0.5783   -0.7825   -0.3593 C.ar    1  UNL1       -0.0038
      5 C           1.2754    0.3119    0.0916 C.ar    1  UNL1        0.0441
      6 C           2.6726    0.3520    0.1764 C.ar    1  UNL1        0.1340
      7 N           3.4169   -0.7800   -0.1883 N.pl3   1  UNL1       -0.2988
      8 C           4.8371   -0.7243   -0.2058 C.ar    1  UNL1        0.0339
      9 C           5.5833   -1.8802    0.0764 C.ar    1  UNL1       -0.0390
     10 C           6.9577   -1.8460    0.0425 C.ar    1  UNL1       -0.0402
     11 C           7.6636   -0.7035   -0.2627 C.ar    1  UNL1        0.0594
     12 CL          9.4193   -0.6810   -0.2992 Cl      1  UNL1       -0.0820
     13 C           6.9406    0.4311   -0.5403 C.ar    1  UNL1        0.0610
     14 CL          7.7888    1.9259   -0.9383 Cl      1  UNL1       -0.0820
     15 C           5.5365    0.3954   -0.5059 C.ar    1  UNL1       -0.0207
     16 N           3.2561    1.4766    0.6322 N.ar    1  UNL1       -0.2200
     17 C           2.5695    2.5475    1.0043 C.ar    1  UNL1        0.1187
     18 N           1.2364    2.5080    0.9230 N.ar    1  UNL1       -0.2352
     19 C           0.5598    1.4368    0.4830 C.ar    1  UNL1        0.0797
     20 C          -0.8138    1.4059    0.4024 C.ar    1  UNL1        0.0099
     21 C          -1.5150    0.3025   -0.0519 C.ar    1  UNL1        0.1644
     22 O          -2.8998    0.3185   -0.1148 O.3     1  UNL1       -0.4835
     23 C          -3.6863    1.4125    0.2615 C.3     1  UNL1        0.1201
     24 C          -5.1196    1.0263    0.0468 C.ar    1  UNL1        0.0599
     25 C          -5.7415    0.1707    0.9561 C.ar    1  UNL1        0.1325
     26 F          -5.0324   -0.3001    2.0266 F       1  UNL1       -0.2050
     27 C          -7.0589   -0.1995    0.7809 C.ar    1  UNL1       -0.0259
     28 C          -7.7469    0.2954   -0.3131 C.ar    1  UNL1       -0.0563
     29 C          -7.1423    1.1533   -1.2349 C.ar    1  UNL1       -0.0259
     30 C          -5.8314    1.4972   -1.0252 C.ar    1  UNL1        0.1325
     31 F          -5.2360    2.3300   -1.9148 F       1  UNL1       -0.2050
     32 H           0.0632   -2.8385   -1.9878 H       1  UNL1        0.0660
     33 H          -0.3104   -3.6140   -0.4407 H       1  UNL1        0.0660
     34 H          -1.4880   -3.7928   -1.7694 H       1  UNL1        0.0660
     35 H           1.0965   -1.6723   -0.6731 H       1  UNL1        0.0663
     36 H           2.9945   -1.7026   -0.4574 H       1  UNL1        0.1536
     37 H           5.0175   -2.7834    0.3178 H       1  UNL1        0.0636
     38 H           7.5368   -2.7483    0.2625 H       1  UNL1        0.0633
     39 H           5.0277    1.3246   -0.7515 H       1  UNL1        0.0651
     40 H           3.0946    3.4321    1.3658 H       1  UNL1        0.1048
     41 H          -1.3425    2.2984    0.7151 H       1  UNL1        0.0677
     42 H          -3.5681    1.5472    1.3692 H       1  UNL1        0.0749
     43 H          -3.4415    2.3363   -0.2830 H       1  UNL1        0.0749
     44 H          -7.5668   -0.8728    1.4866 H       1  UNL1        0.0646
     45 H          -8.7663    0.0075   -0.4455 H       1  UNL1        0.0619
     46 H          -7.7371    1.5085   -2.0759 H       1  UNL1        0.0646
@<TRIPOS>BOND
     1     1     2    1
     2     2     3    1
     3     3     4   ar
     4     4     5   ar
     5     5     6   ar
     6     6     7    1
     7     7     8    1
     8     8     9   ar
     9     9    10   ar
    10    10    11   ar
    11    11    12    1
    12    11    13   ar
    13    13    14    1
    14    13    15   ar
    15     6    16   ar
    16    16    17   ar
    17    17    18   ar
    18    18    19   ar
    19    19    20   ar
    20    20    21   ar
    21    21    22    1
    22    22    23    1
    23    23    24    1
    24    24    25   ar
    25    25    26    1
    26    25    27   ar
    27    27    28   ar
    28    28    29   ar
    29    29    30   ar
    30    30    31    1
    31    21     3   ar
    32    30    24   ar
    33    19     5   ar
    34    15     8   ar
    35     1    32    1
    36     1    33    1
    37     1    34    1
    38     4    35    1
    39     7    36    1
    40     9    37    1
    41    10    38    1
    42    15    39    1
    43    17    40    1
    44    20    41    1
    45    23    42    1
    46    23    43    1
    47    27    44    1
    48    28    45    1
    49    29    46    1
