@<TRIPOS>MOLECULE
*****
 53 55 0 0 0
SMALL
GASTEIGER

@<TRIPOS>ATOM
      1 C          -7.7748    1.2981    1.3797 C.3     1  UNL1       -0.0652
      2 C          -6.4353    1.9454    1.6810 C.3     1  UNL1       -0.0545
      3 C          -5.4130    1.3617    0.7385 C.3     1  UNL1       -0.0370
      4 C          -5.3056   -0.1509    0.9275 C.3     1  UNL1        0.0202
      5 N          -4.3139   -0.6537    0.0005 N.am    1  UNL1       -0.2641
      6 C          -4.6050   -1.0950   -1.3294 C.2     1  UNL1        0.2913
      7 O          -5.7433   -1.1043   -1.8609 O.2     1  UNL1       -0.2661
      8 C          -3.3204   -1.5032   -1.8689 C.2     1  UNL1        0.2496
      9 O          -3.1173   -1.9584   -3.0168 O.2     1  UNL1       -0.2817
     10 C          -2.2758   -1.3082   -0.8739 C.ar    1  UNL1        0.0502
     11 C          -0.8960   -1.5320   -0.8692 C.ar    1  UNL1       -0.0226
     12 C          -0.1248   -1.2514    0.2367 C.ar    1  UNL1        0.1063
     13 S           1.6152   -1.5321    0.2467 S.O2    1  UNL1        0.0612
     14 O           1.9586   -1.8727    1.6638 O.2     1  UNL1       -0.1528
     15 O           1.9105   -2.6912   -0.6441 O.2     1  UNL1       -0.1528
     16 N           2.4595   -0.1280   -0.3018 N.3     1  UNL1       -0.1713
     17 C           2.0748    0.1869   -1.6711 C.3     1  UNL1        0.0209
     18 C           3.0864    1.2565   -2.0017 C.3     1  UNL1       -0.0370
     19 C           4.3468    0.6795   -1.3801 C.3     1  UNL1       -0.0323
     20 C           3.9093   -0.3848   -0.3886 C.3     1  UNL1        0.0552
     21 C           4.4931   -0.1376    0.9730 C.3     1  UNL1        0.0652
     22 O           5.8139   -0.3610    1.1431 O.3     1  UNL1       -0.3693
     23 C           6.7383    0.3020    0.4165 C.3     1  UNL1        0.1426
     24 C           8.1159   -0.1779    0.9266 C.3     1  UNL1        0.4128
     25 F           8.2441    0.1104    2.2601 F       1  UNL1       -0.1682
     26 F           9.1128    0.4074    0.1647 F       1  UNL1       -0.1682
     27 F           8.2315   -1.5456    0.7734 F       1  UNL1       -0.1682
     28 C          -0.7600   -0.7397    1.3462 C.ar    1  UNL1       -0.0335
     29 C          -2.1250   -0.5147    1.3517 C.ar    1  UNL1       -0.0377
     30 C          -2.8975   -0.7967    0.2411 C.ar    1  UNL1        0.0477
     31 H          -8.5480    2.0962    1.3425 H       1  UNL1        0.0230
     32 H          -8.0811    0.5850    2.1677 H       1  UNL1        0.0230
     33 H          -7.7486    0.8361    0.3825 H       1  UNL1        0.0230
     34 H          -6.4996    3.0325    1.4457 H       1  UNL1        0.0263
     35 H          -6.1364    1.8161    2.7378 H       1  UNL1        0.0263
     36 H          -4.4308    1.8584    0.9190 H       1  UNL1        0.0280
     37 H          -5.7388    1.5614   -0.2954 H       1  UNL1        0.0280
     38 H          -6.2999   -0.5677    0.7442 H       1  UNL1        0.0469
     39 H          -4.9761   -0.3965    1.9499 H       1  UNL1        0.0469
     40 H          -0.4094   -1.9284   -1.7314 H       1  UNL1        0.0645
     41 H           1.0854    0.6417   -1.7004 H       1  UNL1        0.0444
     42 H           2.2310   -0.6499   -2.3570 H       1  UNL1        0.0444
     43 H           2.8117    2.2257   -1.5700 H       1  UNL1        0.0279
     44 H           3.1805    1.4016   -3.0949 H       1  UNL1        0.0279
     45 H           4.9303    0.2752   -2.2295 H       1  UNL1        0.0282
     46 H           4.8313    1.5372   -0.8609 H       1  UNL1        0.0282
     47 H           4.0835   -1.4104   -0.7422 H       1  UNL1        0.0502
     48 H           4.1585    0.8793    1.3071 H       1  UNL1        0.0576
     49 H           3.9618   -0.8264    1.6980 H       1  UNL1        0.0576
     50 H           6.7327    1.3948    0.5829 H       1  UNL1        0.0650
     51 H           6.6956    0.1388   -0.6846 H       1  UNL1        0.0650
     52 H          -0.2023   -0.4960    2.2570 H       1  UNL1        0.0638
     53 H          -2.6347   -0.1136    2.2160 H       1  UNL1        0.0637
@<TRIPOS>BOND
     1     1     2    1
     2     2     3    1
     3     3     4    1
     4     4     5    1
     5     5     6   am
     6     6     7    2
     7     6     8    1
     8     8     9    2
     9     8    10    1
    10    10    11   ar
    11    11    12   ar
    12    12    13    1
    13    13    14    2
    14    13    15    2
    15    13    16    1
    16    16    17    1
    17    17    18    1
    18    18    19    1
    19    19    20    1
    20    20    21    1
    21    21    22    1
    22    22    23    1
    23    23    24    1
    24    24    25    1
    25    24    26    1
    26    24    27    1
    27    12    28   ar
    28    28    29   ar
    29    29    30   ar
    30    30     5    1
    31    30    10   ar
    32    20    16    1
    33     1    31    1
    34     1    32    1
    35     1    33    1
    36     2    34    1
    37     2    35    1
    38     3    36    1
    39     3    37    1
    40     4    38    1
    41     4    39    1
    42    11    40    1
    43    17    41    1
    44    17    42    1
    45    18    43    1
    46    18    44    1
    47    19    45    1
    48    19    46    1
    49    20    47    1
    50    21    48    1
    51    21    49    1
    52    23    50    1
    53    23    51    1
    54    28    52    1
    55    29    53    1
