
     RDKit          3D

 58 62  0  0  0  0  0  0  0  0999 V2000
    9.2005   -1.3990    0.6087 C   0  0  0  0  0  0  0  0  0  0  0  0
    8.3056   -0.6144    1.2830 O   0  0  0  0  0  0  0  0  0  0  0  0
    7.1460   -0.2970    0.6244 C   0  0  0  0  0  0  0  0  0  0  0  0
    5.9878   -0.9064    1.3569 C   0  0  0  0  0  0  0  0  0  0  0  0
    4.6536   -0.4459    0.7689 C   0  0  0  0  0  0  0  0  0  0  0  0
    4.6619    0.9660    0.5483 N   0  0  0  0  0  0  0  0  0  0  0  0
    3.6752    1.6272   -0.1864 C   0  0  0  0  0  0  0  0  0  0  0  0
    3.7111    2.9054   -0.3554 O   0  0  0  0  0  0  0  0  0  0  0  0
    2.5412    0.9805   -0.8218 C   0  0  0  0  0  0  0  0  0  0  0  0
    1.2671    1.3217   -0.4232 C   0  0  0  0  0  0  0  0  0  0  0  0
    0.1330    0.7813   -0.9836 C   0  0  0  0  0  0  0  0  0  0  0  0
    0.2928   -0.1607   -2.0060 C   0  0  0  0  0  0  0  0  0  0  0  0
   -0.8476   -0.7242   -2.6351 N   0  0  0  0  0  0  0  0  0  0  0  0
   -2.1375   -0.3071   -2.2361 C   0  0  0  0  0  0  0  0  0  0  0  0
   -2.8249   -1.0375   -1.3033 C   0  0  0  0  0  0  0  0  0  0  0  0
   -4.0861   -0.6422   -0.8757 C   0  0  0  0  0  0  0  0  0  0  0  0
   -4.9792   -1.1396    0.0039 N   0  0  0  0  0  0  0  0  0  0  0  0
   -6.0673   -0.3615    0.0506 C   0  0  0  0  0  0  0  0  0  0  0  0
   -7.2598   -0.5532    0.8638 C   0  0  0  0  0  0  0  0  0  0  0  0
   -7.5354   -1.5794    1.7424 C   0  0  0  0  0  0  0  0  0  0  0  0
   -8.7643   -1.3242    2.2634 N   0  0  0  0  0  0  0  0  0  0  0  0
   -9.2724   -0.2258    1.7803 N   0  0  0  0  0  0  0  0  0  0  0  0
  -10.5622    0.3534    2.1010 C   0  0  0  0  0  0  0  0  0  0  0  0
   -8.3609    0.2712    0.9114 C   0  0  0  0  0  0  0  0  0  0  0  0
   -5.8403    0.6675   -0.8406 C   0  0  0  0  0  0  0  0  0  0  0  0
   -4.5969    0.5131   -1.4388 C   0  0  0  0  0  0  0  0  0  0  0  0
   -3.9017    1.2515   -2.3826 C   0  0  0  0  0  0  0  0  0  0  0  0
   -2.6863    0.8245   -2.7602 N   0  0  0  0  0  0  0  0  0  0  0  0
    1.5656   -0.5035   -2.4044 C   0  0  0  0  0  0  0  0  0  0  0  0
    1.8045   -1.6914   -3.6900 Cl  0  0  0  0  0  0  0  0  0  0  0  0
    2.7075    0.0538   -1.8276 C   0  0  0  0  0  0  0  0  0  0  0  0
    5.7738    1.7047    1.1169 C   0  0  0  0  0  0  0  0  0  0  0  0
    7.0010    1.1778    0.3482 C   0  0  0  0  0  0  0  0  0  0  0  0
    9.5494   -0.9398   -0.3644 H   0  0  0  0  0  0  0  0  0  0  0  0
    8.9627   -2.4635    0.5339 H   0  0  0  0  0  0  0  0  0  0  0  0
   10.1487   -1.3712    1.2310 H   0  0  0  0  0  0  0  0  0  0  0  0
    7.1997   -0.8000   -0.3748 H   0  0  0  0  0  0  0  0  0  0  0  0
    6.0855   -0.6784    2.4213 H   0  0  0  0  0  0  0  0  0  0  0  0
    6.0120   -2.0064    1.2576 H   0  0  0  0  0  0  0  0  0  0  0  0
    4.3927   -1.0763   -0.0767 H   0  0  0  0  0  0  0  0  0  0  0  0
    3.8874   -0.6592    1.5575 H   0  0  0  0  0  0  0  0  0  0  0  0
    1.1086    2.0555    0.3767 H   0  0  0  0  0  0  0  0  0  0  0  0
   -0.8586    1.0606   -0.6590 H   0  0  0  0  0  0  0  0  0  0  0  0
   -0.7187   -1.4306   -3.3754 H   0  0  0  0  0  0  0  0  0  0  0  0
   -2.4337   -1.9480   -0.8516 H   0  0  0  0  0  0  0  0  0  0  0  0
   -4.8182   -2.0090    0.5544 H   0  0  0  0  0  0  0  0  0  0  0  0
   -6.9428   -2.4345    2.0066 H   0  0  0  0  0  0  0  0  0  0  0  0
  -10.9887   -0.1094    3.0166 H   0  0  0  0  0  0  0  0  0  0  0  0
  -11.2311    0.0600    1.2339 H   0  0  0  0  0  0  0  0  0  0  0  0
  -10.5633    1.4426    2.1193 H   0  0  0  0  0  0  0  0  0  0  0  0
   -8.4762    1.1946    0.3296 H   0  0  0  0  0  0  0  0  0  0  0  0
   -6.5293    1.4671   -1.0375 H   0  0  0  0  0  0  0  0  0  0  0  0
   -4.3180    2.1536   -2.8126 H   0  0  0  0  0  0  0  0  0  0  0  0
    3.6788   -0.2543   -2.1877 H   0  0  0  0  0  0  0  0  0  0  0  0
    5.8506    1.3658    2.1846 H   0  0  0  0  0  0  0  0  0  0  0  0
    5.6818    2.7884    1.0110 H   0  0  0  0  0  0  0  0  0  0  0  0
    7.8923    1.7676    0.5381 H   0  0  0  0  0  0  0  0  0  0  0  0
    6.7229    1.3382   -0.7279 H   0  0  0  0  0  0  0  0  0  0  0  0
  1  2  1  0
  2  3  1  0
  3  4  1  0
  4  5  1  0
  5  6  1  0
  6  7  1  0
  7  8  2  0
  7  9  1  0
  9 10  2  0
 10 11  1  0
 11 12  2  0
 12 13  1  0
 13 14  1  0
 14 15  2  0
 15 16  1  0
 16 17  1  0
 17 18  1  0
 18 19  1  0
 19 20  1  0
 20 21  2  0
 21 22  1  0
 22 23  1  0
 22 24  1  0
 18 25  2  0
 25 26  1  0
 26 27  1  0
 27 28  2  0
 12 29  1  0
 29 30  1  0
 29 31  2  0
  6 32  1  0
 32 33  1  0
 33  3  1  0
 31  9  1  0
 28 14  1  0
 26 16  2  0
 24 19  2  0
  1 34  1  0
  1 35  1  0
  1 36  1  0
  3 37  1  0
  4 38  1  0
  4 39  1  0
  5 40  1  0
  5 41  1  0
 10 42  1  0
 11 43  1  0
 13 44  1  0
 15 45  1  0
 17 46  1  0
 20 47  1  0
 23 48  1  0
 23 49  1  0
 23 50  1  0
 24 51  1  0
 25 52  1  0
 27 53  1  0
 31 54  1  0
 32 55  1  0
 32 56  1  0
 33 57  1  0
 33 58  1  0
M  END
$$$$
