@<TRIPOS>MOLECULE
*****
 58 62 0 0 0
SMALL
GASTEIGER

@<TRIPOS>ATOM
      1 C           9.2005   -1.3990    0.6087 C.3     1  UNL1        0.0368
      2 O           8.3056   -0.6144    1.2830 O.3     1  UNL1       -0.3797
      3 C           7.1460   -0.2970    0.6244 C.3     1  UNL1        0.0612
      4 C           5.9878   -0.9064    1.3569 C.3     1  UNL1       -0.0107
      5 C           4.6536   -0.4459    0.7689 C.3     1  UNL1        0.0173
      6 N           4.6619    0.9660    0.5483 N.am    1  UNL1       -0.2974
      7 C           3.6752    1.6272   -0.1864 C.2     1  UNL1        0.2467
      8 O           3.7111    2.9054   -0.3554 O.2     1  UNL1       -0.2700
      9 C           2.5412    0.9805   -0.8218 C.ar    1  UNL1        0.0384
     10 C           1.2671    1.3217   -0.4232 C.ar    1  UNL1       -0.0478
     11 C           0.1330    0.7813   -0.9836 C.ar    1  UNL1       -0.0384
     12 C           0.2928   -0.1607   -2.0060 C.ar    1  UNL1        0.0510
     13 N          -0.8476   -0.7242   -2.6351 N.pl3   1  UNL1       -0.2982
     14 C          -2.1375   -0.3071   -2.2361 C.ar    1  UNL1        0.1249
     15 C          -2.8249   -1.0375   -1.3033 C.ar    1  UNL1        0.0023
     16 C          -4.0861   -0.6422   -0.8757 C.ar    1  UNL1        0.0516
     17 N          -4.9792   -1.1396    0.0039 N.ar    1  UNL1       -0.3539
     18 C          -6.0673   -0.3615    0.0506 C.ar    1  UNL1        0.0505
     19 C          -7.2598   -0.5532    0.8638 C.ar    1  UNL1        0.0357
     20 C          -7.5354   -1.5794    1.7424 C.ar    1  UNL1        0.0585
     21 N          -8.7643   -1.3242    2.2634 N.ar    1  UNL1       -0.1792
     22 N          -9.2724   -0.2258    1.7803 N.ar    1  UNL1       -0.2738
     23 C         -10.5622    0.3534    2.1010 C.3     1  UNL1        0.0302
     24 C          -8.3609    0.2712    0.9114 C.ar    1  UNL1        0.0343
     25 C          -5.8403    0.6675   -0.8406 C.ar    1  UNL1       -0.0271
     26 C          -4.5969    0.5131   -1.4388 C.ar    1  UNL1        0.0185
     27 C          -3.9017    1.2515   -2.3826 C.ar    1  UNL1        0.0389
     28 N          -2.6863    0.8245   -2.7602 N.ar    1  UNL1       -0.2395
     29 C           1.5656   -0.5035   -2.4044 C.ar    1  UNL1        0.0628
     30 CL          1.8045   -1.6914   -3.6900 Cl      1  UNL1       -0.0816
     31 C           2.7075    0.0538   -1.8276 C.ar    1  UNL1       -0.0295
     32 C           5.7738    1.7047    1.1169 C.3     1  UNL1        0.0173
     33 C           7.0010    1.1778    0.3482 C.3     1  UNL1       -0.0107
     34 H           9.5494   -0.9398   -0.3644 H       1  UNL1        0.0524
     35 H           8.9627   -2.4635    0.5339 H       1  UNL1        0.0524
     36 H          10.1487   -1.3712    1.2310 H       1  UNL1        0.0524
     37 H           7.1997   -0.8000   -0.3748 H       1  UNL1        0.0597
     38 H           6.0855   -0.6784    2.4213 H       1  UNL1        0.0305
     39 H           6.0120   -2.0064    1.2576 H       1  UNL1        0.0305
     40 H           4.3927   -1.0763   -0.0767 H       1  UNL1        0.0465
     41 H           3.8874   -0.6592    1.5575 H       1  UNL1        0.0465
     42 H           1.1086    2.0555    0.3767 H       1  UNL1        0.0626
     43 H          -0.8586    1.0606   -0.6590 H       1  UNL1        0.0637
     44 H          -0.7187   -1.4306   -3.3754 H       1  UNL1        0.1536
     45 H          -2.4337   -1.9480   -0.8516 H       1  UNL1        0.0673
     46 H          -4.8182   -2.0090    0.5544 H       1  UNL1        0.1659
     47 H          -6.9428   -2.4345    2.0066 H       1  UNL1        0.0854
     48 H         -10.9887   -0.1094    3.0166 H       1  UNL1        0.0473
     49 H         -11.2311    0.0600    1.2339 H       1  UNL1        0.0473
     50 H         -10.5633    1.4426    2.1193 H       1  UNL1        0.0473
     51 H          -8.4762    1.1946    0.3296 H       1  UNL1        0.0833
     52 H          -6.5293    1.4671   -1.0375 H       1  UNL1        0.0645
     53 H          -4.3180    2.1536   -2.8126 H       1  UNL1        0.0837
     54 H           3.6788   -0.2543   -2.1877 H       1  UNL1        0.0640
     55 H           5.8506    1.3658    2.1846 H       1  UNL1        0.0465
     56 H           5.6818    2.7884    1.0110 H       1  UNL1        0.0465
     57 H           7.8923    1.7676    0.5381 H       1  UNL1        0.0305
     58 H           6.7229    1.3382   -0.7279 H       1  UNL1        0.0305
@<TRIPOS>BOND
     1     1     2    1
     2     2     3    1
     3     3     4    1
     4     4     5    1
     5     5     6    1
     6     6     7   am
     7     7     8    2
     8     7     9    1
     9     9    10   ar
    10    10    11   ar
    11    11    12   ar
    12    12    13    1
    13    13    14    1
    14    14    15   ar
    15    15    16   ar
    16    16    17   ar
    17    17    18   ar
    18    18    19    1
    19    19    20   ar
    20    20    21   ar
    21    21    22   ar
    22    22    23    1
    23    22    24   ar
    24    18    25   ar
    25    25    26   ar
    26    26    27   ar
    27    27    28   ar
    28    12    29   ar
    29    29    30    1
    30    29    31   ar
    31     6    32    1
    32    32    33    1
    33    33     3    1
    34    31     9   ar
    35    28    14   ar
    36    26    16   ar
    37    24    19   ar
    38     1    34    1
    39     1    35    1
    40     1    36    1
    41     3    37    1
    42     4    38    1
    43     4    39    1
    44     5    40    1
    45     5    41    1
    46    10    42    1
    47    11    43    1
    48    13    44    1
    49    15    45    1
    50    17    46    1
    51    20    47    1
    52    23    48    1
    53    23    49    1
    54    23    50    1
    55    24    51    1
    56    25    52    1
    57    27    53    1
    58    31    54    1
    59    32    55    1
    60    32    56    1
    61    33    57    1
    62    33    58    1
