@<TRIPOS>MOLECULE
*****
 41 43 0 0 0
SMALL
GASTEIGER

@<TRIPOS>ATOM
      1 C          -4.4140    0.2789    0.4766 C.3     1  UNL1        0.0863
      2 C          -4.1812   -0.4846    1.7402 C.3     1  UNL1        0.0038
      3 C          -4.2415   -1.9522    1.4066 C.2     1  UNL1        0.0428
      4 O          -5.4658   -2.1946    0.7480 O.co2   1  UNL1       -0.5498
      5 O          -5.3384   -2.1800    0.8143 O.co2   1  UNL1       -0.5498
      6 C          -4.3748    1.7640    0.7260 C.2     1  UNL1        0.3126
      7 O          -3.8932    3.0076    1.0871 O.3     1  UNL1       -0.4802
      8 O          -5.3621    2.5268    0.5081 O.2     1  UNL1       -0.2503
      9 C          -3.3699    0.0071   -0.5506 C.ar    1  UNL1       -0.0317
     10 C          -2.0557    0.0558   -0.1552 C.ar    1  UNL1       -0.0476
     11 C          -0.9903   -0.1807   -1.0288 C.ar    1  UNL1        0.0109
     12 C           0.3948   -0.1365   -0.5892 C.ar    1  UNL1        0.1387
     13 N           0.7589    0.1120    0.6796 N.ar    1  UNL1       -0.2278
     14 C           2.0956    0.0878    0.8163 C.ar    1  UNL1        0.0895
     15 C           2.6165   -0.1916   -0.4383 C.ar    1  UNL1        0.0673
     16 N           1.5558   -0.3133   -1.2268 N.ar    1  UNL1       -0.3379
     17 C           3.9930   -0.2645   -0.5198 C.ar    1  UNL1       -0.0214
     18 C           4.8132   -0.0754    0.5643 C.ar    1  UNL1        0.0668
     19 C           4.2260    0.1981    1.7765 C.ar    1  UNL1       -0.0448
     20 C           2.8564    0.2867    1.9353 C.ar    1  UNL1       -0.0334
     21 C           6.2471   -0.1713    0.3980 C.2     1  UNL1        0.3082
     22 N           7.1653    0.5726    1.2193 N.pl3   1  UNL1       -0.2466
     23 N           6.8610   -0.9006   -0.4654 N.2     1  UNL1       -0.0994
     24 C          -1.3792   -0.4662   -2.3186 C.ar    1  UNL1       -0.0832
     25 O          -0.4213   -0.7234   -3.2885 O.co2   1  UNL1       -0.8725
     26 C          -2.6799   -0.5273   -2.7648 C.ar    1  UNL1        0.0111
     27 BR         -3.1575   -0.9298   -4.5643 Br      1  UNL1       -0.0509
     28 C          -3.6949   -0.2859   -1.8638 C.ar    1  UNL1       -0.0443
     29 H          -5.4036    0.0938    0.0352 H       1  UNL1        0.0466
     30 H          -5.0825   -0.2889    2.3932 H       1  UNL1        0.0336
     31 H          -3.2984   -0.2014    2.3051 H       1  UNL1        0.0336
     32 H          -3.0582    3.3934    0.6773 H       1  UNL1        0.2951
     33 H          -1.7788    0.2860    0.8711 H       1  UNL1        0.0627
     34 H           1.6361   -0.5279   -2.2413 H       1  UNL1        0.1674
     35 H           4.3483   -0.4898   -1.5387 H       1  UNL1        0.0647
     36 H           4.8849    0.3481    2.6408 H       1  UNL1        0.0627
     37 H           2.4573    0.5032    2.9253 H       1  UNL1        0.0640
     38 H           7.9294    1.2450    0.9500 H       1  UNL1        0.2884
     39 H           7.1745    0.5259    2.2630 H       1  UNL1        0.2884
     40 H           6.3746   -1.5090   -1.1470 H       1  UNL1        0.3633
     41 H          -4.7473   -0.2977   -2.0726 H       1  UNL1        0.0631
@<TRIPOS>UNITY_ATOM_ATTR
4 1
charge -1
25 1
charge -1
@<TRIPOS>BOND
     1     1     2    1
     2     2     3    1
     3     3     4   ar
     4     3     5   ar
     5     1     6    1
     6     6     7    1
     7     6     8    2
     8     1     9    1
     9     9    10   ar
    10    10    11   ar
    11    11    12    1
    12    12    13   ar
    13    13    14   ar
    14    14    15   ar
    15    15    16   ar
    16    15    17   ar
    17    17    18   ar
    18    18    19   ar
    19    19    20   ar
    20    18    21    1
    21    21    22    1
    22    21    23    2
    23    11    24   ar
    24    24    25    1
    25    24    26   ar
    26    26    27    1
    27    26    28   ar
    28    28     9   ar
    29    16    12   ar
    30    20    14   ar
    31     1    29    1
    32     2    30    1
    33     2    31    1
    34     7    32    1
    35    10    33    1
    36    16    34    1
    37    17    35    1
    38    19    36    1
    39    20    37    1
    40    22    38    1
    41    22    39    1
    42    23    40    1
    43    28    41    1
