
     RDKit          3D

 41 43  0  0  0  0  0  0  0  0999 V2000
   -4.4140    0.2789    0.4766 C   0  0  1  0  0  0  0  0  0  0  0  0
   -4.1812   -0.4846    1.7402 C   0  0  0  0  0  0  0  0  0  0  0  0
   -4.2415   -1.9522    1.4066 C   0  0  0  0  0  0  0  0  0  0  0  0
   -5.4658   -2.1946    0.7480 O   0  0  0  0  0  1  0  0  0  0  0  0
   -5.3384   -2.1800    0.8143 O   0  0  0  0  0  0  0  0  0  0  0  0
   -4.3748    1.7640    0.7260 C   0  0  0  0  0  0  0  0  0  0  0  0
   -3.8932    3.0076    1.0871 O   0  0  0  0  0  0  0  0  0  0  0  0
   -5.3621    2.5268    0.5081 O   0  0  0  0  0  0  0  0  0  0  0  0
   -3.3699    0.0071   -0.5506 C   0  0  0  0  0  0  0  0  0  0  0  0
   -2.0557    0.0558   -0.1552 C   0  0  0  0  0  0  0  0  0  0  0  0
   -0.9903   -0.1807   -1.0288 C   0  0  0  0  0  0  0  0  0  0  0  0
    0.3948   -0.1365   -0.5892 C   0  0  0  0  0  0  0  0  0  0  0  0
    0.7589    0.1120    0.6796 N   0  0  0  0  0  0  0  0  0  0  0  0
    2.0956    0.0878    0.8163 C   0  0  0  0  0  0  0  0  0  0  0  0
    2.6165   -0.1916   -0.4383 C   0  0  0  0  0  0  0  0  0  0  0  0
    1.5558   -0.3133   -1.2268 N   0  0  0  0  0  0  0  0  0  0  0  0
    3.9930   -0.2645   -0.5198 C   0  0  0  0  0  0  0  0  0  0  0  0
    4.8132   -0.0754    0.5643 C   0  0  0  0  0  0  0  0  0  0  0  0
    4.2260    0.1981    1.7765 C   0  0  0  0  0  0  0  0  0  0  0  0
    2.8564    0.2867    1.9353 C   0  0  0  0  0  0  0  0  0  0  0  0
    6.2471   -0.1713    0.3980 C   0  0  0  0  0  0  0  0  0  0  0  0
    7.1653    0.5726    1.2193 N   0  0  0  0  0  0  0  0  0  0  0  0
    6.8610   -0.9006   -0.4654 N   0  0  0  0  0  0  0  0  0  0  0  0
   -1.3792   -0.4662   -2.3186 C   0  0  0  0  0  0  0  0  0  0  0  0
   -0.4213   -0.7234   -3.2885 O   0  0  0  0  0  1  0  0  0  0  0  0
   -2.6799   -0.5273   -2.7648 C   0  0  0  0  0  0  0  0  0  0  0  0
   -3.1575   -0.9298   -4.5643 Br  0  0  0  0  0  0  0  0  0  0  0  0
   -3.6949   -0.2859   -1.8638 C   0  0  0  0  0  0  0  0  0  0  0  0
   -5.4036    0.0938    0.0352 H   0  0  0  0  0  0  0  0  0  0  0  0
   -5.0825   -0.2889    2.3932 H   0  0  0  0  0  0  0  0  0  0  0  0
   -3.2984   -0.2014    2.3051 H   0  0  0  0  0  0  0  0  0  0  0  0
   -3.0582    3.3934    0.6773 H   0  0  0  0  0  0  0  0  0  0  0  0
   -1.7788    0.2860    0.8711 H   0  0  0  0  0  0  0  0  0  0  0  0
    1.6361   -0.5279   -2.2413 H   0  0  0  0  0  0  0  0  0  0  0  0
    4.3483   -0.4898   -1.5387 H   0  0  0  0  0  0  0  0  0  0  0  0
    4.8849    0.3481    2.6408 H   0  0  0  0  0  0  0  0  0  0  0  0
    2.4573    0.5032    2.9253 H   0  0  0  0  0  0  0  0  0  0  0  0
    7.9294    1.2450    0.9500 H   0  0  0  0  0  0  0  0  0  0  0  0
    7.1745    0.5259    2.2630 H   0  0  0  0  0  0  0  0  0  0  0  0
    6.3746   -1.5090   -1.1470 H   0  0  0  0  0  0  0  0  0  0  0  0
   -4.7473   -0.2977   -2.0726 H   0  0  0  0  0  0  0  0  0  0  0  0
  1  2  1  0
  2  3  1  0
  3  4  1  0
  3  5  2  0
  1  6  1  0
  6  7  1  0
  6  8  2  0
  1  9  1  0
  9 10  2  0
 10 11  1  0
 11 12  1  0
 12 13  2  0
 13 14  1  0
 14 15  2  0
 15 16  1  0
 15 17  1  0
 17 18  2  0
 18 19  1  0
 19 20  2  0
 18 21  1  0
 21 22  1  0
 21 23  2  3
 11 24  2  0
 24 25  1  0
 24 26  1  0
 26 27  1  0
 26 28  2  0
 28  9  1  0
 16 12  1  0
 20 14  1  0
  1 29  1  6
  2 30  1  0
  2 31  1  0
  7 32  1  0
 10 33  1  0
 16 34  1  0
 17 35  1  0
 19 36  1  0
 20 37  1  0
 22 38  1  0
 22 39  1  0
 23 40  1  0
 28 41  1  0
M  CHG  2   4  -1  25  -1
M  END
$$$$
