@<TRIPOS>MOLECULE
*****
 40 43 0 0 0
SMALL
GASTEIGER

@<TRIPOS>ATOM
      1 C           3.2062   -0.2924    2.2016 C.3     1  UNL1        0.0121
      2 N           2.4705   -0.0791    0.9641 N.ar    1  UNL1       -0.3460
      3 C           1.3257   -0.6530    0.5661 C.ar    1  UNL1        0.0331
      4 C           1.0039   -0.1435   -0.6750 C.ar    1  UNL1        0.0653
      5 C           1.9796    0.7629   -1.0383 C.ar    1  UNL1        0.0122
      6 C           2.1477    1.5484   -2.1604 C.ar    1  UNL1       -0.0518
      7 C           3.2648    2.3513   -2.1810 C.ar    1  UNL1       -0.0611
      8 C           4.2235    2.4409   -1.1893 C.ar    1  UNL1       -0.0598
      9 C           3.9831    1.6147   -0.0847 C.ar    1  UNL1       -0.0376
     10 C           2.8813    0.7878   -0.0055 C.ar    1  UNL1        0.0498
     11 C          -0.2130   -0.6168   -1.3240 C.2     1  UNL1        0.2493
     12 O          -0.5636   -0.1930   -2.4555 O.2     1  UNL1       -0.2699
     13 N          -0.9993   -1.5815   -0.6327 N.am    1  UNL1       -0.2912
     14 C          -2.4204   -1.7271   -0.9309 C.3     1  UNL1        0.0588
     15 C          -3.2889   -0.8807   -0.1130 C.ar    1  UNL1        0.0790
     16 C          -3.6049    0.4548   -0.1184 C.ar    1  UNL1        0.0370
     17 C          -3.0401    1.4012   -1.0963 C.3     1  UNL1       -0.0226
     18 N          -4.4863    0.7554    0.8796 N.ar    1  UNL1       -0.3481
     19 C          -4.7223   -0.4207    1.5186 C.ar    1  UNL1        0.0939
     20 N          -4.0124   -1.3858    0.9287 N.ar    1  UNL1       -0.2390
     21 C          -0.4021   -2.4333    0.3789 C.3     1  UNL1        0.0207
     22 C           0.5207   -1.6627    1.3021 C.3     1  UNL1        0.0043
     23 H           4.2454    0.0499    2.0976 H       1  UNL1        0.0456
     24 H           3.2425   -1.4142    2.3182 H       1  UNL1        0.0456
     25 H           2.7667    0.1954    3.0739 H       1  UNL1        0.0456
     26 H           1.4402    1.5348   -2.9812 H       1  UNL1        0.0624
     27 H           3.3855    2.9687   -3.0760 H       1  UNL1        0.0618
     28 H           5.0817    3.0892   -1.2577 H       1  UNL1        0.0618
     29 H           4.7063    1.6465    0.7240 H       1  UNL1        0.0638
     30 H          -2.6439   -2.8097   -0.8217 H       1  UNL1        0.0530
     31 H          -2.5695   -1.5404   -2.0349 H       1  UNL1        0.0530
     32 H          -3.6840    2.3033   -1.1969 H       1  UNL1        0.0292
     33 H          -2.0044    1.6813   -0.8548 H       1  UNL1        0.0292
     34 H          -3.0633    0.8932   -2.1013 H       1  UNL1        0.0292
     35 H          -4.8890    1.6798    1.1025 H       1  UNL1        0.1665
     36 H          -5.3931   -0.5094    2.3719 H       1  UNL1        0.1027
     37 H           0.1495   -3.2717   -0.0904 H       1  UNL1        0.0468
     38 H          -1.2069   -2.8711    1.0014 H       1  UNL1        0.0468
     39 H          -0.0141   -1.2297    2.1699 H       1  UNL1        0.0343
     40 H           1.1969   -2.4440    1.7574 H       1  UNL1        0.0343
@<TRIPOS>BOND
     1     1     2    1
     2     2     3   ar
     3     3     4   ar
     4     4     5   ar
     5     5     6   ar
     6     6     7   ar
     7     7     8   ar
     8     8     9   ar
     9     9    10   ar
    10     4    11    1
    11    11    12    2
    12    11    13   am
    13    13    14    1
    14    14    15    1
    15    15    16   ar
    16    16    17    1
    17    16    18   ar
    18    18    19   ar
    19    19    20   ar
    20    13    21    1
    21    21    22    1
    22    10     2   ar
    23    20    15   ar
    24    22     3    1
    25    10     5   ar
    26     1    23    1
    27     1    24    1
    28     1    25    1
    29     6    26    1
    30     7    27    1
    31     8    28    1
    32     9    29    1
    33    14    30    1
    34    14    31    1
    35    17    32    1
    36    17    33    1
    37    17    34    1
    38    18    35    1
    39    19    36    1
    40    21    37    1
    41    21    38    1
    42    22    39    1
    43    22    40    1
