@<TRIPOS>MOLECULE
*****
 67 71 0 0 0
SMALL
GASTEIGER

@<TRIPOS>ATOM
      1 C          -6.6081   -2.7162   -5.0635 C.3     1  UNL1       -0.0224
      2 C          -5.4531   -2.0558   -4.3648 C.ar    1  UNL1        0.0382
      3 C          -5.6386   -1.4988   -3.1095 C.ar    1  UNL1       -0.0404
      4 C          -4.5319   -0.8956   -2.5009 C.ar    1  UNL1       -0.0552
      5 C          -3.3092   -0.8374   -3.0823 C.ar    1  UNL1       -0.0262
      6 C          -2.1466   -0.2156   -2.4383 C.3     1  UNL1       -0.0143
      7 C          -2.4592    0.3203   -1.0942 C.3     1  UNL1       -0.0447
      8 C          -2.4818   -0.7836   -0.0780 C.3     1  UNL1       -0.0368
      9 C          -1.0251   -1.3066   -0.0115 C.3     1  UNL1        0.0106
     10 N          -0.9473   -2.0560    1.1940 N.3     1  UNL1       -0.2958
     11 C           0.2661   -2.7035    1.5576 C.3     1  UNL1        0.0189
     12 C           0.2123   -1.9989    2.8768 C.3     1  UNL1        0.0486
     13 N           1.4523   -1.2964    3.1696 N.am    1  UNL1       -0.3087
     14 C           1.9925   -1.1685    4.4453 C.2     1  UNL1        0.2305
     15 O           1.3824   -1.6864    5.4345 O.2     1  UNL1       -0.2741
     16 C           3.2533   -0.4596    4.7395 C.3     1  UNL1        0.0870
     17 N           3.8167    0.0736    3.5307 N.pl3   1  UNL1       -0.3186
     18 C           3.1404    1.1389    2.8616 C.ar    1  UNL1        0.1488
     19 N           2.0153    1.7681    3.1696 N.ar    1  UNL1       -0.1554
     20 N           1.7383    2.7070    2.2690 N.ar    1  UNL1       -0.2650
     21 C           0.5698    3.6009    2.2912 C.3     1  UNL1        0.0309
     22 C           2.7149    2.6843    1.3490 C.ar    1  UNL1        0.0705
     23 C           2.9410    3.4288    0.2017 C.ar    1  UNL1       -0.0355
     24 C           4.0653    3.1863   -0.5877 C.ar    1  UNL1       -0.0481
     25 C           4.9788    2.2014   -0.2461 C.ar    1  UNL1        0.0556
     26 C           6.1864    1.9411   -1.0902 C.3     1  UNL1        0.4174
     27 F           7.2538    1.8135   -0.1955 F       1  UNL1       -0.1659
     28 F           6.0595    0.7392   -1.7356 F       1  UNL1       -0.1659
     29 F           6.4599    2.9929   -1.9208 F       1  UNL1       -0.1659
     30 C           4.7264    1.4812    0.8969 C.ar    1  UNL1       -0.0376
     31 C           3.6190    1.7051    1.6920 C.ar    1  UNL1        0.0419
     32 C          -0.8780   -1.1015    2.3200 C.3     1  UNL1        0.0189
     33 C          -0.8528   -2.0731   -1.2845 C.3     1  UNL1       -0.0368
     34 C          -0.9279   -1.0923   -2.4190 C.3     1  UNL1       -0.0447
     35 C          -3.1703   -1.4131   -4.3489 C.ar    1  UNL1        0.0313
     36 N          -4.2357   -1.9864   -4.9191 N.ar    1  UNL1       -0.2599
     37 H          -6.8668   -3.6201   -4.4457 H       1  UNL1        0.0292
     38 H          -7.4369   -1.9913   -5.0388 H       1  UNL1        0.0292
     39 H          -6.2712   -3.0047   -6.0708 H       1  UNL1        0.0292
     40 H          -6.6069   -1.5385   -2.6410 H       1  UNL1        0.0635
     41 H          -4.7534   -0.4677   -1.5274 H       1  UNL1        0.0621
     42 H          -1.8101    0.6873   -3.0619 H       1  UNL1        0.0349
     43 H          -3.3708    0.9517   -1.0591 H       1  UNL1        0.0272
     44 H          -1.6389    1.0230   -0.7503 H       1  UNL1        0.0272
     45 H          -3.0811   -1.6437   -0.4538 H       1  UNL1        0.0280
     46 H          -2.8298   -0.4867    0.9157 H       1  UNL1        0.0280
     47 H          -0.3729   -0.4141   -0.0415 H       1  UNL1        0.0462
     48 H           1.1582   -2.5239    0.9468 H       1  UNL1        0.0445
     49 H           0.1132   -3.8103    1.7351 H       1  UNL1        0.0445
     50 H          -0.1807   -2.5223    3.7477 H       1  UNL1        0.0523
     51 H           1.9289   -0.8888    2.3421 H       1  UNL1        0.1491
     52 H           3.9933   -1.1395    5.2190 H       1  UNL1        0.0557
     53 H           3.0848    0.3643    5.4925 H       1  UNL1        0.0557
     54 H           4.7073   -0.3284    3.1636 H       1  UNL1        0.1480
     55 H           0.9262    4.6331    2.1453 H       1  UNL1        0.0473
     56 H          -0.0018    3.3253    1.3670 H       1  UNL1        0.0473
     57 H          -0.0256    3.4516    3.1930 H       1  UNL1        0.0473
     58 H           2.2114    4.1911   -0.0387 H       1  UNL1        0.0639
     59 H           4.2365    3.7799   -1.4937 H       1  UNL1        0.0624
     60 H           5.4457    0.7052    1.1673 H       1  UNL1        0.0631
     61 H          -0.4492   -0.1329    2.0550 H       1  UNL1        0.0445
     62 H          -1.7959   -1.0354    2.9264 H       1  UNL1        0.0445
     63 H          -1.6283   -2.8817   -1.3767 H       1  UNL1        0.0280
     64 H           0.1425   -2.5583   -1.3450 H       1  UNL1        0.0280
     65 H          -0.7428   -1.5722   -3.4079 H       1  UNL1        0.0272
     66 H          -0.0306   -0.4131   -2.2837 H       1  UNL1        0.0272
     67 H          -2.2333   -1.4118   -4.8891 H       1  UNL1        0.0832
@<TRIPOS>BOND
     1     1     2    1
     2     2     3   ar
     3     3     4   ar
     4     4     5   ar
     5     5     6    1
     6     6     7    1
     7     7     8    1
     8     8     9    1
     9     9    10    1
    10    10    11    1
    11    11    12    1
    12    12    13    1
    13    13    14   am
    14    14    15    2
    15    14    16    1
    16    16    17    1
    17    17    18    1
    18    18    19   ar
    19    19    20   ar
    20    20    21    1
    21    20    22   ar
    22    22    23   ar
    23    23    24   ar
    24    24    25   ar
    25    25    26    1
    26    26    27    1
    27    26    28    1
    28    26    29    1
    29    25    30   ar
    30    30    31   ar
    31    12    32    1
    32     9    33    1
    33    33    34    1
    34     5    35   ar
    35    35    36   ar
    36    36     2   ar
    37    34     6    1
    38    32    10    1
    39    31    18   ar
    40    31    22   ar
    41     1    37    1
    42     1    38    1
    43     1    39    1
    44     3    40    1
    45     4    41    1
    46     6    42    1
    47     7    43    1
    48     7    44    1
    49     8    45    1
    50     8    46    1
    51     9    47    1
    52    11    48    1
    53    11    49    1
    54    12    50    1
    55    13    51    1
    56    16    52    1
    57    16    53    1
    58    17    54    1
    59    21    55    1
    60    21    56    1
    61    21    57    1
    62    23    58    1
    63    24    59    1
    64    30    60    1
    65    32    61    1
    66    32    62    1
    67    33    63    1
    68    33    64    1
    69    34    65    1
    70    34    66    1
    71    35    67    1
