
     RDKit          3D

 67 71  0  0  0  0  0  0  0  0999 V2000
   -6.6081   -2.7162   -5.0635 C   0  0  0  0  0  0  0  0  0  0  0  0
   -5.4531   -2.0558   -4.3648 C   0  0  0  0  0  0  0  0  0  0  0  0
   -5.6386   -1.4988   -3.1095 C   0  0  0  0  0  0  0  0  0  0  0  0
   -4.5319   -0.8956   -2.5009 C   0  0  0  0  0  0  0  0  0  0  0  0
   -3.3092   -0.8374   -3.0823 C   0  0  0  0  0  0  0  0  0  0  0  0
   -2.1466   -0.2156   -2.4383 C   0  0  1  0  0  0  0  0  0  0  0  0
   -2.4592    0.3203   -1.0942 C   0  0  0  0  0  0  0  0  0  0  0  0
   -2.4818   -0.7836   -0.0780 C   0  0  0  0  0  0  0  0  0  0  0  0
   -1.0251   -1.3066   -0.0115 C   0  0  1  0  0  0  0  0  0  0  0  0
   -0.9473   -2.0560    1.1940 N   0  0  0  0  0  0  0  0  0  0  0  0
    0.2661   -2.7035    1.5576 C   0  0  0  0  0  0  0  0  0  0  0  0
    0.2123   -1.9989    2.8768 C   0  0  0  0  0  0  0  0  0  0  0  0
    1.4523   -1.2964    3.1696 N   0  0  0  0  0  0  0  0  0  0  0  0
    1.9925   -1.1685    4.4453 C   0  0  0  0  0  0  0  0  0  0  0  0
    1.3824   -1.6864    5.4345 O   0  0  0  0  0  0  0  0  0  0  0  0
    3.2533   -0.4596    4.7395 C   0  0  0  0  0  0  0  0  0  0  0  0
    3.8167    0.0736    3.5307 N   0  0  0  0  0  0  0  0  0  0  0  0
    3.1404    1.1389    2.8616 C   0  0  0  0  0  0  0  0  0  0  0  0
    2.0153    1.7681    3.1696 N   0  0  0  0  0  0  0  0  0  0  0  0
    1.7383    2.7070    2.2690 N   0  0  0  0  0  0  0  0  0  0  0  0
    0.5698    3.6009    2.2912 C   0  0  0  0  0  0  0  0  0  0  0  0
    2.7149    2.6843    1.3490 C   0  0  0  0  0  0  0  0  0  0  0  0
    2.9410    3.4288    0.2017 C   0  0  0  0  0  0  0  0  0  0  0  0
    4.0653    3.1863   -0.5877 C   0  0  0  0  0  0  0  0  0  0  0  0
    4.9788    2.2014   -0.2461 C   0  0  0  0  0  0  0  0  0  0  0  0
    6.1864    1.9411   -1.0902 C   0  0  0  0  0  0  0  0  0  0  0  0
    7.2538    1.8135   -0.1955 F   0  0  0  0  0  0  0  0  0  0  0  0
    6.0595    0.7392   -1.7356 F   0  0  0  0  0  0  0  0  0  0  0  0
    6.4599    2.9929   -1.9208 F   0  0  0  0  0  0  0  0  0  0  0  0
    4.7264    1.4812    0.8969 C   0  0  0  0  0  0  0  0  0  0  0  0
    3.6190    1.7051    1.6920 C   0  0  0  0  0  0  0  0  0  0  0  0
   -0.8780   -1.1015    2.3200 C   0  0  0  0  0  0  0  0  0  0  0  0
   -0.8528   -2.0731   -1.2845 C   0  0  0  0  0  0  0  0  0  0  0  0
   -0.9279   -1.0923   -2.4190 C   0  0  0  0  0  0  0  0  0  0  0  0
   -3.1703   -1.4131   -4.3489 C   0  0  0  0  0  0  0  0  0  0  0  0
   -4.2357   -1.9864   -4.9191 N   0  0  0  0  0  0  0  0  0  0  0  0
   -6.8668   -3.6201   -4.4457 H   0  0  0  0  0  0  0  0  0  0  0  0
   -7.4369   -1.9913   -5.0388 H   0  0  0  0  0  0  0  0  0  0  0  0
   -6.2712   -3.0047   -6.0708 H   0  0  0  0  0  0  0  0  0  0  0  0
   -6.6069   -1.5385   -2.6410 H   0  0  0  0  0  0  0  0  0  0  0  0
   -4.7534   -0.4677   -1.5274 H   0  0  0  0  0  0  0  0  0  0  0  0
   -1.8101    0.6873   -3.0619 H   0  0  0  0  0  0  0  0  0  0  0  0
   -3.3708    0.9517   -1.0591 H   0  0  0  0  0  0  0  0  0  0  0  0
   -1.6389    1.0230   -0.7503 H   0  0  0  0  0  0  0  0  0  0  0  0
   -3.0811   -1.6437   -0.4538 H   0  0  0  0  0  0  0  0  0  0  0  0
   -2.8298   -0.4867    0.9157 H   0  0  0  0  0  0  0  0  0  0  0  0
   -0.3729   -0.4141   -0.0415 H   0  0  0  0  0  0  0  0  0  0  0  0
    1.1582   -2.5239    0.9468 H   0  0  0  0  0  0  0  0  0  0  0  0
    0.1132   -3.8103    1.7351 H   0  0  0  0  0  0  0  0  0  0  0  0
   -0.1807   -2.5223    3.7477 H   0  0  0  0  0  0  0  0  0  0  0  0
    1.9289   -0.8888    2.3421 H   0  0  0  0  0  0  0  0  0  0  0  0
    3.9933   -1.1395    5.2190 H   0  0  0  0  0  0  0  0  0  0  0  0
    3.0848    0.3643    5.4925 H   0  0  0  0  0  0  0  0  0  0  0  0
    4.7073   -0.3284    3.1636 H   0  0  0  0  0  0  0  0  0  0  0  0
    0.9262    4.6331    2.1453 H   0  0  0  0  0  0  0  0  0  0  0  0
   -0.0018    3.3253    1.3670 H   0  0  0  0  0  0  0  0  0  0  0  0
   -0.0256    3.4516    3.1930 H   0  0  0  0  0  0  0  0  0  0  0  0
    2.2114    4.1911   -0.0387 H   0  0  0  0  0  0  0  0  0  0  0  0
    4.2365    3.7799   -1.4937 H   0  0  0  0  0  0  0  0  0  0  0  0
    5.4457    0.7052    1.1673 H   0  0  0  0  0  0  0  0  0  0  0  0
   -0.4492   -0.1329    2.0550 H   0  0  0  0  0  0  0  0  0  0  0  0
   -1.7959   -1.0354    2.9264 H   0  0  0  0  0  0  0  0  0  0  0  0
   -1.6283   -2.8817   -1.3767 H   0  0  0  0  0  0  0  0  0  0  0  0
    0.1425   -2.5583   -1.3450 H   0  0  0  0  0  0  0  0  0  0  0  0
   -0.7428   -1.5722   -3.4079 H   0  0  0  0  0  0  0  0  0  0  0  0
   -0.0306   -0.4131   -2.2837 H   0  0  0  0  0  0  0  0  0  0  0  0
   -2.2333   -1.4118   -4.8891 H   0  0  0  0  0  0  0  0  0  0  0  0
  1  2  1  0
  2  3  2  0
  3  4  1  0
  4  5  2  0
  5  6  1  0
  6  7  1  0
  7  8  1  0
  8  9  1  0
  9 10  1  0
 10 11  1  0
 11 12  1  0
 12 13  1  0
 13 14  1  0
 14 15  2  0
 14 16  1  0
 16 17  1  0
 17 18  1  0
 18 19  2  0
 19 20  1  0
 20 21  1  0
 20 22  1  0
 22 23  2  0
 23 24  1  0
 24 25  2  0
 25 26  1  0
 26 27  1  0
 26 28  1  0
 26 29  1  0
 25 30  1  0
 30 31  2  0
 12 32  1  0
  9 33  1  0
 33 34  1  0
  5 35  1  0
 35 36  2  0
 36  2  1  0
 34  6  1  0
 32 10  1  0
 31 18  1  0
 31 22  1  0
  1 37  1  0
  1 38  1  0
  1 39  1  0
  3 40  1  0
  4 41  1  0
  6 42  1  6
  7 43  1  0
  7 44  1  0
  8 45  1  0
  8 46  1  0
  9 47  1  1
 11 48  1  0
 11 49  1  0
 12 50  1  0
 13 51  1  0
 16 52  1  0
 16 53  1  0
 17 54  1  0
 21 55  1  0
 21 56  1  0
 21 57  1  0
 23 58  1  0
 24 59  1  0
 30 60  1  0
 32 61  1  0
 32 62  1  0
 33 63  1  0
 33 64  1  0
 34 65  1  0
 34 66  1  0
 35 67  1  0
M  END
$$$$
