@<TRIPOS>MOLECULE
*****
 36 38 0 0 0
SMALL
GASTEIGER

@<TRIPOS>ATOM
      1 F          -5.1144    0.3325   -1.3980 F       1  UNL1       -0.1689
      2 C          -3.7582    0.4807   -1.1452 C.3     1  UNL1        0.4056
      3 F          -3.0328   -0.6141   -1.5835 F       1  UNL1       -0.1689
      4 F          -3.3565    1.5358   -1.9489 F       1  UNL1       -0.1689
      5 C          -3.4914    0.7630    0.3180 C.3     1  UNL1        0.1150
      6 N          -2.1027    0.9215    0.6146 N.am    1  UNL1       -0.2607
      7 C          -1.3602   -0.2750    0.9474 C.ar    1  UNL1        0.0459
      8 C           0.0247   -0.4569    0.8420 C.ar    1  UNL1        0.0233
      9 C           0.7051   -1.5932    1.2395 C.ar    1  UNL1       -0.0324
     10 C          -0.0971   -2.5856    1.7638 C.ar    1  UNL1        0.0417
     11 CL          0.7269   -4.0424    2.2743 Cl      1  UNL1       -0.0835
     12 C          -1.4829   -2.4131    1.8686 C.ar    1  UNL1       -0.0416
     13 C          -2.1330   -1.2713    1.4690 C.ar    1  UNL1       -0.0382
     14 C           0.9728    0.4828    0.2521 C.2     1  UNL1        0.0750
     15 N           0.9200    1.7945    0.3697 N.2     1  UNL1       -0.2734
     16 C          -0.0696    2.5970    1.0881 C.3     1  UNL1        0.1170
     17 C          -1.4571    2.2261    0.5787 C.2     1  UNL1        0.2415
     18 O          -2.2104    3.0935    0.0451 O.2     1  UNL1       -0.2732
     19 C           2.0808   -0.0140   -0.5426 C.ar    1  UNL1        0.0006
     20 C           3.0275    0.9636   -0.8952 C.ar    1  UNL1       -0.0526
     21 C           4.1255    0.7480   -1.7027 C.ar    1  UNL1       -0.0611
     22 C           4.3428   -0.5087   -2.2211 C.ar    1  UNL1       -0.0617
     23 C           3.4464   -1.5027   -1.9090 C.ar    1  UNL1       -0.0611
     24 C           2.3964   -1.1964   -1.1086 C.ar    1  UNL1       -0.0526
     25 H          -3.8504    1.8708    0.3850 H       1  UNL1        0.0557
     26 H          -4.1656    0.3318    1.0333 H       1  UNL1        0.0557
     27 H           1.7688   -1.6235    1.1610 H       1  UNL1        0.0639
     28 H          -2.0735   -3.2166    2.2841 H       1  UNL1        0.0633
     29 H          -3.1752   -1.1269    1.5379 H       1  UNL1        0.0637
     30 H           0.1390    3.6479    0.8444 H       1  UNL1        0.0605
     31 H          -0.0190    2.3554    2.1453 H       1  UNL1        0.0605
     32 H           2.9890    2.0059   -0.5608 H       1  UNL1        0.0624
     33 H           4.8484    1.5049   -1.9686 H       1  UNL1        0.0618
     34 H           5.1791   -0.7438   -2.8558 H       1  UNL1        0.0618
     35 H           3.5768   -2.4881   -2.2887 H       1  UNL1        0.0618
     36 H           1.6800   -1.9832   -0.9332 H       1  UNL1        0.0624
@<TRIPOS>BOND
     1     1     2    1
     2     2     3    1
     3     2     4    1
     4     2     5    1
     5     5     6    1
     6     6     7    1
     7     7     8   ar
     8     8     9   ar
     9     9    10   ar
    10    10    11    1
    11    10    12   ar
    12    12    13   ar
    13     8    14    1
    14    14    15    2
    15    15    16    1
    16    16    17    1
    17    17    18    2
    18    14    19    1
    19    19    20   ar
    20    20    21   ar
    21    21    22   ar
    22    22    23   ar
    23    23    24   ar
    24    17     6   am
    25    24    19   ar
    26    13     7   ar
    27     5    25    1
    28     5    26    1
    29     9    27    1
    30    12    28    1
    31    13    29    1
    32    16    30    1
    33    16    31    1
    34    20    32    1
    35    21    33    1
    36    22    34    1
    37    23    35    1
    38    24    36    1
