
     RDKit          3D

 63 66  0  0  0  0  0  0  0  0999 V2000
   -5.1513    5.0138    0.9676 C   0  0  0  0  0  0  0  0  0  0  0  0
   -5.3097    3.8295    0.3020 O   0  0  0  0  0  0  0  0  0  0  0  0
   -4.1588    3.3655   -0.2689 C   0  0  0  0  0  0  0  0  0  0  0  0
   -3.0267    3.0956    0.7078 C   0  0  0  0  0  0  0  0  0  0  0  0
   -1.8198    2.5785   -0.0333 C   0  0  0  0  0  0  0  0  0  0  0  0
   -2.0786    1.3449   -0.7598 N   0  0  0  0  0  0  0  0  0  0  0  0
   -2.4534    0.1486   -0.0895 C   0  0  0  0  0  0  0  0  0  0  0  0
   -2.5702    0.1306    1.2612 N   0  0  0  0  0  0  0  0  0  0  0  0
   -2.9159   -0.9860    1.9071 C   0  0  0  0  0  0  0  0  0  0  0  0
   -3.1640   -2.1358    1.2695 N   0  0  0  0  0  0  0  0  0  0  0  0
   -3.0583   -2.1566   -0.0696 C   0  0  0  0  0  0  0  0  0  0  0  0
   -3.3036   -3.3181   -0.7795 C   0  0  0  0  0  0  0  0  0  0  0  0
   -3.6819   -4.5336   -0.0526 C   0  0  0  0  0  0  0  0  0  0  0  0
   -3.9456   -5.7537   -0.7240 N   0  0  0  0  0  0  0  0  0  0  0  0
   -3.7799   -4.5119    1.1977 O   0  0  0  0  0  0  0  0  0  0  0  0
   -3.2041   -3.3714   -2.1485 C   0  0  0  0  0  0  0  0  0  0  0  0
   -2.8516   -2.2516   -2.8657 C   0  0  0  0  0  0  0  0  0  0  0  0
   -2.6025   -1.0771   -2.1620 C   0  0  0  0  0  0  0  0  0  0  0  0
   -2.7025   -1.0192   -0.7710 C   0  0  0  0  0  0  0  0  0  0  0  0
   -0.6454    2.4320    0.8644 C   0  0  0  0  0  0  0  0  0  0  0  0
   -0.7005    2.8578    2.1671 C   0  0  0  0  0  0  0  0  0  0  0  0
    0.4383    2.6962    2.9638 C   0  0  0  0  0  0  0  0  0  0  0  0
    1.5963    2.1223    2.4606 C   0  0  0  0  0  0  0  0  0  0  0  0
    1.6585    1.6917    1.1511 C   0  0  0  0  0  0  0  0  0  0  0  0
    2.8570    1.1055    0.6552 N   0  0  0  0  0  0  0  0  0  0  0  0
    3.1058   -0.2867    0.7283 C   0  0  0  0  0  0  0  0  0  0  0  0
    2.1885   -0.9893    1.2673 O   0  0  0  0  0  0  0  0  0  0  0  0
    4.2958   -0.9560    0.2480 C   0  0  0  0  0  0  0  0  0  0  0  0
    4.4588   -2.3190    0.3582 C   0  0  0  0  0  0  0  0  0  0  0  0
    5.5640   -2.9856   -0.0816 C   0  0  0  0  0  0  0  0  0  0  0  0
    6.5918   -2.2536   -0.6778 C   0  0  0  0  0  0  0  0  0  0  0  0
    7.7353   -2.9131   -1.1370 O   0  0  0  0  0  0  0  0  0  0  0  0
    8.7522   -2.1490   -1.7324 C   0  0  0  0  0  0  0  0  0  0  0  0
    6.4508   -0.8915   -0.7985 C   0  0  0  0  0  0  0  0  0  0  0  0
    5.3154   -0.2578   -0.3396 C   0  0  0  0  0  0  0  0  0  0  0  0
    0.5349    1.8560    0.3804 C   0  0  0  0  0  0  0  0  0  0  0  0
   -4.7781    5.8127    0.2777 H   0  0  0  0  0  0  0  0  0  0  0  0
   -4.4745    4.8768    1.8214 H   0  0  0  0  0  0  0  0  0  0  0  0
   -6.1780    5.3316    1.3239 H   0  0  0  0  0  0  0  0  0  0  0  0
   -3.7589    4.1268   -1.0003 H   0  0  0  0  0  0  0  0  0  0  0  0
   -4.3773    2.4374   -0.8358 H   0  0  0  0  0  0  0  0  0  0  0  0
   -2.7526    4.0700    1.2044 H   0  0  0  0  0  0  0  0  0  0  0  0
   -3.3689    2.3351    1.4212 H   0  0  0  0  0  0  0  0  0  0  0  0
   -1.5552    3.3572   -0.7730 H   0  0  0  0  0  0  0  0  0  0  0  0
   -1.9757    1.3845   -1.7836 H   0  0  0  0  0  0  0  0  0  0  0  0
   -3.0148   -1.0183    2.9963 H   0  0  0  0  0  0  0  0  0  0  0  0
   -3.2958   -6.5479   -0.5635 H   0  0  0  0  0  0  0  0  0  0  0  0
   -4.7568   -5.8358   -1.3464 H   0  0  0  0  0  0  0  0  0  0  0  0
   -3.4055   -4.3046   -2.6664 H   0  0  0  0  0  0  0  0  0  0  0  0
   -2.7732   -2.2921   -3.9417 H   0  0  0  0  0  0  0  0  0  0  0  0
   -2.3300   -0.2059   -2.7026 H   0  0  0  0  0  0  0  0  0  0  0  0
   -1.5560    3.3012    2.6107 H   0  0  0  0  0  0  0  0  0  0  0  0
    0.4077    3.0279    3.9927 H   0  0  0  0  0  0  0  0  0  0  0  0
    2.4893    1.9927    3.0761 H   0  0  0  0  0  0  0  0  0  0  0  0
    3.5701    1.7302    0.2253 H   0  0  0  0  0  0  0  0  0  0  0  0
    3.6360   -2.8628    0.8297 H   0  0  0  0  0  0  0  0  0  0  0  0
    5.6727   -4.0417    0.0123 H   0  0  0  0  0  0  0  0  0  0  0  0
    8.3658   -1.5692   -2.6034 H   0  0  0  0  0  0  0  0  0  0  0  0
    9.2035   -1.4247   -1.0331 H   0  0  0  0  0  0  0  0  0  0  0  0
    9.5542   -2.8474   -2.0457 H   0  0  0  0  0  0  0  0  0  0  0  0
    7.2335   -0.3132   -1.2554 H   0  0  0  0  0  0  0  0  0  0  0  0
    5.2272    0.8051   -0.4444 H   0  0  0  0  0  0  0  0  0  0  0  0
    0.5720    1.5227   -0.6459 H   0  0  0  0  0  0  0  0  0  0  0  0
  1  2  1  0
  2  3  1  0
  3  4  1  0
  4  5  1  0
  5  6  1  0
  6  7  1  0
  7  8  2  0
  8  9  1  0
  9 10  2  0
 10 11  1  0
 11 12  2  0
 12 13  1  0
 13 14  1  0
 13 15  2  0
 12 16  1  0
 16 17  2  0
 17 18  1  0
 18 19  2  0
  5 20  1  0
 20 21  2  0
 21 22  1  0
 22 23  2  0
 23 24  1  0
 24 25  1  0
 25 26  1  0
 26 27  2  0
 26 28  1  0
 28 29  2  0
 29 30  1  0
 30 31  2  0
 31 32  1  0
 32 33  1  0
 31 34  1  0
 34 35  2  0
 24 36  2  0
 19  7  1  0
 36 20  1  0
 19 11  1  0
 35 28  1  0
  1 37  1  0
  1 38  1  0
  1 39  1  0
  3 40  1  0
  3 41  1  0
  4 42  1  0
  4 43  1  0
  5 44  1  0
  6 45  1  0
  9 46  1  0
 14 47  1  0
 14 48  1  0
 16 49  1  0
 17 50  1  0
 18 51  1  0
 21 52  1  0
 22 53  1  0
 23 54  1  0
 25 55  1  0
 29 56  1  0
 30 57  1  0
 33 58  1  0
 33 59  1  0
 33 60  1  0
 34 61  1  0
 35 62  1  0
 36 63  1  0
M  END
$$$$
