@<TRIPOS>MOLECULE
*****
 63 66 0 0 0
SMALL
GASTEIGER

@<TRIPOS>ATOM
      1 C          -5.1513    5.0138    0.9676 C.3     1  UNL1        0.0364
      2 O          -5.3097    3.8295    0.3020 O.3     1  UNL1       -0.3829
      3 C          -4.1588    3.3655   -0.2689 C.3     1  UNL1        0.0493
      4 C          -3.0267    3.0956    0.7078 C.3     1  UNL1       -0.0069
      5 C          -1.8198    2.5785   -0.0333 C.3     1  UNL1        0.0493
      6 N          -2.0786    1.3449   -0.7598 N.pl3   1  UNL1       -0.3216
      7 C          -2.4534    0.1486   -0.0895 C.ar    1  UNL1        0.1302
      8 N          -2.5702    0.1306    1.2612 N.ar    1  UNL1       -0.2203
      9 C          -2.9159   -0.9860    1.9071 C.ar    1  UNL1        0.1187
     10 N          -3.1640   -2.1358    1.2695 N.ar    1  UNL1       -0.2345
     11 C          -3.0583   -2.1566   -0.0696 C.ar    1  UNL1        0.0881
     12 C          -3.3036   -3.3181   -0.7795 C.ar    1  UNL1        0.0625
     13 C          -3.6819   -4.5336   -0.0526 C.2     1  UNL1        0.2436
     14 N          -3.9456   -5.7537   -0.7240 N.am    1  UNL1       -0.3253
     15 O          -3.7799   -4.5119    1.1977 O.2     1  UNL1       -0.2703
     16 C          -3.2041   -3.3714   -2.1485 C.ar    1  UNL1       -0.0475
     17 C          -2.8516   -2.2516   -2.8657 C.ar    1  UNL1       -0.0603
     18 C          -2.6025   -1.0771   -2.1620 C.ar    1  UNL1       -0.0492
     19 C          -2.7025   -1.0192   -0.7710 C.ar    1  UNL1        0.0409
     20 C          -0.6454    2.4320    0.8644 C.ar    1  UNL1       -0.0254
     21 C          -0.7005    2.8578    2.1671 C.ar    1  UNL1       -0.0567
     22 C           0.4383    2.6962    2.9638 C.ar    1  UNL1       -0.0597
     23 C           1.5963    2.1223    2.4606 C.ar    1  UNL1       -0.0405
     24 C           1.6585    1.6917    1.1511 C.ar    1  UNL1        0.0340
     25 N           2.8570    1.1055    0.6552 N.am    1  UNL1       -0.2815
     26 C           3.1058   -0.2867    0.7283 C.2     1  UNL1        0.2483
     27 O           2.1885   -0.9893    1.2673 O.2     1  UNL1       -0.2699
     28 C           4.2958   -0.9560    0.2480 C.ar    1  UNL1        0.0372
     29 C           4.4588   -2.3190    0.3582 C.ar    1  UNL1       -0.0462
     30 C           5.5640   -2.9856   -0.0816 C.ar    1  UNL1       -0.0192
     31 C           6.5918   -2.2536   -0.6778 C.ar    1  UNL1        0.1201
     32 O           7.7353   -2.9131   -1.1370 O.3     1  UNL1       -0.4951
     33 C           8.7522   -2.1490   -1.7324 C.3     1  UNL1        0.0788
     34 C           6.4508   -0.8915   -0.7985 C.ar    1  UNL1       -0.0192
     35 C           5.3154   -0.2578   -0.3396 C.ar    1  UNL1       -0.0462
     36 C           0.5349    1.8560    0.3804 C.ar    1  UNL1       -0.0355
     37 H          -4.7781    5.8127    0.2777 H       1  UNL1        0.0523
     38 H          -4.4745    4.8768    1.8214 H       1  UNL1        0.0523
     39 H          -6.1780    5.3316    1.3239 H       1  UNL1        0.0523
     40 H          -3.7589    4.1268   -1.0003 H       1  UNL1        0.0560
     41 H          -4.3773    2.4374   -0.8358 H       1  UNL1        0.0560
     42 H          -2.7526    4.0700    1.2044 H       1  UNL1        0.0309
     43 H          -3.3689    2.3351    1.4212 H       1  UNL1        0.0309
     44 H          -1.5552    3.3572   -0.7730 H       1  UNL1        0.0548
     45 H          -1.9757    1.3845   -1.7836 H       1  UNL1        0.1481
     46 H          -3.0148   -1.0183    2.9963 H       1  UNL1        0.1048
     47 H          -3.2958   -6.5479   -0.5635 H       1  UNL1        0.1453
     48 H          -4.7568   -5.8358   -1.3464 H       1  UNL1        0.1453
     49 H          -3.4055   -4.3046   -2.6664 H       1  UNL1        0.0626
     50 H          -2.7732   -2.2921   -3.9417 H       1  UNL1        0.0618
     51 H          -2.3300   -0.2059   -2.7026 H       1  UNL1        0.0625
     52 H          -1.5560    3.3012    2.6107 H       1  UNL1        0.0621
     53 H           0.4077    3.0279    3.9927 H       1  UNL1        0.0618
     54 H           2.4893    1.9927    3.0761 H       1  UNL1        0.0636
     55 H           3.5701    1.7302    0.2253 H       1  UNL1        0.1551
     56 H           3.6360   -2.8628    0.8297 H       1  UNL1        0.0626
     57 H           5.6727   -4.0417    0.0123 H       1  UNL1        0.0654
     58 H           8.3658   -1.5692   -2.6034 H       1  UNL1        0.0660
     59 H           9.2035   -1.4247   -1.0331 H       1  UNL1        0.0660
     60 H           9.5542   -2.8474   -2.0457 H       1  UNL1        0.0660
     61 H           7.2335   -0.3132   -1.2554 H       1  UNL1        0.0654
     62 H           5.2272    0.8051   -0.4444 H       1  UNL1        0.0626
     63 H           0.5720    1.5227   -0.6459 H       1  UNL1        0.0639
@<TRIPOS>BOND
     1     1     2    1
     2     2     3    1
     3     3     4    1
     4     4     5    1
     5     5     6    1
     6     6     7    1
     7     7     8   ar
     8     8     9   ar
     9     9    10   ar
    10    10    11   ar
    11    11    12   ar
    12    12    13    1
    13    13    14   am
    14    13    15    2
    15    12    16   ar
    16    16    17   ar
    17    17    18   ar
    18    18    19   ar
    19     5    20    1
    20    20    21   ar
    21    21    22   ar
    22    22    23   ar
    23    23    24   ar
    24    24    25    1
    25    25    26   am
    26    26    27    2
    27    26    28    1
    28    28    29   ar
    29    29    30   ar
    30    30    31   ar
    31    31    32    1
    32    32    33    1
    33    31    34   ar
    34    34    35   ar
    35    24    36   ar
    36    19     7   ar
    37    36    20   ar
    38    19    11   ar
    39    35    28   ar
    40     1    37    1
    41     1    38    1
    42     1    39    1
    43     3    40    1
    44     3    41    1
    45     4    42    1
    46     4    43    1
    47     5    44    1
    48     6    45    1
    49     9    46    1
    50    14    47    1
    51    14    48    1
    52    16    49    1
    53    17    50    1
    54    18    51    1
    55    21    52    1
    56    22    53    1
    57    23    54    1
    58    25    55    1
    59    29    56    1
    60    30    57    1
    61    33    58    1
    62    33    59    1
    63    33    60    1
    64    34    61    1
    65    35    62    1
    66    36    63    1
