@<TRIPOS>MOLECULE
*****
 21 22 0 0 0
SMALL
GASTEIGER

@<TRIPOS>ATOM
      1 I           4.5245    1.1454   -0.8675 I       1  UNL1       -0.0438
      2 C           2.6004    0.3754   -0.4054 C.ar    1  UNL1        0.0137
      3 C           1.5058    1.2226   -0.2391 C.ar    1  UNL1       -0.0439
      4 C           0.2780    0.6666    0.0605 C.ar    1  UNL1       -0.0294
      5 C           0.1482   -0.6917    0.1899 C.ar    1  UNL1       -0.0417
      6 C          -1.1741   -1.2802    0.5118 C.3     1  UNL1       -0.0148
      7 C          -2.2126   -0.4214   -0.1796 C.3     1  UNL1        0.0002
      8 N          -2.1321    0.9204    0.3220 N.3     1  UNL1       -0.3117
      9 C          -0.8644    1.5527    0.2340 C.3     1  UNL1        0.0215
     10 C           1.2412   -1.5357    0.0237 C.ar    1  UNL1       -0.0573
     11 C           2.4790   -0.9951   -0.2770 C.ar    1  UNL1       -0.0483
     12 H           1.6870    2.2667   -0.3557 H       1  UNL1        0.0631
     13 H          -1.3820   -1.2493    1.6050 H       1  UNL1        0.0326
     14 H          -1.1958   -2.3253    0.1627 H       1  UNL1        0.0326
     15 H          -3.2185   -0.8031    0.0987 H       1  UNL1        0.0427
     16 H          -2.1144   -0.5270   -1.2569 H       1  UNL1        0.0427
     17 H          -2.9207    1.5192    0.0222 H       1  UNL1        0.1223
     18 H          -0.7330    2.1231    1.1819 H       1  UNL1        0.0474
     19 H          -0.9300    2.3226   -0.5641 H       1  UNL1        0.0474
     20 H           1.0796   -2.6120    0.1385 H       1  UNL1        0.0621
     21 H           3.3340   -1.6737   -0.4056 H       1  UNL1        0.0628
@<TRIPOS>BOND
     1     1     2    1
     2     2     3   ar
     3     3     4   ar
     4     4     5   ar
     5     5     6    1
     6     6     7    1
     7     7     8    1
     8     8     9    1
     9     5    10   ar
    10    10    11   ar
    11    11     2   ar
    12     9     4    1
    13     3    12    1
    14     6    13    1
    15     6    14    1
    16     7    15    1
    17     7    16    1
    18     8    17    1
    19     9    18    1
    20     9    19    1
    21    10    20    1
    22    11    21    1
