
     RDKit          3D

 21 22  0  0  0  0  0  0  0  0999 V2000
    4.5245    1.1454   -0.8675 I   0  0  0  0  0  0  0  0  0  0  0  0
    2.6004    0.3754   -0.4054 C   0  0  0  0  0  0  0  0  0  0  0  0
    1.5058    1.2226   -0.2391 C   0  0  0  0  0  0  0  0  0  0  0  0
    0.2780    0.6666    0.0605 C   0  0  0  0  0  0  0  0  0  0  0  0
    0.1482   -0.6917    0.1899 C   0  0  0  0  0  0  0  0  0  0  0  0
   -1.1741   -1.2802    0.5118 C   0  0  0  0  0  0  0  0  0  0  0  0
   -2.2126   -0.4214   -0.1796 C   0  0  0  0  0  0  0  0  0  0  0  0
   -2.1321    0.9204    0.3220 N   0  0  0  0  0  0  0  0  0  0  0  0
   -0.8644    1.5527    0.2340 C   0  0  0  0  0  0  0  0  0  0  0  0
    1.2412   -1.5357    0.0237 C   0  0  0  0  0  0  0  0  0  0  0  0
    2.4790   -0.9951   -0.2770 C   0  0  0  0  0  0  0  0  0  0  0  0
    1.6870    2.2667   -0.3557 H   0  0  0  0  0  0  0  0  0  0  0  0
   -1.3820   -1.2493    1.6050 H   0  0  0  0  0  0  0  0  0  0  0  0
   -1.1958   -2.3253    0.1627 H   0  0  0  0  0  0  0  0  0  0  0  0
   -3.2185   -0.8031    0.0987 H   0  0  0  0  0  0  0  0  0  0  0  0
   -2.1144   -0.5270   -1.2569 H   0  0  0  0  0  0  0  0  0  0  0  0
   -2.9207    1.5192    0.0222 H   0  0  0  0  0  0  0  0  0  0  0  0
   -0.7330    2.1231    1.1819 H   0  0  0  0  0  0  0  0  0  0  0  0
   -0.9300    2.3226   -0.5641 H   0  0  0  0  0  0  0  0  0  0  0  0
    1.0796   -2.6120    0.1385 H   0  0  0  0  0  0  0  0  0  0  0  0
    3.3340   -1.6737   -0.4056 H   0  0  0  0  0  0  0  0  0  0  0  0
  1  2  1  0
  2  3  2  0
  3  4  1  0
  4  5  2  0
  5  6  1  0
  6  7  1  0
  7  8  1  0
  8  9  1  0
  5 10  1  0
 10 11  2  0
 11  2  1  0
  9  4  1  0
  3 12  1  0
  6 13  1  0
  6 14  1  0
  7 15  1  0
  7 16  1  0
  8 17  1  0
  9 18  1  0
  9 19  1  0
 10 20  1  0
 11 21  1  0
M  END
$$$$
