@<TRIPOS>MOLECULE
*****
 41 43 0 0 0
SMALL
GASTEIGER

@<TRIPOS>ATOM
      1 C           6.3096   -0.6751    1.8987 C.3     1  UNL1        0.0004
      2 N           5.3646   -0.9164    0.7945 N.am    1  UNL1       -0.3144
      3 C           4.2083   -0.1152    0.6322 C.2     1  UNL1        0.2439
      4 O           4.0061    0.8103    1.4552 O.2     1  UNL1       -0.2702
      5 C           3.2586   -0.3264   -0.4436 C.ar    1  UNL1        0.0385
      6 C           3.3985   -1.3152   -1.3908 C.ar    1  UNL1       -0.0495
      7 C           2.4236   -1.4296   -2.3841 C.ar    1  UNL1       -0.0592
      8 C           1.3376   -0.5895   -2.4418 C.ar    1  UNL1       -0.0353
      9 C           1.2383    0.3823   -1.4768 C.ar    1  UNL1        0.1062
     10 S          -0.1535    1.4661   -1.5429 S.O2    1  UNL1        0.0612
     11 O          -0.5560    1.5859   -2.9785 O.2     1  UNL1       -0.1528
     12 O           0.2236    2.8342   -1.0477 O.2     1  UNL1       -0.1528
     13 N          -1.4171    0.7685   -0.6320 N.3     1  UNL1       -0.1720
     14 C          -1.1076    0.5877    0.7430 C.3     1  UNL1        0.0248
     15 C          -2.2228    0.8663    1.6936 C.3     1  UNL1       -0.0129
     16 C          -3.4636    0.2398    1.1565 C.ar    1  UNL1       -0.0416
     17 C          -4.2978   -0.5044    1.9574 C.ar    1  UNL1       -0.0582
     18 C          -5.4256   -1.0472    1.3736 C.ar    1  UNL1       -0.0615
     19 C          -5.6937   -0.8394    0.0227 C.ar    1  UNL1       -0.0614
     20 C          -4.8271   -0.0798   -0.7606 C.ar    1  UNL1       -0.0570
     21 C          -3.7161    0.4569   -0.1924 C.ar    1  UNL1       -0.0285
     22 C          -2.7120    1.2860   -0.9167 C.3     1  UNL1        0.0458
     23 C           2.1579    0.5346   -0.4917 C.ar    1  UNL1       -0.0232
     24 H           7.2938   -0.9992    1.5186 H       1  UNL1        0.0426
     25 H           6.3791    0.4109    2.1067 H       1  UNL1        0.0426
     26 H           5.9977   -1.2071    2.8026 H       1  UNL1        0.0426
     27 H           5.5322   -1.6821    0.1139 H       1  UNL1        0.1487
     28 H           4.2388   -1.9794   -1.3615 H       1  UNL1        0.0625
     29 H           2.5547   -2.2140   -3.1176 H       1  UNL1        0.0618
     30 H           0.5687   -0.6646   -3.2088 H       1  UNL1        0.0637
     31 H          -0.2175    1.1572    1.0867 H       1  UNL1        0.0447
     32 H          -0.8225   -0.4957    0.8829 H       1  UNL1        0.0447
     33 H          -2.3668    1.9654    1.8477 H       1  UNL1        0.0326
     34 H          -1.9582    0.4157    2.6770 H       1  UNL1        0.0326
     35 H          -4.0776   -0.6627    3.0223 H       1  UNL1        0.0620
     36 H          -6.1292   -1.6430    1.9342 H       1  UNL1        0.0618
     37 H          -6.5764   -1.2625   -0.4402 H       1  UNL1        0.0618
     38 H          -5.0175    0.0938   -1.8131 H       1  UNL1        0.0621
     39 H          -2.9164    1.1118   -2.0110 H       1  UNL1        0.0493
     40 H          -2.8363    2.3584   -0.7272 H       1  UNL1        0.0493
     41 H           2.0199    1.3165    0.2328 H       1  UNL1        0.0644
@<TRIPOS>BOND
     1     1     2    1
     2     2     3   am
     3     3     4    2
     4     3     5    1
     5     5     6   ar
     6     6     7   ar
     7     7     8   ar
     8     8     9   ar
     9     9    10    1
    10    10    11    2
    11    10    12    2
    12    10    13    1
    13    13    14    1
    14    14    15    1
    15    15    16    1
    16    16    17   ar
    17    17    18   ar
    18    18    19   ar
    19    19    20   ar
    20    20    21   ar
    21    21    22    1
    22     9    23   ar
    23    23     5   ar
    24    22    13    1
    25    21    16   ar
    26     1    24    1
    27     1    25    1
    28     1    26    1
    29     2    27    1
    30     6    28    1
    31     7    29    1
    32     8    30    1
    33    14    31    1
    34    14    32    1
    35    15    33    1
    36    15    34    1
    37    17    35    1
    38    18    36    1
    39    19    37    1
    40    20    38    1
    41    22    39    1
    42    22    40    1
    43    23    41    1
