
     RDKit          3D

 41 43  0  0  0  0  0  0  0  0999 V2000
    6.3096   -0.6751    1.8987 C   0  0  0  0  0  0  0  0  0  0  0  0
    5.3646   -0.9164    0.7945 N   0  0  0  0  0  0  0  0  0  0  0  0
    4.2083   -0.1152    0.6322 C   0  0  0  0  0  0  0  0  0  0  0  0
    4.0061    0.8103    1.4552 O   0  0  0  0  0  0  0  0  0  0  0  0
    3.2586   -0.3264   -0.4436 C   0  0  0  0  0  0  0  0  0  0  0  0
    3.3985   -1.3152   -1.3908 C   0  0  0  0  0  0  0  0  0  0  0  0
    2.4236   -1.4296   -2.3841 C   0  0  0  0  0  0  0  0  0  0  0  0
    1.3376   -0.5895   -2.4418 C   0  0  0  0  0  0  0  0  0  0  0  0
    1.2383    0.3823   -1.4768 C   0  0  0  0  0  0  0  0  0  0  0  0
   -0.1535    1.4661   -1.5429 S   0  0  0  0  0  6  0  0  0  0  0  0
   -0.5560    1.5859   -2.9785 O   0  0  0  0  0  0  0  0  0  0  0  0
    0.2236    2.8342   -1.0477 O   0  0  0  0  0  0  0  0  0  0  0  0
   -1.4171    0.7685   -0.6320 N   0  0  0  0  0  0  0  0  0  0  0  0
   -1.1076    0.5877    0.7430 C   0  0  0  0  0  0  0  0  0  0  0  0
   -2.2228    0.8663    1.6936 C   0  0  0  0  0  0  0  0  0  0  0  0
   -3.4636    0.2398    1.1565 C   0  0  0  0  0  0  0  0  0  0  0  0
   -4.2978   -0.5044    1.9574 C   0  0  0  0  0  0  0  0  0  0  0  0
   -5.4256   -1.0472    1.3736 C   0  0  0  0  0  0  0  0  0  0  0  0
   -5.6937   -0.8394    0.0227 C   0  0  0  0  0  0  0  0  0  0  0  0
   -4.8271   -0.0798   -0.7606 C   0  0  0  0  0  0  0  0  0  0  0  0
   -3.7161    0.4569   -0.1924 C   0  0  0  0  0  0  0  0  0  0  0  0
   -2.7120    1.2860   -0.9167 C   0  0  0  0  0  0  0  0  0  0  0  0
    2.1579    0.5346   -0.4917 C   0  0  0  0  0  0  0  0  0  0  0  0
    7.2938   -0.9992    1.5186 H   0  0  0  0  0  0  0  0  0  0  0  0
    6.3791    0.4109    2.1067 H   0  0  0  0  0  0  0  0  0  0  0  0
    5.9977   -1.2071    2.8026 H   0  0  0  0  0  0  0  0  0  0  0  0
    5.5322   -1.6821    0.1139 H   0  0  0  0  0  0  0  0  0  0  0  0
    4.2388   -1.9794   -1.3615 H   0  0  0  0  0  0  0  0  0  0  0  0
    2.5547   -2.2140   -3.1176 H   0  0  0  0  0  0  0  0  0  0  0  0
    0.5687   -0.6646   -3.2088 H   0  0  0  0  0  0  0  0  0  0  0  0
   -0.2175    1.1572    1.0867 H   0  0  0  0  0  0  0  0  0  0  0  0
   -0.8225   -0.4957    0.8829 H   0  0  0  0  0  0  0  0  0  0  0  0
   -2.3668    1.9654    1.8477 H   0  0  0  0  0  0  0  0  0  0  0  0
   -1.9582    0.4157    2.6770 H   0  0  0  0  0  0  0  0  0  0  0  0
   -4.0776   -0.6627    3.0223 H   0  0  0  0  0  0  0  0  0  0  0  0
   -6.1292   -1.6430    1.9342 H   0  0  0  0  0  0  0  0  0  0  0  0
   -6.5764   -1.2625   -0.4402 H   0  0  0  0  0  0  0  0  0  0  0  0
   -5.0175    0.0938   -1.8131 H   0  0  0  0  0  0  0  0  0  0  0  0
   -2.9164    1.1118   -2.0110 H   0  0  0  0  0  0  0  0  0  0  0  0
   -2.8363    2.3584   -0.7272 H   0  0  0  0  0  0  0  0  0  0  0  0
    2.0199    1.3165    0.2328 H   0  0  0  0  0  0  0  0  0  0  0  0
  1  2  1  0
  2  3  1  0
  3  4  2  0
  3  5  1  0
  5  6  2  0
  6  7  1  0
  7  8  2  0
  8  9  1  0
  9 10  1  0
 10 11  2  0
 10 12  2  0
 10 13  1  0
 13 14  1  0
 14 15  1  0
 15 16  1  0
 16 17  2  0
 17 18  1  0
 18 19  2  0
 19 20  1  0
 20 21  2  0
 21 22  1  0
  9 23  2  0
 23  5  1  0
 22 13  1  0
 21 16  1  0
  1 24  1  0
  1 25  1  0
  1 26  1  0
  2 27  1  0
  6 28  1  0
  7 29  1  0
  8 30  1  0
 14 31  1  0
 14 32  1  0
 15 33  1  0
 15 34  1  0
 17 35  1  0
 18 36  1  0
 19 37  1  0
 20 38  1  0
 22 39  1  0
 22 40  1  0
 23 41  1  0
M  END
$$$$
