@<TRIPOS>MOLECULE
*****
 53 57 0 0 0
SMALL
GASTEIGER

@<TRIPOS>ATOM
      1 C          -3.5185    0.6736    1.1333 C.3     1  UNL1       -0.0084
      2 C          -2.2917   -0.2223    1.0676 C.3     1  UNL1        0.0167
      3 N          -1.5167    0.4638    0.0615 N.pl3   1  UNL1       -0.3230
      4 C          -2.4722    0.7764   -0.9823 C.3     1  UNL1        0.0281
      5 C          -3.8170    0.9244   -0.3069 C.3     1  UNL1        0.0275
      6 N          -4.7199   -0.0221   -0.8907 N.3     1  UNL1       -0.3114
      7 C          -5.8959   -0.3032   -0.1254 C.3     1  UNL1       -0.0038
      8 C          -5.4524   -0.9415    1.1736 C.3     1  UNL1       -0.0401
      9 C          -4.6204    0.0472    1.9222 C.3     1  UNL1       -0.0462
     10 C          -0.1260    0.7097    0.2060 C.ar    1  UNL1        0.1097
     11 C           0.1337    1.9282    0.8219 C.ar    1  UNL1        0.1487
     12 F          -0.8367    2.8022    1.2424 F       1  UNL1       -0.2034
     13 C           1.4131    2.3810    1.0717 C.ar    1  UNL1       -0.0116
     14 C           2.4632    1.5732    0.6856 C.ar    1  UNL1        0.0524
     15 C           3.7531    1.9958    0.9247 C.ar    1  UNL1        0.2036
     16 O           3.9947    3.1009    1.4823 O.2     1  UNL1       -0.2863
     17 C           4.7998    1.1699    0.5344 C.ar    1  UNL1        0.1220
     18 C           4.4592   -0.0271   -0.0711 C.ar    1  UNL1        0.0232
     19 N           3.1898   -0.4369   -0.3034 N.ar    1  UNL1       -0.3397
     20 C           3.0994   -1.7434   -0.9442 C.3     1  UNL1        0.0348
     21 C           2.6703   -2.8858   -0.1515 C.3     1  UNL1       -0.0302
     22 C           4.1265   -2.7893   -0.3999 C.3     1  UNL1       -0.0302
     23 C           2.1922    0.3684    0.0767 C.ar    1  UNL1        0.0973
     24 C           0.9342   -0.1045   -0.1837 C.ar    1  UNL1        0.1679
     25 O           0.5771   -1.2770   -0.7792 O.3     1  UNL1       -0.4911
     26 C           0.3532   -1.4634   -2.1732 C.3     1  UNL1        0.0790
     27 C           6.1826    1.5652    0.7619 C.2     1  UNL1        0.3420
     28 O           6.4428    2.7808    1.3751 O.3     1  UNL1       -0.4770
     29 O           7.2010    0.8714    0.4371 O.2     1  UNL1       -0.2449
     30 H          -3.2339    1.6302    1.6226 H       1  UNL1        0.0331
     31 H          -1.7808   -0.3106    2.0450 H       1  UNL1        0.0467
     32 H          -2.6159   -1.1934    0.6431 H       1  UNL1        0.0467
     33 H          -2.1898    1.7357   -1.4980 H       1  UNL1        0.0479
     34 H          -2.5030   -0.0197   -1.7567 H       1  UNL1        0.0479
     35 H          -4.1727    1.9698   -0.4588 H       1  UNL1        0.0479
     36 H          -4.9087    0.2314   -1.8679 H       1  UNL1        0.1223
     37 H          -6.5103    0.5878    0.0879 H       1  UNL1        0.0424
     38 H          -6.4983   -1.0231   -0.6941 H       1  UNL1        0.0424
     39 H          -4.8269   -1.8441    0.9300 H       1  UNL1        0.0278
     40 H          -6.3185   -1.2086    1.7905 H       1  UNL1        0.0278
     41 H          -4.1382   -0.4794    2.7866 H       1  UNL1        0.0269
     42 H          -5.2681    0.8680    2.2952 H       1  UNL1        0.0269
     43 H           1.6420    3.3114    1.5422 H       1  UNL1        0.0654
     44 H           5.3231   -0.6180   -0.3492 H       1  UNL1        0.0819
     45 H           3.1896   -1.6861   -2.0356 H       1  UNL1        0.0528
     46 H           2.0825   -3.6897   -0.6422 H       1  UNL1        0.0286
     47 H           2.3329   -2.6894    0.8774 H       1  UNL1        0.0286
     48 H           4.5315   -3.5256   -1.0908 H       1  UNL1        0.0286
     49 H           4.8253   -2.4448    0.3789 H       1  UNL1        0.0286
     50 H           0.7170   -2.5108   -2.3926 H       1  UNL1        0.0660
     51 H           0.9830   -0.8108   -2.8022 H       1  UNL1        0.0660
     52 H          -0.7160   -1.4550   -2.4290 H       1  UNL1        0.0660
     53 H           7.3357    3.2592    1.2815 H       1  UNL1        0.2954
@<TRIPOS>BOND
     1     1     2    1
     2     2     3    1
     3     3     4    1
     4     4     5    1
     5     5     6    1
     6     6     7    1
     7     7     8    1
     8     8     9    1
     9     3    10    1
    10    10    11   ar
    11    11    12    1
    12    11    13   ar
    13    13    14   ar
    14    14    15   ar
    15    15    16    2
    16    15    17   ar
    17    17    18   ar
    18    18    19   ar
    19    19    20    1
    20    20    21    1
    21    21    22    1
    22    19    23   ar
    23    23    24   ar
    24    24    25    1
    25    25    26    1
    26    17    27    1
    27    27    28    1
    28    27    29    2
    29     5     1    1
    30    24    10   ar
    31     9     1    1
    32    23    14   ar
    33    22    20    1
    34     1    30    1
    35     2    31    1
    36     2    32    1
    37     4    33    1
    38     4    34    1
    39     5    35    1
    40     6    36    1
    41     7    37    1
    42     7    38    1
    43     8    39    1
    44     8    40    1
    45     9    41    1
    46     9    42    1
    47    13    43    1
    48    18    44    1
    49    20    45    1
    50    21    46    1
    51    21    47    1
    52    22    48    1
    53    22    49    1
    54    26    50    1
    55    26    51    1
    56    26    52    1
    57    28    53    1
