
     RDKit          3D

 53 57  0  0  0  0  0  0  0  0999 V2000
   -3.5185    0.6736    1.1333 C   0  0  1  0  0  0  0  0  0  0  0  0
   -2.2917   -0.2223    1.0676 C   0  0  0  0  0  0  0  0  0  0  0  0
   -1.5167    0.4638    0.0615 N   0  0  0  0  0  0  0  0  0  0  0  0
   -2.4722    0.7764   -0.9823 C   0  0  0  0  0  0  0  0  0  0  0  0
   -3.8170    0.9244   -0.3069 C   0  0  1  0  0  0  0  0  0  0  0  0
   -4.7199   -0.0221   -0.8907 N   0  0  0  0  0  0  0  0  0  0  0  0
   -5.8959   -0.3032   -0.1254 C   0  0  0  0  0  0  0  0  0  0  0  0
   -5.4524   -0.9415    1.1736 C   0  0  0  0  0  0  0  0  0  0  0  0
   -4.6204    0.0472    1.9222 C   0  0  0  0  0  0  0  0  0  0  0  0
   -0.1260    0.7097    0.2060 C   0  0  0  0  0  0  0  0  0  0  0  0
    0.1337    1.9282    0.8219 C   0  0  0  0  0  0  0  0  0  0  0  0
   -0.8367    2.8022    1.2424 F   0  0  0  0  0  0  0  0  0  0  0  0
    1.4131    2.3810    1.0717 C   0  0  0  0  0  0  0  0  0  0  0  0
    2.4632    1.5732    0.6856 C   0  0  0  0  0  0  0  0  0  0  0  0
    3.7531    1.9958    0.9247 C   0  0  0  0  0  0  0  0  0  0  0  0
    3.9947    3.1009    1.4823 O   0  0  0  0  0  0  0  0  0  0  0  0
    4.7998    1.1699    0.5344 C   0  0  0  0  0  0  0  0  0  0  0  0
    4.4592   -0.0271   -0.0711 C   0  0  0  0  0  0  0  0  0  0  0  0
    3.1898   -0.4369   -0.3034 N   0  0  0  0  0  0  0  0  0  0  0  0
    3.0994   -1.7434   -0.9442 C   0  0  0  0  0  0  0  0  0  0  0  0
    2.6703   -2.8858   -0.1515 C   0  0  0  0  0  0  0  0  0  0  0  0
    4.1265   -2.7893   -0.3999 C   0  0  0  0  0  0  0  0  0  0  0  0
    2.1922    0.3684    0.0767 C   0  0  0  0  0  0  0  0  0  0  0  0
    0.9342   -0.1045   -0.1837 C   0  0  0  0  0  0  0  0  0  0  0  0
    0.5771   -1.2770   -0.7792 O   0  0  0  0  0  0  0  0  0  0  0  0
    0.3532   -1.4634   -2.1732 C   0  0  0  0  0  0  0  0  0  0  0  0
    6.1826    1.5652    0.7619 C   0  0  0  0  0  0  0  0  0  0  0  0
    6.4428    2.7808    1.3751 O   0  0  0  0  0  0  0  0  0  0  0  0
    7.2010    0.8714    0.4371 O   0  0  0  0  0  0  0  0  0  0  0  0
   -3.2339    1.6302    1.6226 H   0  0  0  0  0  0  0  0  0  0  0  0
   -1.7808   -0.3106    2.0450 H   0  0  0  0  0  0  0  0  0  0  0  0
   -2.6159   -1.1934    0.6431 H   0  0  0  0  0  0  0  0  0  0  0  0
   -2.1898    1.7357   -1.4980 H   0  0  0  0  0  0  0  0  0  0  0  0
   -2.5030   -0.0197   -1.7567 H   0  0  0  0  0  0  0  0  0  0  0  0
   -4.1727    1.9698   -0.4588 H   0  0  0  0  0  0  0  0  0  0  0  0
   -4.9087    0.2314   -1.8679 H   0  0  0  0  0  0  0  0  0  0  0  0
   -6.5103    0.5878    0.0879 H   0  0  0  0  0  0  0  0  0  0  0  0
   -6.4983   -1.0231   -0.6941 H   0  0  0  0  0  0  0  0  0  0  0  0
   -4.8269   -1.8441    0.9300 H   0  0  0  0  0  0  0  0  0  0  0  0
   -6.3185   -1.2086    1.7905 H   0  0  0  0  0  0  0  0  0  0  0  0
   -4.1382   -0.4794    2.7866 H   0  0  0  0  0  0  0  0  0  0  0  0
   -5.2681    0.8680    2.2952 H   0  0  0  0  0  0  0  0  0  0  0  0
    1.6420    3.3114    1.5422 H   0  0  0  0  0  0  0  0  0  0  0  0
    5.3231   -0.6180   -0.3492 H   0  0  0  0  0  0  0  0  0  0  0  0
    3.1896   -1.6861   -2.0356 H   0  0  0  0  0  0  0  0  0  0  0  0
    2.0825   -3.6897   -0.6422 H   0  0  0  0  0  0  0  0  0  0  0  0
    2.3329   -2.6894    0.8774 H   0  0  0  0  0  0  0  0  0  0  0  0
    4.5315   -3.5256   -1.0908 H   0  0  0  0  0  0  0  0  0  0  0  0
    4.8253   -2.4448    0.3789 H   0  0  0  0  0  0  0  0  0  0  0  0
    0.7170   -2.5108   -2.3926 H   0  0  0  0  0  0  0  0  0  0  0  0
    0.9830   -0.8108   -2.8022 H   0  0  0  0  0  0  0  0  0  0  0  0
   -0.7160   -1.4550   -2.4290 H   0  0  0  0  0  0  0  0  0  0  0  0
    7.3357    3.2592    1.2815 H   0  0  0  0  0  0  0  0  0  0  0  0
  1  2  1  0
  2  3  1  0
  3  4  1  0
  4  5  1  0
  5  6  1  0
  6  7  1  0
  7  8  1  0
  8  9  1  0
  3 10  1  0
 10 11  2  0
 11 12  1  0
 11 13  1  0
 13 14  2  0
 14 15  1  0
 15 16  2  0
 15 17  1  0
 17 18  2  0
 18 19  1  0
 19 20  1  0
 20 21  1  0
 21 22  1  0
 19 23  1  0
 23 24  2  0
 24 25  1  0
 25 26  1  0
 17 27  1  0
 27 28  1  0
 27 29  2  0
  5  1  1  0
 24 10  1  0
  9  1  1  0
 23 14  1  0
 22 20  1  0
  1 30  1  1
  2 31  1  0
  2 32  1  0
  4 33  1  0
  4 34  1  0
  5 35  1  1
  6 36  1  0
  7 37  1  0
  7 38  1  0
  8 39  1  0
  8 40  1  0
  9 41  1  0
  9 42  1  0
 13 43  1  0
 18 44  1  0
 20 45  1  0
 21 46  1  0
 21 47  1  0
 22 48  1  0
 22 49  1  0
 26 50  1  0
 26 51  1  0
 26 52  1  0
 28 53  1  0
M  END
$$$$
