@<TRIPOS>MOLECULE
*****
 38 40 0 0 0
SMALL
GASTEIGER

@<TRIPOS>ATOM
      1 O           0.8650    4.2184   -0.6887 O.3     1  UNL1       -0.4739
      2 C           0.9535    2.8379   -0.6251 C.2     1  UNL1        0.3932
      3 O           2.1815    2.4822   -0.6093 O.2     1  UNL1       -0.2399
      4 C          -0.1367    1.8550   -0.5793 C.2     1  UNL1        0.3323
      5 O          -1.2670    2.4531   -0.6054 O.2     1  UNL1       -0.2621
      6 N           0.2370    0.4691   -0.5165 N.am    1  UNL1       -0.2296
      7 C           1.6013    0.0854   -0.5090 C.ar    1  UNL1        0.0558
      8 C           1.9449    0.0434   -1.8763 C.ar    1  UNL1       -0.0391
      9 C           3.2274   -0.3051   -2.3232 C.ar    1  UNL1       -0.0599
     10 C           4.2198   -0.6259   -1.4234 C.ar    1  UNL1       -0.0609
     11 C           3.9045   -0.5905   -0.0940 C.ar    1  UNL1       -0.0460
     12 C           2.6476   -0.2471    0.2935 C.ar    1  UNL1        0.0805
     13 C           2.2561   -0.1977    1.6835 C.2     1  UNL1        0.3386
     14 O           2.6410   -0.3734    2.9929 O.3     1  UNL1       -0.4771
     15 O           1.2874    0.0527    2.4142 O.2     1  UNL1       -0.2451
     16 C          -0.9657   -0.2864   -0.5328 C.ar    1  UNL1        0.0495
     17 C          -1.1538   -1.0399   -1.7002 C.ar    1  UNL1       -0.0393
     18 C          -2.2834   -1.8291   -1.8798 C.ar    1  UNL1       -0.0594
     19 C          -3.2712   -1.9038   -0.9123 C.ar    1  UNL1       -0.0539
     20 C          -3.1087   -1.1702    0.2431 C.ar    1  UNL1       -0.0161
     21 C          -1.9799   -0.4014    0.3852 C.ar    1  UNL1        0.0039
     22 C          -1.8205    0.3465    1.5116 C.ar    1  UNL1       -0.0522
     23 C          -2.7403    0.3711    2.5315 C.ar    1  UNL1       -0.0611
     24 C          -3.8993   -0.4014    2.4217 C.ar    1  UNL1       -0.0612
     25 C          -4.0443   -1.1605    1.2552 C.ar    1  UNL1       -0.0540
     26 H           1.5505    4.8482   -0.3139 H       1  UNL1        0.2956
     27 H           1.3727    0.2501   -2.7755 H       1  UNL1        0.0636
     28 H           3.5895   -0.3668   -3.3450 H       1  UNL1        0.0618
     29 H           5.2317   -0.9058   -1.6558 H       1  UNL1        0.0618
     30 H           4.5713   -0.8147    0.7234 H       1  UNL1        0.0626
     31 H           2.9273   -1.2782    3.4023 H       1  UNL1        0.2954
     32 H          -0.5294   -1.1373   -2.5750 H       1  UNL1        0.0636
     33 H          -2.5186   -2.4429   -2.7382 H       1  UNL1        0.0618
     34 H          -4.1763   -2.4911   -0.9716 H       1  UNL1        0.0624
     35 H          -0.9912    0.9787    1.6692 H       1  UNL1        0.0624
     36 H          -2.6915    0.9355    3.4593 H       1  UNL1        0.0618
     37 H          -4.7019   -0.4671    3.1623 H       1  UNL1        0.0618
     38 H          -4.9305   -1.7907    1.1014 H       1  UNL1        0.0624
@<TRIPOS>BOND
     1     1     2    1
     2     2     3    2
     3     2     4    1
     4     4     5    2
     5     4     6   am
     6     6     7    1
     7     7     8   ar
     8     8     9   ar
     9     9    10   ar
    10    10    11   ar
    11    11    12   ar
    12    12    13    1
    13    13    14    1
    14    13    15    2
    15     6    16    1
    16    16    17   ar
    17    17    18   ar
    18    18    19   ar
    19    19    20   ar
    20    20    21   ar
    21    21    22   ar
    22    22    23   ar
    23    23    24   ar
    24    24    25   ar
    25    12     7   ar
    26    21    16   ar
    27    25    20   ar
    28     1    26    1
    29     8    27    1
    30     9    28    1
    31    10    29    1
    32    11    30    1
    33    14    31    1
    34    17    32    1
    35    18    33    1
    36    19    34    1
    37    22    35    1
    38    23    36    1
    39    24    37    1
    40    25    38    1
