@<TRIPOS>MOLECULE
*****
 21 22 0 0 0
SMALL
GASTEIGER

@<TRIPOS>ATOM
      1 N           3.6930    1.9615    0.2196 N.3     1  UNL1       -0.3257
      2 C           3.5241    0.6353   -0.3489 C.3     1  UNL1        0.0249
      3 C           2.1441    0.2316   -0.1146 C.ar    1  UNL1        0.0040
      4 C           1.5932   -0.4462    0.9666 C.ar    1  UNL1       -0.0497
      5 C           0.2561   -0.7290    0.9801 C.ar    1  UNL1       -0.0461
      6 C          -0.4718   -0.3286   -0.0750 C.ar    1  UNL1        0.0262
      7 S           0.7029    0.4795   -1.1596 S.2     1  UNL1       -0.0914
      8 C          -1.8330   -0.3989   -0.4785 C.ar    1  UNL1        0.0259
      9 C          -2.9680   -1.0009    0.2261 C.ar    1  UNL1       -0.0464
     10 C          -4.1727   -0.9135   -0.4176 C.ar    1  UNL1       -0.0541
     11 C          -4.2731   -0.2777   -1.6753 C.ar    1  UNL1       -0.0237
     12 S          -2.5817    0.2583   -2.0336 S.2     1  UNL1       -0.0961
     13 H           2.8409    2.5134   -0.0631 H       1  UNL1        0.1185
     14 H           4.5668    2.3753   -0.1706 H       1  UNL1        0.1185
     15 H           4.2228   -0.0651    0.1253 H       1  UNL1        0.0476
     16 H           3.7039    0.6378   -1.4511 H       1  UNL1        0.0476
     17 H           2.2374   -0.7391    1.7826 H       1  UNL1        0.0626
     18 H          -0.2905   -1.2440    1.7508 H       1  UNL1        0.0629
     19 H          -2.7424   -1.4492    1.1741 H       1  UNL1        0.0629
     20 H          -5.0426   -1.3411    0.0578 H       1  UNL1        0.0623
     21 H          -5.1093   -0.1593   -2.2327 H       1  UNL1        0.0693
@<TRIPOS>BOND
     1     1     2    1
     2     2     3    1
     3     3     4   ar
     4     4     5   ar
     5     5     6   ar
     6     6     7   ar
     7     6     8    1
     8     8     9   ar
     9     9    10   ar
    10    10    11   ar
    11    11    12   ar
    12     7     3   ar
    13    12     8   ar
    14     1    13    1
    15     1    14    1
    16     2    15    1
    17     2    16    1
    18     4    17    1
    19     5    18    1
    20     9    19    1
    21    10    20    1
    22    11    21    1
