
     RDKit          3D

 21 22  0  0  0  0  0  0  0  0999 V2000
    3.6930    1.9615    0.2196 N   0  0  0  0  0  0  0  0  0  0  0  0
    3.5241    0.6353   -0.3489 C   0  0  0  0  0  0  0  0  0  0  0  0
    2.1441    0.2316   -0.1146 C   0  0  0  0  0  0  0  0  0  0  0  0
    1.5932   -0.4462    0.9666 C   0  0  0  0  0  0  0  0  0  0  0  0
    0.2561   -0.7290    0.9801 C   0  0  0  0  0  0  0  0  0  0  0  0
   -0.4718   -0.3286   -0.0750 C   0  0  0  0  0  0  0  0  0  0  0  0
    0.7029    0.4795   -1.1596 S   0  0  0  0  0  0  0  0  0  0  0  0
   -1.8330   -0.3989   -0.4785 C   0  0  0  0  0  0  0  0  0  0  0  0
   -2.9680   -1.0009    0.2261 C   0  0  0  0  0  0  0  0  0  0  0  0
   -4.1727   -0.9135   -0.4176 C   0  0  0  0  0  0  0  0  0  0  0  0
   -4.2731   -0.2777   -1.6753 C   0  0  0  0  0  0  0  0  0  0  0  0
   -2.5817    0.2583   -2.0336 S   0  0  0  0  0  0  0  0  0  0  0  0
    2.8409    2.5134   -0.0631 H   0  0  0  0  0  0  0  0  0  0  0  0
    4.5668    2.3753   -0.1706 H   0  0  0  0  0  0  0  0  0  0  0  0
    4.2228   -0.0651    0.1253 H   0  0  0  0  0  0  0  0  0  0  0  0
    3.7039    0.6378   -1.4511 H   0  0  0  0  0  0  0  0  0  0  0  0
    2.2374   -0.7391    1.7826 H   0  0  0  0  0  0  0  0  0  0  0  0
   -0.2905   -1.2440    1.7508 H   0  0  0  0  0  0  0  0  0  0  0  0
   -2.7424   -1.4492    1.1741 H   0  0  0  0  0  0  0  0  0  0  0  0
   -5.0426   -1.3411    0.0578 H   0  0  0  0  0  0  0  0  0  0  0  0
   -5.1093   -0.1593   -2.2327 H   0  0  0  0  0  0  0  0  0  0  0  0
  1  2  1  0
  2  3  1  0
  3  4  2  0
  4  5  1  0
  5  6  2  0
  6  7  1  0
  6  8  1  0
  8  9  2  0
  9 10  1  0
 10 11  2  0
 11 12  1  0
  7  3  1  0
 12  8  1  0
  1 13  1  0
  1 14  1  0
  2 15  1  0
  2 16  1  0
  4 17  1  0
  5 18  1  0
  9 19  1  0
 10 20  1  0
 11 21  1  0
M  END
$$$$
