@<TRIPOS>MOLECULE
*****
 43 45 0 0 0
SMALL
GASTEIGER

@<TRIPOS>ATOM
      1 C           0.5896   -2.4313   -0.9789 C.3     1  UNL1       -0.0606
      2 C           1.2521   -1.1141   -0.6586 C.3     1  UNL1       -0.0224
      3 C           2.3476   -1.3599    0.3576 C.3     1  UNL1       -0.0328
      4 C           3.2112   -0.1413    0.5862 C.3     1  UNL1        0.0151
      5 N           2.3562    1.0239    0.5688 N.am    1  UNL1       -0.2989
      6 C           2.8822    2.3131    0.3228 C.2     1  UNL1        0.2295
      7 O           2.0994    3.3247    0.3083 O.2     1  UNL1       -0.2745
      8 C           4.3179    2.6014    0.0721 C.3     1  UNL1        0.1112
      9 C           4.8322    3.1625    1.3496 C.1     1  UNL1        0.0719
     10 N           5.2167    3.6107    2.3435 N.1     1  UNL1       -0.1961
     11 C           0.9536    0.8654    0.8150 C.3     1  UNL1        0.0335
     12 C           0.3427   -0.0131   -0.2691 C.3     1  UNL1        0.0429
     13 N          -1.0140   -0.4276    0.0899 N.pl3   1  UNL1       -0.3128
     14 C          -1.1966   -1.3095    1.1821 C.3     1  UNL1        0.0024
     15 C          -2.0776    0.1121   -0.6673 C.ar    1  UNL1        0.1338
     16 N          -1.8268    1.1843   -1.4926 N.ar    1  UNL1       -0.2200
     17 C          -2.7294    1.8101   -2.2355 C.ar    1  UNL1        0.1204
     18 N          -3.9899    1.3508   -2.1711 N.ar    1  UNL1       -0.2178
     19 C          -4.3053    0.2944   -1.3757 C.ar    1  UNL1        0.1432
     20 N          -5.4767   -0.3453   -1.1522 N.ar    1  UNL1       -0.3457
     21 C          -5.3124   -1.3469   -0.2909 C.ar    1  UNL1        0.0042
     22 C          -3.9614   -1.3875    0.0877 C.ar    1  UNL1       -0.0318
     23 C          -3.3647   -0.3564   -0.6021 C.ar    1  UNL1        0.0585
     24 H          -0.4630   -2.3454   -1.2892 H       1  UNL1        0.0233
     25 H           1.1113   -2.9490   -1.8290 H       1  UNL1        0.0233
     26 H           0.7372   -3.1145   -0.1121 H       1  UNL1        0.0233
     27 H           1.8274   -0.8501   -1.6074 H       1  UNL1        0.0317
     28 H           3.0447   -2.1284   -0.0920 H       1  UNL1        0.0284
     29 H           2.0153   -1.8000    1.2959 H       1  UNL1        0.0284
     30 H           3.9792   -0.0867   -0.2210 H       1  UNL1        0.0465
     31 H           3.7101   -0.2983    1.5770 H       1  UNL1        0.0465
     32 H           4.3510    3.4271   -0.6896 H       1  UNL1        0.0513
     33 H           4.8924    1.7262   -0.2343 H       1  UNL1        0.0513
     34 H           0.4456    1.8801    0.7453 H       1  UNL1        0.0483
     35 H           0.7723    0.4782    1.8401 H       1  UNL1        0.0483
     36 H           0.2944    0.6934   -1.1650 H       1  UNL1        0.0518
     37 H          -1.9426   -0.9368    1.9361 H       1  UNL1        0.0428
     38 H          -0.2292   -1.2540    1.8086 H       1  UNL1        0.0428
     39 H          -1.2659   -2.3841    0.9608 H       1  UNL1        0.0428
     40 H          -2.4871    2.6605   -2.8785 H       1  UNL1        0.1048
     41 H          -6.3672   -0.0255   -1.6401 H       1  UNL1        0.1668
     42 H          -6.0629   -2.0345    0.0801 H       1  UNL1        0.0807
     43 H          -3.5092   -2.0785    0.7589 H       1  UNL1        0.0640
@<TRIPOS>BOND
     1     1     2    1
     2     2     3    1
     3     3     4    1
     4     4     5    1
     5     5     6   am
     6     6     7    2
     7     6     8    1
     8     8     9    1
     9     9    10    3
    10     5    11    1
    11    11    12    1
    12    12    13    1
    13    13    14    1
    14    13    15    1
    15    15    16   ar
    16    16    17   ar
    17    17    18   ar
    18    18    19   ar
    19    19    20   ar
    20    20    21   ar
    21    21    22   ar
    22    22    23   ar
    23    12     2    1
    24    23    15   ar
    25    23    19   ar
    26     1    24    1
    27     1    25    1
    28     1    26    1
    29     2    27    1
    30     3    28    1
    31     3    29    1
    32     4    30    1
    33     4    31    1
    34     8    32    1
    35     8    33    1
    36    11    34    1
    37    11    35    1
    38    12    36    1
    39    14    37    1
    40    14    38    1
    41    14    39    1
    42    17    40    1
    43    20    41    1
    44    21    42    1
    45    22    43    1
