
     RDKit          3D

 43 45  0  0  0  0  0  0  0  0999 V2000
    0.5896   -2.4313   -0.9789 C   0  0  0  0  0  0  0  0  0  0  0  0
    1.2521   -1.1141   -0.6586 C   0  0  2  0  0  0  0  0  0  0  0  0
    2.3476   -1.3599    0.3576 C   0  0  0  0  0  0  0  0  0  0  0  0
    3.2112   -0.1413    0.5862 C   0  0  0  0  0  0  0  0  0  0  0  0
    2.3562    1.0239    0.5688 N   0  0  0  0  0  0  0  0  0  0  0  0
    2.8822    2.3131    0.3228 C   0  0  0  0  0  0  0  0  0  0  0  0
    2.0994    3.3247    0.3083 O   0  0  0  0  0  0  0  0  0  0  0  0
    4.3179    2.6014    0.0721 C   0  0  0  0  0  0  0  0  0  0  0  0
    4.8322    3.1625    1.3496 C   0  0  0  0  0  0  0  0  0  0  0  0
    5.2167    3.6107    2.3435 N   0  0  0  0  0  0  0  0  0  0  0  0
    0.9536    0.8654    0.8150 C   0  0  0  0  0  0  0  0  0  0  0  0
    0.3427   -0.0131   -0.2691 C   0  0  2  0  0  0  0  0  0  0  0  0
   -1.0140   -0.4276    0.0899 N   0  0  0  0  0  0  0  0  0  0  0  0
   -1.1966   -1.3095    1.1821 C   0  0  0  0  0  0  0  0  0  0  0  0
   -2.0776    0.1121   -0.6673 C   0  0  0  0  0  0  0  0  0  0  0  0
   -1.8268    1.1843   -1.4926 N   0  0  0  0  0  0  0  0  0  0  0  0
   -2.7294    1.8101   -2.2355 C   0  0  0  0  0  0  0  0  0  0  0  0
   -3.9899    1.3508   -2.1711 N   0  0  0  0  0  0  0  0  0  0  0  0
   -4.3053    0.2944   -1.3757 C   0  0  0  0  0  0  0  0  0  0  0  0
   -5.4767   -0.3453   -1.1522 N   0  0  0  0  0  0  0  0  0  0  0  0
   -5.3124   -1.3469   -0.2909 C   0  0  0  0  0  0  0  0  0  0  0  0
   -3.9614   -1.3875    0.0877 C   0  0  0  0  0  0  0  0  0  0  0  0
   -3.3647   -0.3564   -0.6021 C   0  0  0  0  0  0  0  0  0  0  0  0
   -0.4630   -2.3454   -1.2892 H   0  0  0  0  0  0  0  0  0  0  0  0
    1.1113   -2.9490   -1.8290 H   0  0  0  0  0  0  0  0  0  0  0  0
    0.7372   -3.1145   -0.1121 H   0  0  0  0  0  0  0  0  0  0  0  0
    1.8274   -0.8501   -1.6074 H   0  0  0  0  0  0  0  0  0  0  0  0
    3.0447   -2.1284   -0.0920 H   0  0  0  0  0  0  0  0  0  0  0  0
    2.0153   -1.8000    1.2959 H   0  0  0  0  0  0  0  0  0  0  0  0
    3.9792   -0.0867   -0.2210 H   0  0  0  0  0  0  0  0  0  0  0  0
    3.7101   -0.2983    1.5770 H   0  0  0  0  0  0  0  0  0  0  0  0
    4.3510    3.4271   -0.6896 H   0  0  0  0  0  0  0  0  0  0  0  0
    4.8924    1.7262   -0.2343 H   0  0  0  0  0  0  0  0  0  0  0  0
    0.4456    1.8801    0.7453 H   0  0  0  0  0  0  0  0  0  0  0  0
    0.7723    0.4782    1.8401 H   0  0  0  0  0  0  0  0  0  0  0  0
    0.2944    0.6934   -1.1650 H   0  0  0  0  0  0  0  0  0  0  0  0
   -1.9426   -0.9368    1.9361 H   0  0  0  0  0  0  0  0  0  0  0  0
   -0.2292   -1.2540    1.8086 H   0  0  0  0  0  0  0  0  0  0  0  0
   -1.2659   -2.3841    0.9608 H   0  0  0  0  0  0  0  0  0  0  0  0
   -2.4871    2.6605   -2.8785 H   0  0  0  0  0  0  0  0  0  0  0  0
   -6.3672   -0.0255   -1.6401 H   0  0  0  0  0  0  0  0  0  0  0  0
   -6.0629   -2.0345    0.0801 H   0  0  0  0  0  0  0  0  0  0  0  0
   -3.5092   -2.0785    0.7589 H   0  0  0  0  0  0  0  0  0  0  0  0
  1  2  1  0
  2  3  1  0
  3  4  1  0
  4  5  1  0
  5  6  1  0
  6  7  2  0
  6  8  1  0
  8  9  1  0
  9 10  3  0
  5 11  1  0
 11 12  1  0
 12 13  1  0
 13 14  1  0
 13 15  1  0
 15 16  2  0
 16 17  1  0
 17 18  2  0
 18 19  1  0
 19 20  1  0
 20 21  1  0
 21 22  2  0
 22 23  1  0
 12  2  1  0
 23 15  1  0
 23 19  2  0
  1 24  1  0
  1 25  1  0
  1 26  1  0
  2 27  1  6
  3 28  1  0
  3 29  1  0
  4 30  1  0
  4 31  1  0
  8 32  1  0
  8 33  1  0
 11 34  1  0
 11 35  1  0
 12 36  1  6
 14 37  1  0
 14 38  1  0
 14 39  1  0
 17 40  1  0
 20 41  1  0
 21 42  1  0
 22 43  1  0
M  END
$$$$
