
     RDKit          3D

 47 50  0  0  0  0  0  0  0  0999 V2000
   -5.4047    1.2830    0.9450 C   0  0  0  0  0  0  0  0  0  0  0  0
   -5.5787    0.2478    0.0501 O   0  0  0  0  0  0  0  0  0  0  0  0
   -4.4121   -0.0737   -0.6370 C   0  0  0  0  0  0  0  0  0  0  0  0
   -4.7649   -1.2161   -1.5900 C   0  0  0  0  0  0  0  0  0  0  0  0
   -4.0620    1.1054   -1.5186 C   0  0  0  0  0  0  0  0  0  0  0  0
   -3.2932   -0.4611    0.2468 C   0  0  0  0  0  0  0  0  0  0  0  0
   -3.5817   -1.1182    1.4423 C   0  0  0  0  0  0  0  0  0  0  0  0
   -2.6451   -1.5000    2.3004 N   0  0  0  0  0  0  0  0  0  0  0  0
   -1.3362   -1.2437    2.0108 C   0  0  0  0  0  0  0  0  0  0  0  0
   -0.9643   -0.5968    0.8467 C   0  0  0  0  0  0  0  0  0  0  0  0
    0.4475   -0.3186    0.5368 C   0  0  0  0  0  0  0  0  0  0  0  0
    0.8264    0.7732   -0.1873 C   0  0  0  0  0  0  0  0  0  0  0  0
    2.1617    1.0376   -0.4789 C   0  0  0  0  0  0  0  0  0  0  0  0
    3.1061    0.1578   -0.0124 C   0  0  0  0  0  0  0  0  0  0  0  0
    2.7917   -0.9621    0.7239 C   0  0  0  0  0  0  0  0  0  0  0  0
    1.4137   -1.1652    0.9806 C   0  0  0  0  0  0  0  0  0  0  0  0
    3.7322   -1.9570    1.2801 C   0  0  0  0  0  0  0  0  0  0  0  0
    5.1323   -1.6996    0.8996 C   0  0  0  0  0  0  0  0  0  0  0  0
    5.3777   -0.4741    0.1361 C   0  0  0  0  0  0  0  0  0  0  0  0
    6.6212   -0.0356   -0.2573 N   0  0  0  0  0  0  0  0  0  0  0  0
    6.4122    1.0722   -0.9186 N   0  0  0  0  0  0  0  0  0  0  0  0
    5.0781    1.3782   -0.9742 C   0  0  0  0  0  0  0  0  0  0  0  0
    4.5913    2.5824   -1.6654 C   0  0  0  0  0  0  0  0  0  0  0  0
    4.4735    0.4015   -0.3125 N   0  0  0  0  0  0  0  0  0  0  0  0
   -1.9699   -0.2174   -0.0171 C   0  0  0  0  0  0  0  0  0  0  0  0
   -5.0717    2.2086    0.4205 H   0  0  0  0  0  0  0  0  0  0  0  0
   -4.7382    1.0533    1.7966 H   0  0  0  0  0  0  0  0  0  0  0  0
   -6.3944    1.5122    1.3823 H   0  0  0  0  0  0  0  0  0  0  0  0
   -4.8685   -2.1437   -0.9651 H   0  0  0  0  0  0  0  0  0  0  0  0
   -4.0311   -1.3214   -2.3955 H   0  0  0  0  0  0  0  0  0  0  0  0
   -5.7805   -0.9916   -1.9845 H   0  0  0  0  0  0  0  0  0  0  0  0
   -3.6107    1.9439   -0.9767 H   0  0  0  0  0  0  0  0  0  0  0  0
   -3.3899    0.7894   -2.3594 H   0  0  0  0  0  0  0  0  0  0  0  0
   -5.0028    1.4446   -2.0083 H   0  0  0  0  0  0  0  0  0  0  0  0
   -4.6130   -1.3273    1.6783 H   0  0  0  0  0  0  0  0  0  0  0  0
   -0.5693   -1.5530    2.7078 H   0  0  0  0  0  0  0  0  0  0  0  0
    0.1014    1.4733   -0.5613 H   0  0  0  0  0  0  0  0  0  0  0  0
    2.4287    1.8974   -1.0475 H   0  0  0  0  0  0  0  0  0  0  0  0
    1.1272   -2.0509    1.5661 H   0  0  0  0  0  0  0  0  0  0  0  0
    3.6424   -1.9156    2.4064 H   0  0  0  0  0  0  0  0  0  0  0  0
    3.3923   -2.9706    0.9274 H   0  0  0  0  0  0  0  0  0  0  0  0
    5.7698   -1.6306    1.8225 H   0  0  0  0  0  0  0  0  0  0  0  0
    5.5444   -2.6066    0.3599 H   0  0  0  0  0  0  0  0  0  0  0  0
    5.4892    3.1500   -2.0805 H   0  0  0  0  0  0  0  0  0  0  0  0
    4.1499    3.3516   -0.9845 H   0  0  0  0  0  0  0  0  0  0  0  0
    4.0056    2.3923   -2.5865 H   0  0  0  0  0  0  0  0  0  0  0  0
   -1.7335    0.2947   -0.9477 H   0  0  0  0  0  0  0  0  0  0  0  0
  1  2  1  0
  2  3  1  0
  3  4  1  0
  3  5  1  0
  3  6  1  0
  6  7  2  0
  7  8  1  0
  8  9  2  0
  9 10  1  0
 10 11  1  0
 11 12  2  0
 12 13  1  0
 13 14  2  0
 14 15  1  0
 15 16  2  0
 15 17  1  0
 17 18  1  0
 18 19  1  0
 19 20  2  0
 20 21  1  0
 21 22  2  0
 22 23  1  0
 22 24  1  0
 10 25  2  0
 25  6  1  0
 16 11  1  0
 24 19  1  0
 24 14  1  0
  1 26  1  0
  1 27  1  0
  1 28  1  0
  4 29  1  0
  4 30  1  0
  4 31  1  0
  5 32  1  0
  5 33  1  0
  5 34  1  0
  7 35  1  0
  9 36  1  0
 12 37  1  0
 13 38  1  0
 16 39  1  0
 17 40  1  0
 17 41  1  0
 18 42  1  0
 18 43  1  0
 23 44  1  0
 23 45  1  0
 23 46  1  0
 25 47  1  0
M  END
$$$$
