@<TRIPOS>MOLECULE
*****
 47 50 0 0 0
SMALL
GASTEIGER

@<TRIPOS>ATOM
      1 C          -5.4047    1.2830    0.9450 C.3     1  UNL1        0.0376
      2 O          -5.5787    0.2478    0.0501 O.3     1  UNL1       -0.3725
      3 C          -4.4121   -0.0737   -0.6370 C.3     1  UNL1        0.0898
      4 C          -4.7649   -1.2161   -1.5900 C.3     1  UNL1       -0.0318
      5 C          -4.0620    1.1054   -1.5186 C.3     1  UNL1       -0.0318
      6 C          -3.2932   -0.4611    0.2468 C.ar    1  UNL1        0.0023
      7 C          -3.5817   -1.1182    1.4423 C.ar    1  UNL1        0.0335
      8 N          -2.6451   -1.5000    2.3004 N.ar    1  UNL1       -0.2623
      9 C          -1.3362   -1.2437    2.0108 C.ar    1  UNL1        0.0353
     10 C          -0.9643   -0.5968    0.8467 C.ar    1  UNL1        0.0006
     11 C           0.4475   -0.3186    0.5368 C.ar    1  UNL1       -0.0160
     12 C           0.8264    0.7732   -0.1873 C.ar    1  UNL1       -0.0520
     13 C           2.1617    1.0376   -0.4789 C.ar    1  UNL1       -0.0369
     14 C           3.1061    0.1578   -0.0124 C.ar    1  UNL1        0.0526
     15 C           2.7917   -0.9621    0.7239 C.ar    1  UNL1       -0.0225
     16 C           1.4137   -1.1652    0.9806 C.ar    1  UNL1       -0.0488
     17 C           3.7322   -1.9570    1.2801 C.3     1  UNL1       -0.0188
     18 C           5.1323   -1.6996    0.8996 C.3     1  UNL1        0.0118
     19 C           5.3777   -0.4741    0.1361 C.ar    1  UNL1        0.1383
     20 N           6.6212   -0.0356   -0.2573 N.ar    1  UNL1       -0.1340
     21 N           6.4122    1.0722   -0.9186 N.ar    1  UNL1       -0.1343
     22 C           5.0781    1.3782   -0.9742 C.ar    1  UNL1        0.1348
     23 C           4.5913    2.5824   -1.6654 C.3     1  UNL1       -0.0041
     24 N           4.4735    0.4015   -0.3125 N.ar    1  UNL1       -0.2829
     25 C          -1.9699   -0.2174   -0.0171 C.ar    1  UNL1       -0.0452
     26 H          -5.0717    2.2086    0.4205 H       1  UNL1        0.0524
     27 H          -4.7382    1.0533    1.7966 H       1  UNL1        0.0524
     28 H          -6.3944    1.5122    1.3823 H       1  UNL1        0.0524
     29 H          -4.8685   -2.1437   -0.9651 H       1  UNL1        0.0261
     30 H          -4.0311   -1.3214   -2.3955 H       1  UNL1        0.0261
     31 H          -5.7805   -0.9916   -1.9845 H       1  UNL1        0.0261
     32 H          -3.6107    1.9439   -0.9767 H       1  UNL1        0.0261
     33 H          -3.3899    0.7894   -2.3594 H       1  UNL1        0.0261
     34 H          -5.0028    1.4446   -2.0083 H       1  UNL1        0.0261
     35 H          -4.6130   -1.3273    1.6783 H       1  UNL1        0.0833
     36 H          -0.5693   -1.5530    2.7078 H       1  UNL1        0.0836
     37 H           0.1014    1.4733   -0.5613 H       1  UNL1        0.0624
     38 H           2.4287    1.8974   -1.0475 H       1  UNL1        0.0638
     39 H           1.1272   -2.0509    1.5661 H       1  UNL1        0.0627
     40 H           3.6424   -1.9156    2.4064 H       1  UNL1        0.0318
     41 H           3.3923   -2.9706    0.9274 H       1  UNL1        0.0318
     42 H           5.7698   -1.6306    1.8225 H       1  UNL1        0.0347
     43 H           5.5444   -2.6066    0.3599 H       1  UNL1        0.0347
     44 H           5.4892    3.1500   -2.0805 H       1  UNL1        0.0308
     45 H           4.1499    3.3516   -0.9845 H       1  UNL1        0.0308
     46 H           4.0056    2.3923   -2.5865 H       1  UNL1        0.0308
     47 H          -1.7335    0.2947   -0.9477 H       1  UNL1        0.0628
@<TRIPOS>BOND
     1     1     2    1
     2     2     3    1
     3     3     4    1
     4     3     5    1
     5     3     6    1
     6     6     7   ar
     7     7     8   ar
     8     8     9   ar
     9     9    10   ar
    10    10    11    1
    11    11    12   ar
    12    12    13   ar
    13    13    14   ar
    14    14    15   ar
    15    15    16   ar
    16    15    17    1
    17    17    18    1
    18    18    19    1
    19    19    20   ar
    20    20    21   ar
    21    21    22   ar
    22    22    23    1
    23    22    24   ar
    24    10    25   ar
    25    25     6   ar
    26    16    11   ar
    27    24    19   ar
    28    24    14    1
    29     1    26    1
    30     1    27    1
    31     1    28    1
    32     4    29    1
    33     4    30    1
    34     4    31    1
    35     5    32    1
    36     5    33    1
    37     5    34    1
    38     7    35    1
    39     9    36    1
    40    12    37    1
    41    13    38    1
    42    16    39    1
    43    17    40    1
    44    17    41    1
    45    18    42    1
    46    18    43    1
    47    23    44    1
    48    23    45    1
    49    23    46    1
    50    25    47    1
