@<TRIPOS>MOLECULE
*****
 57 59 0 0 0
SMALL
GASTEIGER

@<TRIPOS>ATOM
      1 C           8.8760    0.0627   -0.2509 C.3     1  UNL1        0.0596
      2 S           7.5200   -0.4282   -1.2944 S.O2    1  UNL1       -0.0059
      3 O           7.2337    0.5911   -2.3552 O.2     1  UNL1       -0.1696
      4 O           7.9883   -1.6924   -1.9965 O.2     1  UNL1       -0.1696
      5 C           6.0883   -0.8143   -0.3675 C.ar    1  UNL1        0.0886
      6 C           5.8243   -2.1261   -0.0575 C.ar    1  UNL1       -0.0369
      7 C           4.7031   -2.4536    0.6856 C.ar    1  UNL1       -0.0592
      8 C           3.8490   -1.4267    1.1109 C.ar    1  UNL1       -0.0495
      9 C           4.1250   -0.1222    0.7936 C.ar    1  UNL1        0.0387
     10 C           3.2349    0.9309    1.2503 C.2     1  UNL1        0.2467
     11 O           3.5355    1.6742    2.2216 O.2     1  UNL1       -0.2700
     12 N           1.9902    1.0961    0.5429 N.am    1  UNL1       -0.2975
     13 C           1.6368    0.2399   -0.5452 C.3     1  UNL1        0.0155
     14 C           0.2189    0.4613   -0.9633 C.3     1  UNL1       -0.0302
     15 C          -0.6409    0.6435    0.2334 C.3     1  UNL1       -0.0125
     16 C          -2.0935    0.5838   -0.0299 C.ar    1  UNL1       -0.0325
     17 C          -2.7147    1.5763   -0.7550 C.ar    1  UNL1       -0.0570
     18 C          -4.0705    1.5219   -1.0297 C.ar    1  UNL1       -0.0479
     19 C          -4.8421    0.4708   -0.5851 C.ar    1  UNL1        0.0536
     20 C          -6.2596    0.4660   -0.9059 C.2     1  UNL1        0.3066
     21 O          -6.7672    1.3664   -1.6427 O.2     1  UNL1       -0.2516
     22 N          -7.1606   -0.5123   -0.4329 N.am    1  UNL1       -0.1709
     23 C          -8.5566   -0.5211   -0.7433 C.2     1  UNL1        0.3751
     24 N          -8.9884    0.4300   -1.5065 N.pl3   1  UNL1       -0.1313
     25 N          -9.4333   -1.5181   -0.2410 N.pl3   1  UNL1       -0.2906
     26 C          -4.1954   -0.4960    0.1311 C.ar    1  UNL1       -0.0363
     27 C          -2.8279   -0.4675    0.4230 C.ar    1  UNL1        0.0590
     28 C          -2.2901   -1.5831    1.2087 C.3     1  UNL1        0.4177
     29 F          -1.7265   -1.2555    2.4075 F       1  UNL1       -0.1659
     30 F          -3.3108   -2.4604    1.4972 F       1  UNL1       -0.1659
     31 F          -1.3988   -2.3184    0.4096 F       1  UNL1       -0.1659
     32 C          -0.3141    2.0154    0.7872 C.3     1  UNL1       -0.0302
     33 C           1.1650    2.1810    0.9762 C.3     1  UNL1        0.0155
     34 C           5.2608    0.1993    0.0425 C.ar    1  UNL1       -0.0248
     35 H           9.0240    1.1591   -0.4387 H       1  UNL1        0.0468
     36 H           9.8271   -0.4395   -0.5147 H       1  UNL1        0.0468
     37 H           8.6613   -0.1140    0.8161 H       1  UNL1        0.0468
     38 H           6.4721   -2.9548   -0.3746 H       1  UNL1        0.0636
     39 H           4.4820   -3.4784    0.9377 H       1  UNL1        0.0618
     40 H           2.9782   -1.7275    1.6942 H       1  UNL1        0.0625
     41 H           1.7633   -0.8244   -0.2142 H       1  UNL1        0.0465
     42 H           2.3472    0.4282   -1.3988 H       1  UNL1        0.0465
     43 H          -0.1485   -0.2888   -1.6897 H       1  UNL1        0.0286
     44 H           0.2302    1.4235   -1.5640 H       1  UNL1        0.0286
     45 H          -0.3506   -0.0414    1.0840 H       1  UNL1        0.0350
     46 H          -2.1449    2.4449   -1.1395 H       1  UNL1        0.0621
     47 H          -4.4975    2.3278   -1.5997 H       1  UNL1        0.0626
     48 H          -6.8074   -1.2739    0.1777 H       1  UNL1        0.2545
     49 H         -10.0156    0.4182   -1.7322 H       1  UNL1        0.3060
     50 H          -9.2622   -2.5002   -0.5283 H       1  UNL1        0.2545
     51 H         -10.2370   -1.3351    0.3941 H       1  UNL1        0.2545
     52 H          -4.8178   -1.3212    0.4755 H       1  UNL1        0.0631
     53 H          -0.6094    2.8336    0.0635 H       1  UNL1        0.0286
     54 H          -0.8569    2.1668    1.7580 H       1  UNL1        0.0286
     55 H           1.3180    2.3764    2.0870 H       1  UNL1        0.0465
     56 H           1.5382    3.1602    0.5306 H       1  UNL1        0.0465
     57 H           5.4472    1.2458   -0.1914 H       1  UNL1        0.0644
@<TRIPOS>BOND
     1     1     2    1
     2     2     3    2
     3     2     4    2
     4     2     5    1
     5     5     6   ar
     6     6     7   ar
     7     7     8   ar
     8     8     9   ar
     9     9    10    1
    10    10    11    2
    11    10    12   am
    12    12    13    1
    13    13    14    1
    14    14    15    1
    15    15    16    1
    16    16    17   ar
    17    17    18   ar
    18    18    19   ar
    19    19    20    1
    20    20    21    2
    21    20    22   am
    22    22    23    1
    23    23    24    2
    24    23    25    1
    25    19    26   ar
    26    26    27   ar
    27    27    28    1
    28    28    29    1
    29    28    30    1
    30    28    31    1
    31    15    32    1
    32    32    33    1
    33     9    34   ar
    34    34     5   ar
    35    33    12    1
    36    27    16   ar
    37     1    35    1
    38     1    36    1
    39     1    37    1
    40     6    38    1
    41     7    39    1
    42     8    40    1
    43    13    41    1
    44    13    42    1
    45    14    43    1
    46    14    44    1
    47    15    45    1
    48    17    46    1
    49    18    47    1
    50    22    48    1
    51    24    49    1
    52    25    50    1
    53    25    51    1
    54    26    52    1
    55    32    53    1
    56    32    54    1
    57    33    55    1
    58    33    56    1
    59    34    57    1
