
     RDKit          3D

 44 46  0  0  0  0  0  0  0  0999 V2000
   -5.9657    2.3412   -1.4545 C   0  0  0  0  0  0  0  0  0  0  0  0
   -5.3878    1.4767   -0.5231 O   0  0  0  0  0  0  0  0  0  0  0  0
   -4.0377    1.2033   -0.5788 C   0  0  0  0  0  0  0  0  0  0  0  0
   -3.1983    1.7467   -1.5254 C   0  0  0  0  0  0  0  0  0  0  0  0
   -1.8445    1.4509   -1.5535 C   0  0  0  0  0  0  0  0  0  0  0  0
   -1.2877    0.5807   -0.6079 C   0  0  0  0  0  0  0  0  0  0  0  0
   -2.1522    0.0558    0.3228 C   0  0  0  0  0  0  0  0  0  0  0  0
   -3.4951    0.3482    0.3519 C   0  0  0  0  0  0  0  0  0  0  0  0
   -1.4117   -0.7544    1.1372 C   0  0  0  0  0  0  0  0  0  0  0  0
   -1.9016   -1.5402    2.2884 C   0  0  0  0  0  0  0  0  0  0  0  0
   -2.6226   -2.7365    1.8062 C   0  0  0  0  0  0  0  0  0  0  0  0
   -2.7226   -2.9209    0.5693 O   0  0  0  0  0  0  0  0  0  0  0  0
   -3.1966   -3.6696    2.6512 O   0  0  0  0  0  0  0  0  0  0  0  0
   -0.0935   -0.6863    0.6544 C   0  0  0  0  0  0  0  0  0  0  0  0
    0.9475   -1.5317    1.3036 C   0  0  0  0  0  0  0  0  0  0  0  0
   -0.0288    0.1275   -0.4023 N   0  0  0  0  0  0  0  0  0  0  0  0
    1.0880    0.5413   -1.1330 C   0  0  0  0  0  0  0  0  0  0  0  0
    0.8390    1.1690   -2.2522 O   0  0  0  0  0  0  0  0  0  0  0  0
    2.4918    0.3897   -0.8514 C   0  0  0  0  0  0  0  0  0  0  0  0
    3.3438    0.1170   -1.9291 C   0  0  0  0  0  0  0  0  0  0  0  0
    4.7116    0.0244   -1.7984 C   0  0  0  0  0  0  0  0  0  0  0  0
    5.3183    0.1996   -0.5755 C   0  0  0  0  0  0  0  0  0  0  0  0
    6.7960    0.0963   -0.4468 C   0  0  0  0  0  0  0  0  0  0  0  0
    4.5068    0.4698    0.5015 C   0  0  0  0  0  0  0  0  0  0  0  0
    3.1151    0.5636    0.3627 C   0  0  0  0  0  0  0  0  0  0  0  0
   -5.3806    3.2540   -1.6428 H   0  0  0  0  0  0  0  0  0  0  0  0
   -6.1897    1.8330   -2.4181 H   0  0  0  0  0  0  0  0  0  0  0  0
   -6.9511    2.6822   -1.0599 H   0  0  0  0  0  0  0  0  0  0  0  0
   -3.6254    2.4297   -2.2709 H   0  0  0  0  0  0  0  0  0  0  0  0
   -1.2726    1.9220   -2.3256 H   0  0  0  0  0  0  0  0  0  0  0  0
   -4.1573   -0.0792    1.0974 H   0  0  0  0  0  0  0  0  0  0  0  0
   -2.5610   -0.8679    2.8981 H   0  0  0  0  0  0  0  0  0  0  0  0
   -1.0505   -1.7907    2.9495 H   0  0  0  0  0  0  0  0  0  0  0  0
   -3.4786   -4.5961    2.3449 H   0  0  0  0  0  0  0  0  0  0  0  0
    1.4541   -1.0234    2.1172 H   0  0  0  0  0  0  0  0  0  0  0  0
    0.4803   -2.4483    1.7650 H   0  0  0  0  0  0  0  0  0  0  0  0
    1.6841   -1.8271    0.5341 H   0  0  0  0  0  0  0  0  0  0  0  0
    2.8785   -0.0239   -2.9018 H   0  0  0  0  0  0  0  0  0  0  0  0
    5.3463   -0.1906   -2.6653 H   0  0  0  0  0  0  0  0  0  0  0  0
    7.2397   -0.5574   -1.2037 H   0  0  0  0  0  0  0  0  0  0  0  0
    7.2917    1.0932   -0.5446 H   0  0  0  0  0  0  0  0  0  0  0  0
    7.0513   -0.2995    0.5485 H   0  0  0  0  0  0  0  0  0  0  0  0
    4.9305    0.6161    1.4832 H   0  0  0  0  0  0  0  0  0  0  0  0
    2.4986    0.8118    1.2152 H   0  0  0  0  0  0  0  0  0  0  0  0
  1  2  1  0
  2  3  1  0
  3  4  2  0
  4  5  1  0
  5  6  2  0
  6  7  1  0
  7  8  2  0
  7  9  1  0
  9 10  1  0
 10 11  1  0
 11 12  2  0
 11 13  1  0
  9 14  2  0
 14 15  1  0
 14 16  1  0
 16 17  1  0
 17 18  2  0
 17 19  1  0
 19 20  2  0
 20 21  1  0
 21 22  2  0
 22 23  1  0
 22 24  1  0
 24 25  2  0
  8  3  1  0
 25 19  1  0
 16  6  1  0
  1 26  1  0
  1 27  1  0
  1 28  1  0
  4 29  1  0
  5 30  1  0
  8 31  1  0
 10 32  1  0
 10 33  1  0
 13 34  1  0
 15 35  1  0
 15 36  1  0
 15 37  1  0
 20 38  1  0
 21 39  1  0
 23 40  1  0
 23 41  1  0
 23 42  1  0
 24 43  1  0
 25 44  1  0
M  END
$$$$
