@<TRIPOS>MOLECULE
*****
 44 46 0 0 0
SMALL
GASTEIGER

@<TRIPOS>ATOM
      1 C          -5.9657    2.3412   -1.4545 C.3     1  UNL1        0.0788
      2 O          -5.3878    1.4767   -0.5231 O.3     1  UNL1       -0.4951
      3 C          -4.0377    1.2033   -0.5788 C.ar    1  UNL1        0.1208
      4 C          -3.1983    1.7467   -1.5254 C.ar    1  UNL1       -0.0180
      5 C          -1.8445    1.4509   -1.5535 C.ar    1  UNL1       -0.0337
      6 C          -1.2877    0.5807   -0.6079 C.ar    1  UNL1        0.0574
      7 C          -2.1522    0.0558    0.3228 C.ar    1  UNL1        0.0077
      8 C          -3.4951    0.3482    0.3519 C.ar    1  UNL1       -0.0105
      9 C          -1.4117   -0.7544    1.1372 C.ar    1  UNL1       -0.0080
     10 C          -1.9016   -1.5402    2.2884 C.3     1  UNL1        0.0721
     11 C          -2.6226   -2.7365    1.8062 C.2     1  UNL1        0.3091
     12 O          -2.7226   -2.9209    0.5693 O.2     1  UNL1       -0.2507
     13 O          -3.1966   -3.6696    2.6512 O.3     1  UNL1       -0.4804
     14 C          -0.0935   -0.6863    0.6544 C.ar    1  UNL1        0.0284
     15 C           0.9475   -1.5317    1.3036 C.3     1  UNL1       -0.0235
     16 N          -0.0288    0.1275   -0.4023 N.ar    1  UNL1       -0.2801
     17 C           1.0880    0.5413   -1.1330 C.2     1  UNL1        0.2631
     18 O           0.8390    1.1690   -2.2522 O.2     1  UNL1       -0.2667
     19 C           2.4918    0.3897   -0.8514 C.ar    1  UNL1        0.0399
     20 C           3.3438    0.1170   -1.9291 C.ar    1  UNL1       -0.0492
     21 C           4.7116    0.0244   -1.7984 C.ar    1  UNL1       -0.0581
     22 C           5.3183    0.1996   -0.5755 C.ar    1  UNL1       -0.0504
     23 C           6.7960    0.0963   -0.4468 C.3     1  UNL1       -0.0397
     24 C           4.5068    0.4698    0.5015 C.ar    1  UNL1       -0.0581
     25 C           3.1151    0.5636    0.3627 C.ar    1  UNL1       -0.0492
     26 H          -5.3806    3.2540   -1.6428 H       1  UNL1        0.0660
     27 H          -6.1897    1.8330   -2.4181 H       1  UNL1        0.0660
     28 H          -6.9511    2.6822   -1.0599 H       1  UNL1        0.0660
     29 H          -3.6254    2.4297   -2.2709 H       1  UNL1        0.0655
     30 H          -1.2726    1.9220   -2.3256 H       1  UNL1        0.0640
     31 H          -4.1573   -0.0792    1.0974 H       1  UNL1        0.0661
     32 H          -2.5610   -0.8679    2.8981 H       1  UNL1        0.0427
     33 H          -1.0505   -1.7907    2.9495 H       1  UNL1        0.0427
     34 H          -3.4786   -4.5961    2.3449 H       1  UNL1        0.2951
     35 H           1.4541   -1.0234    2.1172 H       1  UNL1        0.0292
     36 H           0.4803   -2.4483    1.7650 H       1  UNL1        0.0292
     37 H           1.6841   -1.8271    0.5341 H       1  UNL1        0.0292
     38 H           2.8785   -0.0239   -2.9018 H       1  UNL1        0.0625
     39 H           5.3463   -0.1906   -2.6653 H       1  UNL1        0.0620
     40 H           7.2397   -0.5574   -1.2037 H       1  UNL1        0.0278
     41 H           7.2917    1.0932   -0.5446 H       1  UNL1        0.0278
     42 H           7.0513   -0.2995    0.5485 H       1  UNL1        0.0278
     43 H           4.9305    0.6161    1.4832 H       1  UNL1        0.0620
     44 H           2.4986    0.8118    1.2152 H       1  UNL1        0.0625
@<TRIPOS>BOND
     1     1     2    1
     2     2     3    1
     3     3     4   ar
     4     4     5   ar
     5     5     6   ar
     6     6     7   ar
     7     7     8   ar
     8     7     9   ar
     9     9    10    1
    10    10    11    1
    11    11    12    2
    12    11    13    1
    13     9    14   ar
    14    14    15    1
    15    14    16   ar
    16    16    17   am
    17    17    18    2
    18    17    19    1
    19    19    20   ar
    20    20    21   ar
    21    21    22   ar
    22    22    23    1
    23    22    24   ar
    24    24    25   ar
    25     8     3   ar
    26    25    19   ar
    27    16     6   ar
    28     1    26    1
    29     1    27    1
    30     1    28    1
    31     4    29    1
    32     5    30    1
    33     8    31    1
    34    10    32    1
    35    10    33    1
    36    13    34    1
    37    15    35    1
    38    15    36    1
    39    15    37    1
    40    20    38    1
    41    21    39    1
    42    23    40    1
    43    23    41    1
    44    23    42    1
    45    24    43    1
    46    25    44    1
