@<TRIPOS>MOLECULE
*****
 44 46 0 0 0
SMALL
GASTEIGER

@<TRIPOS>ATOM
      1 C           6.7175    2.1539    1.6336 C.3     1  UNL1       -0.0369
      2 C           5.9121    1.1802    0.8565 C.ar    1  UNL1       -0.0135
      3 C           4.5678    1.3098    0.6627 C.ar    1  UNL1       -0.0348
      4 C           3.8154    0.4069   -0.0601 C.ar    1  UNL1        0.0338
      5 N           2.4095    0.5488   -0.1161 N.am    1  UNL1       -0.2851
      6 C           1.6980   -0.3425    0.7600 C.2     1  UNL1        0.2245
      7 O           2.4247   -1.1857    1.4230 O.2     1  UNL1       -0.2750
      8 C           0.2806   -0.3987    0.9869 C.3     1  UNL1        0.0824
      9 C          -0.6229   -0.5700   -0.1503 C.ar    1  UNL1        0.1206
     10 N          -1.9464   -0.3220    0.0257 N.ar    1  UNL1       -0.2186
     11 C          -2.8784   -0.3734   -0.9061 C.ar    1  UNL1        0.1285
     12 N          -4.2294   -0.0741   -0.5416 N.pl3   1  UNL1       -0.3106
     13 C          -5.3745   -0.1945   -1.3776 C.3     1  UNL1        0.0370
     14 C          -6.5866   -0.1558   -0.4563 C.3     1  UNL1        0.0634
     15 O          -6.4376   -0.9598    0.6709 O.3     1  UNL1       -0.3767
     16 C          -5.4338   -0.5413    1.5304 C.3     1  UNL1        0.0634
     17 C          -4.4615    0.3939    0.8376 C.3     1  UNL1        0.0370
     18 C          -2.4868   -0.7099   -2.1777 C.ar    1  UNL1        0.0427
     19 C          -1.1513   -0.9671   -2.3827 C.ar    1  UNL1        0.2533
     20 O          -0.8227   -1.2747   -3.5768 O.2     1  UNL1       -0.2677
     21 N          -0.2383   -0.8976   -1.3774 N.ar    1  UNL1       -0.3104
     22 C           4.4344   -0.6719   -0.6149 C.ar    1  UNL1       -0.0377
     23 C           5.8056   -0.8364   -0.4362 C.ar    1  UNL1       -0.0244
     24 C           6.5373    0.0868    0.2958 C.ar    1  UNL1        0.1264
     25 F           7.8668   -0.1422    0.4487 F       1  UNL1       -0.2052
     26 H           6.6053    1.8657    2.7209 H       1  UNL1        0.0278
     27 H           7.7803    2.1005    1.3894 H       1  UNL1        0.0278
     28 H           6.3065    3.1841    1.5835 H       1  UNL1        0.0278
     29 H           4.0430    2.1585    1.0789 H       1  UNL1        0.0640
     30 H           1.8571    1.1770   -0.7011 H       1  UNL1        0.1548
     31 H          -0.0662    0.4849    1.6094 H       1  UNL1        0.0438
     32 H           0.0648   -1.2921    1.6754 H       1  UNL1        0.0438
     33 H          -5.4448   -1.1031   -1.9891 H       1  UNL1        0.0487
     34 H          -5.4194    0.7007   -2.0349 H       1  UNL1        0.0487
     35 H          -7.4201   -0.5927   -1.0392 H       1  UNL1        0.0575
     36 H          -6.8637    0.8924   -0.1826 H       1  UNL1        0.0575
     37 H          -4.8887   -1.4666    1.8738 H       1  UNL1        0.0575
     38 H          -5.7853   -0.0281    2.4440 H       1  UNL1        0.0575
     39 H          -4.8153    1.4374    0.8533 H       1  UNL1        0.0487
     40 H          -3.5259    0.3828    1.4258 H       1  UNL1        0.0487
     41 H          -3.2233   -0.7623   -2.9842 H       1  UNL1        0.0706
     42 H           0.7592   -1.1128   -1.6273 H       1  UNL1        0.1700
     43 H           3.9434   -1.4349   -1.1962 H       1  UNL1        0.0637
     44 H           6.2937   -1.6958   -0.8576 H       1  UNL1        0.0647
@<TRIPOS>BOND
     1     1     2    1
     2     2     3   ar
     3     3     4   ar
     4     4     5    1
     5     5     6   am
     6     6     7    2
     7     6     8    1
     8     8     9    1
     9     9    10   ar
    10    10    11   ar
    11    11    12    1
    12    12    13    1
    13    13    14    1
    14    14    15    1
    15    15    16    1
    16    16    17    1
    17    11    18   ar
    18    18    19   ar
    19    19    20    2
    20    19    21   ar
    21     4    22   ar
    22    22    23   ar
    23    23    24   ar
    24    24    25    1
    25    24     2   ar
    26    21     9   ar
    27    17    12    1
    28     1    26    1
    29     1    27    1
    30     1    28    1
    31     3    29    1
    32     5    30    1
    33     8    31    1
    34     8    32    1
    35    13    33    1
    36    13    34    1
    37    14    35    1
    38    14    36    1
    39    16    37    1
    40    16    38    1
    41    17    39    1
    42    17    40    1
    43    18    41    1
    44    21    42    1
    45    22    43    1
    46    23    44    1
