
     RDKit          3D

 44 46  0  0  0  0  0  0  0  0999 V2000
    6.7175    2.1539    1.6336 C   0  0  0  0  0  0  0  0  0  0  0  0
    5.9121    1.1802    0.8565 C   0  0  0  0  0  0  0  0  0  0  0  0
    4.5678    1.3098    0.6627 C   0  0  0  0  0  0  0  0  0  0  0  0
    3.8154    0.4069   -0.0601 C   0  0  0  0  0  0  0  0  0  0  0  0
    2.4095    0.5488   -0.1161 N   0  0  0  0  0  0  0  0  0  0  0  0
    1.6980   -0.3425    0.7600 C   0  0  0  0  0  0  0  0  0  0  0  0
    2.4247   -1.1857    1.4230 O   0  0  0  0  0  0  0  0  0  0  0  0
    0.2806   -0.3987    0.9869 C   0  0  0  0  0  0  0  0  0  0  0  0
   -0.6229   -0.5700   -0.1503 C   0  0  0  0  0  0  0  0  0  0  0  0
   -1.9464   -0.3220    0.0257 N   0  0  0  0  0  0  0  0  0  0  0  0
   -2.8784   -0.3734   -0.9061 C   0  0  0  0  0  0  0  0  0  0  0  0
   -4.2294   -0.0741   -0.5416 N   0  0  0  0  0  0  0  0  0  0  0  0
   -5.3745   -0.1945   -1.3776 C   0  0  0  0  0  0  0  0  0  0  0  0
   -6.5866   -0.1558   -0.4563 C   0  0  0  0  0  0  0  0  0  0  0  0
   -6.4376   -0.9598    0.6709 O   0  0  0  0  0  0  0  0  0  0  0  0
   -5.4338   -0.5413    1.5304 C   0  0  0  0  0  0  0  0  0  0  0  0
   -4.4615    0.3939    0.8376 C   0  0  0  0  0  0  0  0  0  0  0  0
   -2.4868   -0.7099   -2.1777 C   0  0  0  0  0  0  0  0  0  0  0  0
   -1.1513   -0.9671   -2.3827 C   0  0  0  0  0  0  0  0  0  0  0  0
   -0.8227   -1.2747   -3.5768 O   0  0  0  0  0  0  0  0  0  0  0  0
   -0.2383   -0.8976   -1.3774 N   0  0  0  0  0  0  0  0  0  0  0  0
    4.4344   -0.6719   -0.6149 C   0  0  0  0  0  0  0  0  0  0  0  0
    5.8056   -0.8364   -0.4362 C   0  0  0  0  0  0  0  0  0  0  0  0
    6.5373    0.0868    0.2958 C   0  0  0  0  0  0  0  0  0  0  0  0
    7.8668   -0.1422    0.4487 F   0  0  0  0  0  0  0  0  0  0  0  0
    6.6053    1.8657    2.7209 H   0  0  0  0  0  0  0  0  0  0  0  0
    7.7803    2.1005    1.3894 H   0  0  0  0  0  0  0  0  0  0  0  0
    6.3065    3.1841    1.5835 H   0  0  0  0  0  0  0  0  0  0  0  0
    4.0430    2.1585    1.0789 H   0  0  0  0  0  0  0  0  0  0  0  0
    1.8571    1.1770   -0.7011 H   0  0  0  0  0  0  0  0  0  0  0  0
   -0.0662    0.4849    1.6094 H   0  0  0  0  0  0  0  0  0  0  0  0
    0.0648   -1.2921    1.6754 H   0  0  0  0  0  0  0  0  0  0  0  0
   -5.4448   -1.1031   -1.9891 H   0  0  0  0  0  0  0  0  0  0  0  0
   -5.4194    0.7007   -2.0349 H   0  0  0  0  0  0  0  0  0  0  0  0
   -7.4201   -0.5927   -1.0392 H   0  0  0  0  0  0  0  0  0  0  0  0
   -6.8637    0.8924   -0.1826 H   0  0  0  0  0  0  0  0  0  0  0  0
   -4.8887   -1.4666    1.8738 H   0  0  0  0  0  0  0  0  0  0  0  0
   -5.7853   -0.0281    2.4440 H   0  0  0  0  0  0  0  0  0  0  0  0
   -4.8153    1.4374    0.8533 H   0  0  0  0  0  0  0  0  0  0  0  0
   -3.5259    0.3828    1.4258 H   0  0  0  0  0  0  0  0  0  0  0  0
   -3.2233   -0.7623   -2.9842 H   0  0  0  0  0  0  0  0  0  0  0  0
    0.7592   -1.1128   -1.6273 H   0  0  0  0  0  0  0  0  0  0  0  0
    3.9434   -1.4349   -1.1962 H   0  0  0  0  0  0  0  0  0  0  0  0
    6.2937   -1.6958   -0.8576 H   0  0  0  0  0  0  0  0  0  0  0  0
  1  2  1  0
  2  3  2  0
  3  4  1  0
  4  5  1  0
  5  6  1  0
  6  7  2  0
  6  8  1  0
  8  9  1  0
  9 10  2  0
 10 11  1  0
 11 12  1  0
 12 13  1  0
 13 14  1  0
 14 15  1  0
 15 16  1  0
 16 17  1  0
 11 18  2  0
 18 19  1  0
 19 20  2  0
 19 21  1  0
  4 22  2  0
 22 23  1  0
 23 24  2  0
 24 25  1  0
 24  2  1  0
 21  9  1  0
 17 12  1  0
  1 26  1  0
  1 27  1  0
  1 28  1  0
  3 29  1  0
  5 30  1  0
  8 31  1  0
  8 32  1  0
 13 33  1  0
 13 34  1  0
 14 35  1  0
 14 36  1  0
 16 37  1  0
 16 38  1  0
 17 39  1  0
 17 40  1  0
 18 41  1  0
 21 42  1  0
 22 43  1  0
 23 44  1  0
M  END
$$$$
