
     RDKit          3D

 26 26  0  0  0  0  0  0  0  0999 V2000
   -2.5559   -1.7444   -1.1824 O   0  0  0  0  0  0  0  0  0  0  0  0
   -1.7679   -1.1333    0.1840 P   0  0  0  0  0  0  0  0  0  0  0  0
   -0.3819   -2.0357    0.5499 O   0  0  0  0  0  0  0  0  0  0  0  0
   -2.7553   -1.2461    1.3522 O   0  0  0  0  0  0  0  0  0  0  0  0
   -1.4017    0.6294   -0.0124 C   0  0  0  0  0  0  0  0  0  0  0  0
    0.1042    0.9839    0.8981 S   0  0  0  0  0  0  0  0  0  0  0  0
    1.5489    0.2294    0.1779 C   0  0  0  0  0  0  0  0  0  0  0  0
    2.6888    0.4755    0.9381 C   0  0  0  0  0  0  0  0  0  0  0  0
    3.9366   -0.0130    0.5621 C   0  0  0  0  0  0  0  0  0  0  0  0
    4.0825   -0.7738   -0.6034 C   0  0  0  0  0  0  0  0  0  0  0  0
    5.6128   -1.4208   -1.1407 Cl  0  0  0  0  0  0  0  0  0  0  0  0
    2.9309   -0.9925   -1.3246 C   0  0  0  0  0  0  0  0  0  0  0  0
    1.6818   -0.5284   -0.9877 C   0  0  0  0  0  0  0  0  0  0  0  0
   -2.7563    1.5606    0.7533 P   0  0  0  0  0  0  0  0  0  0  0  0
   -2.2714    3.1701    0.8023 O   0  0  0  0  0  0  0  0  0  0  0  0
   -4.1303    1.3854   -0.2035 O   0  0  0  0  0  0  0  0  0  0  0  0
   -2.9404    0.9815    2.1372 O   0  0  0  0  0  0  0  0  0  0  0  0
   -3.5462   -1.5603   -1.1217 H   0  0  0  0  0  0  0  0  0  0  0  0
   -0.5239   -2.9333    0.1093 H   0  0  0  0  0  0  0  0  0  0  0  0
   -1.3242    0.9088   -1.0905 H   0  0  0  0  0  0  0  0  0  0  0  0
    2.7551    1.0442    1.8661 H   0  0  0  0  0  0  0  0  0  0  0  0
    4.8504    0.1463    1.1136 H   0  0  0  0  0  0  0  0  0  0  0  0
    2.9559   -1.5786   -2.2514 H   0  0  0  0  0  0  0  0  0  0  0  0
    0.7513   -0.6486   -1.4928 H   0  0  0  0  0  0  0  0  0  0  0  0
   -2.6077    3.6422   -0.0135 H   0  0  0  0  0  0  0  0  0  0  0  0
   -4.9365    1.4515    0.3875 H   0  0  0  0  0  0  0  0  0  0  0  0
  1  2  1  0
  2  3  1  0
  2  4  2  0
  2  5  1  0
  5  6  1  0
  6  7  1  0
  7  8  2  0
  8  9  1  0
  9 10  2  0
 10 11  1  0
 10 12  1  0
 12 13  2  0
  5 14  1  0
 14 15  1  0
 14 16  1  0
 14 17  2  0
 13  7  1  0
  1 18  1  0
  3 19  1  0
  5 20  1  0
  8 21  1  0
  9 22  1  0
 12 23  1  0
 13 24  1  0
 15 25  1  0
 16 26  1  0
M  END
$$$$
