@<TRIPOS>MOLECULE
*****
 55 58 0 0 0
SMALL
GASTEIGER

@<TRIPOS>ATOM
      1 C          -2.5917   -0.5185    3.3534 C.3     1  UNL1       -0.0220
      2 C          -1.3307   -1.1558    2.9124 C.ar    1  UNL1        0.0471
      3 C          -0.5797   -0.7648    1.8228 C.ar    1  UNL1        0.0643
      4 C          -0.7314    0.2491    0.8705 C.ar    1  UNL1        0.1324
      5 O          -1.8322    1.0827    0.9583 O.3     1  UNL1       -0.4880
      6 C          -2.1598    2.1361    0.1265 C.3     1  UNL1        0.1021
      7 C          -2.1853    3.4784    0.8705 C.3     1  UNL1       -0.0275
      8 C          -3.4880    2.0080   -0.5638 C.3     1  UNL1        0.0195
      9 C          -3.5672    0.7784   -1.4430 C.3     1  UNL1        0.0182
     10 N          -5.0097    0.6863   -1.6637 N.am    1  UNL1       -0.3149
     11 C          -5.6939    1.3272   -0.6008 C.2     1  UNL1        0.2135
     12 O          -6.9300    1.4536   -0.4645 O.2     1  UNL1       -0.2758
     13 C          -4.6606    1.8309    0.3391 C.3     1  UNL1        0.0315
     14 C           0.2441    0.3382   -0.0951 C.ar    1  UNL1       -0.0113
     15 C           1.3421   -0.5210   -0.1527 C.ar    1  UNL1       -0.0094
     16 C           2.3512   -0.3998   -1.1846 C.ar    1  UNL1        0.0198
     17 C           2.1582    0.0289   -2.4698 C.ar    1  UNL1        0.0571
     18 N           3.3759   -0.0186   -3.0789 N.ar    1  UNL1       -0.1788
     19 N           4.2919   -0.4536   -2.2271 N.ar    1  UNL1       -0.2683
     20 C           5.7108   -0.6537   -2.4614 C.3     1  UNL1        0.0471
     21 C           5.9442   -2.1422   -2.6505 C.3     1  UNL1       -0.0429
     22 C           6.1847    0.1461   -3.6409 C.3     1  UNL1       -0.0429
     23 C           3.6788   -0.6962   -1.0459 C.ar    1  UNL1        0.0335
     24 C           1.4260   -1.5010    0.8238 C.ar    1  UNL1       -0.0259
     25 C           0.4886   -1.6335    1.8018 C.ar    1  UNL1        0.0971
     26 N           0.3392   -2.4907    2.8550 N.ar    1  UNL1       -0.1711
     27 N          -0.7603   -2.2038    3.5281 N.ar    1  UNL1       -0.2704
     28 C          -1.2800   -2.8791    4.7166 C.3     1  UNL1        0.0305
     29 H          -3.1044   -1.1412    4.1273 H       1  UNL1        0.0293
     30 H          -3.2774   -0.5410    2.4711 H       1  UNL1        0.0293
     31 H          -2.4487    0.5213    3.6685 H       1  UNL1        0.0293
     32 H          -1.4134    2.2837   -0.6780 H       1  UNL1        0.0733
     33 H          -1.4641    3.4722    1.7138 H       1  UNL1        0.0265
     34 H          -2.0125    4.3064    0.1539 H       1  UNL1        0.0265
     35 H          -3.1887    3.6033    1.2960 H       1  UNL1        0.0265
     36 H          -3.6411    2.8903   -1.1916 H       1  UNL1        0.0356
     37 H          -3.2877   -0.1142   -0.8707 H       1  UNL1        0.0466
     38 H          -3.0072    0.9134   -2.3689 H       1  UNL1        0.0466
     39 H          -5.4336    0.2133   -2.4890 H       1  UNL1        0.1487
     40 H          -4.4671    0.9790    1.0521 H       1  UNL1        0.0363
     41 H          -4.9837    2.7353    0.8758 H       1  UNL1        0.0363
     42 H           0.1880    1.0903   -0.8519 H       1  UNL1        0.0660
     43 H           1.2689    0.3539   -2.9776 H       1  UNL1        0.0854
     44 H           6.2829   -0.3278   -1.5792 H       1  UNL1        0.0539
     45 H           5.7064   -2.6221   -1.6897 H       1  UNL1        0.0250
     46 H           5.2637   -2.5526   -3.4116 H       1  UNL1        0.0250
     47 H           7.0094   -2.2543   -2.9319 H       1  UNL1        0.0250
     48 H           7.2647    0.3742   -3.4849 H       1  UNL1        0.0250
     49 H           6.0079   -0.3676   -4.6070 H       1  UNL1        0.0250
     50 H           5.6634    1.1168   -3.6248 H       1  UNL1        0.0250
     51 H           4.2104   -1.0686   -0.1582 H       1  UNL1        0.0832
     52 H           2.2712   -2.1924    0.8114 H       1  UNL1        0.0646
     53 H          -0.5128   -3.5731    5.1228 H       1  UNL1        0.0473
     54 H          -2.1651   -3.4746    4.4800 H       1  UNL1        0.0473
     55 H          -1.4646   -2.1358    5.5314 H       1  UNL1        0.0473
@<TRIPOS>BOND
     1     1     2    1
     2     2     3   ar
     3     3     4   ar
     4     4     5    1
     5     5     6    1
     6     6     7    1
     7     6     8    1
     8     8     9    1
     9     9    10    1
    10    10    11   am
    11    11    12    2
    12    11    13    1
    13     4    14   ar
    14    14    15   ar
    15    15    16    1
    16    16    17   ar
    17    17    18   ar
    18    18    19   ar
    19    19    20    1
    20    20    21    1
    21    20    22    1
    22    19    23   ar
    23    15    24   ar
    24    24    25   ar
    25    25    26   ar
    26    26    27   ar
    27    27    28    1
    28    27     2   ar
    29    25     3   ar
    30    13     8    1
    31    23    16   ar
    32     1    29    1
    33     1    30    1
    34     1    31    1
    35     6    32    1
    36     7    33    1
    37     7    34    1
    38     7    35    1
    39     8    36    1
    40     9    37    1
    41     9    38    1
    42    10    39    1
    43    13    40    1
    44    13    41    1
    45    14    42    1
    46    17    43    1
    47    20    44    1
    48    21    45    1
    49    21    46    1
    50    21    47    1
    51    22    48    1
    52    22    49    1
    53    22    50    1
    54    23    51    1
    55    24    52    1
    56    28    53    1
    57    28    54    1
    58    28    55    1
