@<TRIPOS>MOLECULE
*****
 57 61 0 0 0
SMALL
GASTEIGER

@<TRIPOS>ATOM
      1 C           2.1393    1.6405   -3.4183 C.3     1  UNL1       -0.0598
      2 C           2.1923    2.4473   -2.1509 C.3     1  UNL1       -0.0108
      3 C           1.1484    2.0434   -1.1675 C.ar    1  UNL1        0.0728
      4 N          -0.0090    2.6714   -0.8931 N.ar    1  UNL1       -0.1690
      5 N          -0.7064    2.0501    0.0228 N.ar    1  UNL1       -0.2173
      6 C          -1.9711    2.3752    0.5893 C.ar    1  UNL1        0.0703
      7 C          -2.3020    2.1814    1.9139 C.ar    1  UNL1       -0.0359
      8 C          -3.5531    2.5048    2.4088 C.ar    1  UNL1       -0.0597
      9 C          -4.4940    3.0357    1.5533 C.ar    1  UNL1       -0.0614
     10 C          -4.1904    3.2395    0.2296 C.ar    1  UNL1       -0.0568
     11 C          -2.9411    2.9106   -0.2393 C.ar    1  UNL1       -0.0250
     12 C          -2.6024    3.1309   -1.6715 C.3     1  UNL1       -0.0377
     13 C           0.0131    0.9669    0.3727 C.ar    1  UNL1        0.1346
     14 N          -0.3356   -0.0094    1.3681 N.pl3   1  UNL1       -0.2982
     15 C          -1.2928   -1.0028    1.0318 C.ar    1  UNL1        0.0465
     16 C          -1.8766   -0.9794   -0.2445 C.ar    1  UNL1       -0.0397
     17 C          -2.7956   -1.8910   -0.6547 C.ar    1  UNL1       -0.0600
     18 C          -3.1772   -2.8882    0.2179 C.ar    1  UNL1       -0.0609
     19 C          -2.6344   -2.9523    1.4758 C.ar    1  UNL1       -0.0460
     20 C          -1.6832   -2.0010    1.8882 C.ar    1  UNL1        0.0799
     21 C          -1.1564   -2.1174    3.2270 C.2     1  UNL1        0.3386
     22 O          -0.3400   -1.3359    3.7108 O.2     1  UNL1       -0.2451
     23 O          -1.5656   -3.1706    4.0747 O.3     1  UNL1       -0.4771
     24 C           1.1976    0.9252   -0.3591 C.ar    1  UNL1        0.0452
     25 C           2.2331   -0.0982   -0.2392 C.ar    1  UNL1       -0.0107
     26 C           3.2616    0.0521    0.6919 C.ar    1  UNL1       -0.0517
     27 C           4.2603   -0.8788    0.8338 C.ar    1  UNL1       -0.0337
     28 C           4.2396   -2.0043    0.0206 C.ar    1  UNL1        0.0892
     29 N           5.2207   -2.9425    0.1418 N.ar    1  UNL1       -0.2519
     30 C           5.2309   -4.0421   -0.6296 C.ar    1  UNL1        0.0464
     31 C           4.2113   -4.1948   -1.5554 C.ar    1  UNL1        0.0464
     32 N           3.2211   -3.3034   -1.7165 N.ar    1  UNL1       -0.2519
     33 C           3.2490   -2.2006   -0.9125 C.ar    1  UNL1        0.0897
     34 C           2.2645   -1.2320   -1.0163 C.ar    1  UNL1       -0.0264
     35 H           1.1464    1.8330   -3.9149 H       1  UNL1        0.0233
     36 H           2.9629    2.0163   -4.0784 H       1  UNL1        0.0233
     37 H           2.1793    0.5542   -3.2674 H       1  UNL1        0.0233
     38 H           1.9493    3.5066   -2.4503 H       1  UNL1        0.0326
     39 H           3.2095    2.4317   -1.7220 H       1  UNL1        0.0326
     40 H          -1.5479    1.7617    2.5743 H       1  UNL1        0.0639
     41 H          -3.8104    2.3479    3.4616 H       1  UNL1        0.0618
     42 H          -5.4693    3.2804    1.9630 H       1  UNL1        0.0618
     43 H          -4.9703    3.6585   -0.3965 H       1  UNL1        0.0621
     44 H          -3.5043    3.4946   -2.1871 H       1  UNL1        0.0278
     45 H          -1.8134    3.9039   -1.8081 H       1  UNL1        0.0278
     46 H          -2.3167    2.1890   -2.1849 H       1  UNL1        0.0278
     47 H           0.1136    0.0481    2.2660 H       1  UNL1        0.1536
     48 H          -1.5769   -0.2065   -0.9140 H       1  UNL1        0.0636
     49 H          -3.2531   -1.8830   -1.6377 H       1  UNL1        0.0618
     50 H          -3.9114   -3.6159   -0.1129 H       1  UNL1        0.0618
     51 H          -2.9051   -3.7125    2.1864 H       1  UNL1        0.0626
     52 H          -1.0039   -3.4528    4.8800 H       1  UNL1        0.2954
     53 H           3.2296    0.9472    1.3029 H       1  UNL1        0.0624
     54 H           5.0703   -0.7592    1.5709 H       1  UNL1        0.0640
     55 H           6.0173   -4.7914   -0.5319 H       1  UNL1        0.0845
     56 H           4.2709   -5.1124   -2.1620 H       1  UNL1        0.0845
     57 H           1.4780   -1.3695   -1.7413 H       1  UNL1        0.0645
@<TRIPOS>BOND
     1     1     2    1
     2     2     3    1
     3     3     4   ar
     4     4     5   ar
     5     5     6    1
     6     6     7   ar
     7     7     8   ar
     8     8     9   ar
     9     9    10   ar
    10    10    11   ar
    11    11    12    1
    12     5    13   ar
    13    13    14    1
    14    14    15    1
    15    15    16   ar
    16    16    17   ar
    17    17    18   ar
    18    18    19   ar
    19    19    20   ar
    20    20    21    1
    21    21    22    2
    22    21    23    1
    23    13    24   ar
    24    24    25    1
    25    25    26   ar
    26    26    27   ar
    27    27    28   ar
    28    28    29   ar
    29    29    30   ar
    30    30    31   ar
    31    31    32   ar
    32    32    33   ar
    33    33    34   ar
    34    24     3   ar
    35    34    25   ar
    36    11     6   ar
    37    20    15   ar
    38    33    28   ar
    39     1    35    1
    40     1    36    1
    41     1    37    1
    42     2    38    1
    43     2    39    1
    44     7    40    1
    45     8    41    1
    46     9    42    1
    47    10    43    1
    48    12    44    1
    49    12    45    1
    50    12    46    1
    51    14    47    1
    52    16    48    1
    53    17    49    1
    54    18    50    1
    55    19    51    1
    56    23    52    1
    57    26    53    1
    58    27    54    1
    59    30    55    1
    60    31    56    1
    61    34    57    1
