
     RDKit          3D

 35 35  0  0  0  0  0  0  0  0999 V2000
   -4.1653   -0.3226    0.8148 C   0  0  0  0  0  0  0  0  0  0  0  0
   -3.6857   -0.6480   -0.5874 C   0  0  0  0  0  0  0  0  0  0  0  0
   -2.4010   -0.0382   -0.7665 N   0  0  0  0  0  0  0  0  0  0  0  0
   -1.2663   -0.4476   -0.0242 C   0  0  0  0  0  0  0  0  0  0  0  0
   -1.3768   -1.4675    0.8896 C   0  0  0  0  0  0  0  0  0  0  0  0
   -0.3049   -1.8532    1.5848 N   0  0  0  0  0  0  0  0  0  0  0  0
    0.9018   -1.2780    1.4288 C   0  0  0  0  0  0  0  0  0  0  0  0
    1.0791   -0.2433    0.5221 C   0  0  0  0  0  0  0  0  0  0  0  0
    2.3080    0.4153    0.3079 N   0  0  0  0  0  0  0  0  0  0  0  0
    2.5693    1.8170    0.5820 C   0  0  0  0  0  0  0  0  0  0  0  0
    3.4353   -0.3346   -0.2316 C   0  0  0  0  0  0  0  0  0  0  0  0
    3.1198   -1.7658   -0.5004 C   0  0  0  0  0  0  0  0  0  0  0  0
   -0.0237    0.1573   -0.1972 C   0  0  0  0  0  0  0  0  0  0  0  0
    0.1051    1.2335   -1.1787 C   0  0  0  0  0  0  0  0  0  0  0  0
   -0.4871    2.4428   -0.6682 N   0  0  0  0  0  0  0  0  0  0  0  0
   -4.6185   -1.1944    1.2879 H   0  0  0  0  0  0  0  0  0  0  0  0
   -4.9651    0.4661    0.7201 H   0  0  0  0  0  0  0  0  0  0  0  0
   -3.3870    0.1720    1.4364 H   0  0  0  0  0  0  0  0  0  0  0  0
   -4.3921   -0.2065   -1.3156 H   0  0  0  0  0  0  0  0  0  0  0  0
   -3.5901   -1.7496   -0.7225 H   0  0  0  0  0  0  0  0  0  0  0  0
   -2.2942    0.7272   -1.4555 H   0  0  0  0  0  0  0  0  0  0  0  0
   -2.3600   -1.9409    1.0111 H   0  0  0  0  0  0  0  0  0  0  0  0
    1.7841   -1.5749    1.9829 H   0  0  0  0  0  0  0  0  0  0  0  0
    1.7325    2.3528    1.0161 H   0  0  0  0  0  0  0  0  0  0  0  0
    3.0233    2.2696   -0.3222 H   0  0  0  0  0  0  0  0  0  0  0  0
    3.3926    1.8869    1.3591 H   0  0  0  0  0  0  0  0  0  0  0  0
    4.2828   -0.1917    0.4962 H   0  0  0  0  0  0  0  0  0  0  0  0
    3.7810    0.1230   -1.1983 H   0  0  0  0  0  0  0  0  0  0  0  0
    3.3499   -2.4256    0.3441 H   0  0  0  0  0  0  0  0  0  0  0  0
    3.6589   -2.1592   -1.3864 H   0  0  0  0  0  0  0  0  0  0  0  0
    2.0155   -1.8382   -0.7021 H   0  0  0  0  0  0  0  0  0  0  0  0
    1.1595    1.3927   -1.5118 H   0  0  0  0  0  0  0  0  0  0  0  0
   -0.4327    0.9742   -2.1195 H   0  0  0  0  0  0  0  0  0  0  0  0
   -1.2241    2.8597   -1.2407 H   0  0  0  0  0  0  0  0  0  0  0  0
   -0.7240    2.3895    0.3446 H   0  0  0  0  0  0  0  0  0  0  0  0
  1  2  1  0
  2  3  1  0
  3  4  1  0
  4  5  2  0
  5  6  1  0
  6  7  2  0
  7  8  1  0
  8  9  1  0
  9 10  1  0
  9 11  1  0
 11 12  1  0
  8 13  2  0
 13 14  1  0
 14 15  1  0
 13  4  1  0
  1 16  1  0
  1 17  1  0
  1 18  1  0
  2 19  1  0
  2 20  1  0
  3 21  1  0
  5 22  1  0
  7 23  1  0
 10 24  1  0
 10 25  1  0
 10 26  1  0
 11 27  1  0
 11 28  1  0
 12 29  1  0
 12 30  1  0
 12 31  1  0
 14 32  1  0
 14 33  1  0
 15 34  1  0
 15 35  1  0
M  END
$$$$
