@<TRIPOS>MOLECULE
*****
 35 35 0 0 0
SMALL
GASTEIGER

@<TRIPOS>ATOM
      1 C          -4.1653   -0.3226    0.8148 C.3     1  UNL1       -0.0496
      2 C          -3.6857   -0.6480   -0.5874 C.3     1  UNL1        0.0063
      3 N          -2.4010   -0.0382   -0.7665 N.pl3   1  UNL1       -0.3426
      4 C          -1.2663   -0.4476   -0.0242 C.ar    1  UNL1        0.0517
      5 C          -1.3768   -1.4675    0.8896 C.ar    1  UNL1        0.0488
      6 N          -0.3049   -1.8532    1.5848 N.ar    1  UNL1       -0.2596
      7 C           0.9018   -1.2780    1.4288 C.ar    1  UNL1        0.0490
      8 C           1.0791   -0.2433    0.5221 C.ar    1  UNL1        0.0540
      9 N           2.3080    0.4153    0.3079 N.pl3   1  UNL1       -0.3318
     10 C           2.5693    1.8170    0.5820 C.3     1  UNL1        0.0007
     11 C           3.4353   -0.3346   -0.2316 C.3     1  UNL1        0.0091
     12 C           3.1198   -1.7658   -0.5004 C.3     1  UNL1       -0.0494
     13 C          -0.0237    0.1573   -0.1972 C.ar    1  UNL1        0.0109
     14 C           0.1051    1.2335   -1.1787 C.3     1  UNL1        0.0222
     15 N          -0.4871    2.4428   -0.6682 N.3     1  UNL1       -0.3260
     16 H          -4.6185   -1.1944    1.2879 H       1  UNL1        0.0245
     17 H          -4.9651    0.4661    0.7201 H       1  UNL1        0.0245
     18 H          -3.3870    0.1720    1.4364 H       1  UNL1        0.0245
     19 H          -4.3921   -0.2065   -1.3156 H       1  UNL1        0.0458
     20 H          -3.5901   -1.7496   -0.7225 H       1  UNL1        0.0458
     21 H          -2.2942    0.7272   -1.4555 H       1  UNL1        0.1461
     22 H          -2.3600   -1.9409    1.0111 H       1  UNL1        0.0848
     23 H           1.7841   -1.5749    1.9829 H       1  UNL1        0.0848
     24 H           1.7325    2.3528    1.0161 H       1  UNL1        0.0428
     25 H           3.0233    2.2696   -0.3222 H       1  UNL1        0.0428
     26 H           3.3926    1.8869    1.3591 H       1  UNL1        0.0428
     27 H           4.2828   -0.1917    0.4962 H       1  UNL1        0.0461
     28 H           3.7810    0.1230   -1.1983 H       1  UNL1        0.0461
     29 H           3.3499   -2.4256    0.3441 H       1  UNL1        0.0245
     30 H           3.6589   -2.1592   -1.3864 H       1  UNL1        0.0245
     31 H           2.0155   -1.8382   -0.7021 H       1  UNL1        0.0245
     32 H           1.1595    1.3927   -1.5118 H       1  UNL1        0.0472
     33 H          -0.4327    0.9742   -2.1195 H       1  UNL1        0.0472
     34 H          -1.2241    2.8597   -1.2407 H       1  UNL1        0.1185
     35 H          -0.7240    2.3895    0.3446 H       1  UNL1        0.1185
@<TRIPOS>BOND
     1     1     2    1
     2     2     3    1
     3     3     4    1
     4     4     5   ar
     5     5     6   ar
     6     6     7   ar
     7     7     8   ar
     8     8     9    1
     9     9    10    1
    10     9    11    1
    11    11    12    1
    12     8    13   ar
    13    13    14    1
    14    14    15    1
    15    13     4   ar
    16     1    16    1
    17     1    17    1
    18     1    18    1
    19     2    19    1
    20     2    20    1
    21     3    21    1
    22     5    22    1
    23     7    23    1
    24    10    24    1
    25    10    25    1
    26    10    26    1
    27    11    27    1
    28    11    28    1
    29    12    29    1
    30    12    30    1
    31    12    31    1
    32    14    32    1
    33    14    33    1
    34    15    34    1
    35    15    35    1
