@<TRIPOS>MOLECULE
*****
 53 56 0 0 0
SMALL
GASTEIGER

@<TRIPOS>ATOM
      1 C          -4.9710    1.3316    1.8641 C.3     1  UNL1       -0.0586
      2 C          -4.1424    1.1107    0.6409 C.3     1  UNL1       -0.0204
      3 C          -4.3765    2.2322   -0.3688 C.3     1  UNL1       -0.0586
      4 C          -4.5158   -0.1863   -0.0843 C.3     1  UNL1        0.0047
      5 N          -3.2399   -0.7246   -0.5470 N.3     1  UNL1       -0.2947
      6 C          -3.3954   -2.1624   -0.6439 C.3     1  UNL1       -0.0005
      7 C          -3.1254   -2.6773    0.7588 C.3     1  UNL1       -0.0385
      8 C          -2.8543   -1.4421    1.6021 C.3     1  UNL1       -0.0318
      9 C          -2.3792   -0.4561    0.5615 C.3     1  UNL1        0.0379
     10 C          -0.9315   -0.6990    0.2869 C.3     1  UNL1        0.0276
     11 N          -0.4009    0.0910   -0.7734 N.pl3   1  UNL1       -0.3409
     12 C           0.9582   -0.0319   -1.1459 C.ar    1  UNL1        0.0486
     13 C           1.7832   -0.9192   -0.4849 C.ar    1  UNL1       -0.0022
     14 C           3.1246   -1.0238   -0.8708 C.ar    1  UNL1        0.1517
     15 F           3.8277   -1.9649   -0.2268 F       1  UNL1       -0.2034
     16 C           3.6437   -0.2771   -1.8752 C.ar    1  UNL1        0.1450
     17 S           5.2950   -0.2473   -2.3660 S.O2    1  UNL1        0.0766
     18 O           5.3111    0.1201   -3.8524 O.2     1  UNL1       -0.1498
     19 O           5.8206   -1.6956   -2.2838 O.2     1  UNL1       -0.1498
     20 N           6.2642    0.7778   -1.4848 N.pl3   1  UNL1       -0.1937
     21 C           6.6472    0.8294   -0.1148 C.ar    1  UNL1        0.1774
     22 N           7.3009    1.5042    0.6165 N.ar    1  UNL1       -0.2321
     23 C           7.5488    1.3277    1.8796 C.ar    1  UNL1        0.0369
     24 C           6.9961    0.2298    2.4630 C.ar    1  UNL1       -0.0030
     25 S           6.1098   -0.5022    1.0545 S.2     1  UNL1       -0.0594
     26 C           2.7783    0.6164   -2.5301 C.ar    1  UNL1       -0.0121
     27 C           1.4684    0.7355   -2.1739 C.ar    1  UNL1        0.0638
     28 CL          0.4092    1.8525   -3.0011 Cl      1  UNL1       -0.0816
     29 C          -2.6738    0.9610    0.9189 C.3     1  UNL1       -0.0267
     30 H          -4.3003    1.6918    2.6840 H       1  UNL1        0.0235
     31 H          -5.6959    2.1764    1.7051 H       1  UNL1        0.0235
     32 H          -5.5810    0.4679    2.1664 H       1  UNL1        0.0235
     33 H          -4.5347    3.1669    0.2050 H       1  UNL1        0.0235
     34 H          -5.2796    2.0368   -0.9773 H       1  UNL1        0.0235
     35 H          -3.4794    2.3639   -1.0020 H       1  UNL1        0.0235
     36 H          -5.0201   -0.8968    0.6070 H       1  UNL1        0.0432
     37 H          -5.2111    0.0057   -0.9150 H       1  UNL1        0.0432
     38 H          -2.6214   -2.5105   -1.3712 H       1  UNL1        0.0427
     39 H          -4.4204   -2.4023   -0.9877 H       1  UNL1        0.0427
     40 H          -2.2119   -3.3165    0.6956 H       1  UNL1        0.0278
     41 H          -4.0014   -3.2217    1.1555 H       1  UNL1        0.0278
     42 H          -2.0073   -1.6270    2.3143 H       1  UNL1        0.0284
     43 H          -3.7214   -1.1030    2.1667 H       1  UNL1        0.0284
     44 H          -0.3790   -0.4834    1.2435 H       1  UNL1        0.0479
     45 H          -0.7790   -1.7991    0.1264 H       1  UNL1        0.0479
     46 H          -1.0128    0.7606   -1.2762 H       1  UNL1        0.1462
     47 H           1.4184   -1.5396    0.3287 H       1  UNL1        0.0666
     48 H           6.7248    1.5978   -2.0275 H       1  UNL1        0.1758
     49 H           8.1851    2.0397    2.4656 H       1  UNL1        0.0835
     50 H           7.0163   -0.1883    3.4858 H       1  UNL1        0.0710
     51 H           3.1474    1.2348   -3.3431 H       1  UNL1        0.0653
     52 H          -2.1114    1.6165    0.2200 H       1  UNL1        0.0289
     53 H          -2.4050    1.2189    1.9629 H       1  UNL1        0.0289
@<TRIPOS>BOND
     1     1     2    1
     2     2     3    1
     3     2     4    1
     4     4     5    1
     5     5     6    1
     6     6     7    1
     7     7     8    1
     8     8     9    1
     9     9    10    1
    10    10    11    1
    11    11    12    1
    12    12    13   ar
    13    13    14   ar
    14    14    15    1
    15    14    16   ar
    16    16    17    1
    17    17    18    2
    18    17    19    2
    19    17    20    1
    20    20    21    1
    21    21    22   ar
    22    22    23   ar
    23    23    24   ar
    24    24    25   ar
    25    16    26   ar
    26    26    27   ar
    27    27    28    1
    28     9    29    1
    29    29     2    1
    30     9     5    1
    31    27    12   ar
    32    25    21   ar
    33     1    30    1
    34     1    31    1
    35     1    32    1
    36     3    33    1
    37     3    34    1
    38     3    35    1
    39     4    36    1
    40     4    37    1
    41     6    38    1
    42     6    39    1
    43     7    40    1
    44     7    41    1
    45     8    42    1
    46     8    43    1
    47    10    44    1
    48    10    45    1
    49    11    46    1
    50    13    47    1
    51    20    48    1
    52    23    49    1
    53    24    50    1
    54    26    51    1
    55    29    52    1
    56    29    53    1
