
     RDKit          3D

 53 56  0  0  0  0  0  0  0  0999 V2000
   -4.9710    1.3316    1.8641 C   0  0  0  0  0  0  0  0  0  0  0  0
   -4.1424    1.1107    0.6409 C   0  0  0  0  0  0  0  0  0  0  0  0
   -4.3765    2.2322   -0.3688 C   0  0  0  0  0  0  0  0  0  0  0  0
   -4.5158   -0.1863   -0.0843 C   0  0  0  0  0  0  0  0  0  0  0  0
   -3.2399   -0.7246   -0.5470 N   0  0  0  0  0  0  0  0  0  0  0  0
   -3.3954   -2.1624   -0.6439 C   0  0  0  0  0  0  0  0  0  0  0  0
   -3.1254   -2.6773    0.7588 C   0  0  0  0  0  0  0  0  0  0  0  0
   -2.8543   -1.4421    1.6021 C   0  0  0  0  0  0  0  0  0  0  0  0
   -2.3792   -0.4561    0.5615 C   0  0  1  0  0  0  0  0  0  0  0  0
   -0.9315   -0.6990    0.2869 C   0  0  0  0  0  0  0  0  0  0  0  0
   -0.4009    0.0910   -0.7734 N   0  0  0  0  0  0  0  0  0  0  0  0
    0.9582   -0.0319   -1.1459 C   0  0  0  0  0  0  0  0  0  0  0  0
    1.7832   -0.9192   -0.4849 C   0  0  0  0  0  0  0  0  0  0  0  0
    3.1246   -1.0238   -0.8708 C   0  0  0  0  0  0  0  0  0  0  0  0
    3.8277   -1.9649   -0.2268 F   0  0  0  0  0  0  0  0  0  0  0  0
    3.6437   -0.2771   -1.8752 C   0  0  0  0  0  0  0  0  0  0  0  0
    5.2950   -0.2473   -2.3660 S   0  0  0  0  0  6  0  0  0  0  0  0
    5.3111    0.1201   -3.8524 O   0  0  0  0  0  0  0  0  0  0  0  0
    5.8206   -1.6956   -2.2838 O   0  0  0  0  0  0  0  0  0  0  0  0
    6.2642    0.7778   -1.4848 N   0  0  0  0  0  0  0  0  0  0  0  0
    6.6472    0.8294   -0.1148 C   0  0  0  0  0  0  0  0  0  0  0  0
    7.3009    1.5042    0.6165 N   0  0  0  0  0  0  0  0  0  0  0  0
    7.5488    1.3277    1.8796 C   0  0  0  0  0  0  0  0  0  0  0  0
    6.9961    0.2298    2.4630 C   0  0  0  0  0  0  0  0  0  0  0  0
    6.1098   -0.5022    1.0545 S   0  0  0  0  0  0  0  0  0  0  0  0
    2.7783    0.6164   -2.5301 C   0  0  0  0  0  0  0  0  0  0  0  0
    1.4684    0.7355   -2.1739 C   0  0  0  0  0  0  0  0  0  0  0  0
    0.4092    1.8525   -3.0011 Cl  0  0  0  0  0  0  0  0  0  0  0  0
   -2.6738    0.9610    0.9189 C   0  0  0  0  0  0  0  0  0  0  0  0
   -4.3003    1.6918    2.6840 H   0  0  0  0  0  0  0  0  0  0  0  0
   -5.6959    2.1764    1.7051 H   0  0  0  0  0  0  0  0  0  0  0  0
   -5.5810    0.4679    2.1664 H   0  0  0  0  0  0  0  0  0  0  0  0
   -4.5347    3.1669    0.2050 H   0  0  0  0  0  0  0  0  0  0  0  0
   -5.2796    2.0368   -0.9773 H   0  0  0  0  0  0  0  0  0  0  0  0
   -3.4794    2.3639   -1.0020 H   0  0  0  0  0  0  0  0  0  0  0  0
   -5.0201   -0.8968    0.6070 H   0  0  0  0  0  0  0  0  0  0  0  0
   -5.2111    0.0057   -0.9150 H   0  0  0  0  0  0  0  0  0  0  0  0
   -2.6214   -2.5105   -1.3712 H   0  0  0  0  0  0  0  0  0  0  0  0
   -4.4204   -2.4023   -0.9877 H   0  0  0  0  0  0  0  0  0  0  0  0
   -2.2119   -3.3165    0.6956 H   0  0  0  0  0  0  0  0  0  0  0  0
   -4.0014   -3.2217    1.1555 H   0  0  0  0  0  0  0  0  0  0  0  0
   -2.0073   -1.6270    2.3143 H   0  0  0  0  0  0  0  0  0  0  0  0
   -3.7214   -1.1030    2.1667 H   0  0  0  0  0  0  0  0  0  0  0  0
   -0.3790   -0.4834    1.2435 H   0  0  0  0  0  0  0  0  0  0  0  0
   -0.7790   -1.7991    0.1264 H   0  0  0  0  0  0  0  0  0  0  0  0
   -1.0128    0.7606   -1.2762 H   0  0  0  0  0  0  0  0  0  0  0  0
    1.4184   -1.5396    0.3287 H   0  0  0  0  0  0  0  0  0  0  0  0
    6.7248    1.5978   -2.0275 H   0  0  0  0  0  0  0  0  0  0  0  0
    8.1851    2.0397    2.4656 H   0  0  0  0  0  0  0  0  0  0  0  0
    7.0163   -0.1883    3.4858 H   0  0  0  0  0  0  0  0  0  0  0  0
    3.1474    1.2348   -3.3431 H   0  0  0  0  0  0  0  0  0  0  0  0
   -2.1114    1.6165    0.2200 H   0  0  0  0  0  0  0  0  0  0  0  0
   -2.4050    1.2189    1.9629 H   0  0  0  0  0  0  0  0  0  0  0  0
  1  2  1  0
  2  3  1  0
  2  4  1  0
  4  5  1  0
  5  6  1  0
  6  7  1  0
  7  8  1  0
  8  9  1  0
  9 10  1  6
 10 11  1  0
 11 12  1  0
 12 13  2  0
 13 14  1  0
 14 15  1  0
 14 16  2  0
 16 17  1  0
 17 18  2  0
 17 19  2  0
 17 20  1  0
 20 21  1  0
 21 22  2  0
 22 23  1  0
 23 24  2  0
 24 25  1  0
 16 26  1  0
 26 27  2  0
 27 28  1  0
  9 29  1  0
 29  2  1  0
  9  5  1  0
 27 12  1  0
 25 21  1  0
  1 30  1  0
  1 31  1  0
  1 32  1  0
  3 33  1  0
  3 34  1  0
  3 35  1  0
  4 36  1  0
  4 37  1  0
  6 38  1  0
  6 39  1  0
  7 40  1  0
  7 41  1  0
  8 42  1  0
  8 43  1  0
 10 44  1  0
 10 45  1  0
 11 46  1  0
 13 47  1  0
 20 48  1  0
 23 49  1  0
 24 50  1  0
 26 51  1  0
 29 52  1  0
 29 53  1  0
M  END
$$$$
