@<TRIPOS>MOLECULE
*****
 63 66 0 0 0
SMALL
GASTEIGER

@<TRIPOS>ATOM
      1 C          -4.9923   -3.9133   -0.5182 C.3     1  UNL1       -0.0652
      2 C          -4.7221   -2.4606   -0.1418 C.3     1  UNL1       -0.0539
      3 C          -4.6473   -1.6509   -1.4124 C.3     1  UNL1       -0.0284
      4 C          -4.3902   -0.1842   -1.1443 C.3     1  UNL1        0.0748
      5 C          -5.4196    0.4312   -0.3278 C.ar    1  UNL1       -0.0164
      6 C          -6.7444    0.5050   -0.7613 C.ar    1  UNL1       -0.0561
      7 C          -7.7617    1.0079   -0.0049 C.ar    1  UNL1       -0.0614
      8 C          -7.4937    1.4788    1.2684 C.ar    1  UNL1       -0.0611
      9 C          -6.1899    1.4235    1.7277 C.ar    1  UNL1       -0.0528
     10 C          -5.1706    0.9026    0.9261 C.ar    1  UNL1       -0.0004
     11 C          -3.7817    0.9404    1.3889 C.2     1  UNL1        0.0534
     12 N          -2.8523    0.5402    0.5933 N.2     1  UNL1       -0.1841
     13 N          -3.0557    0.0711   -0.6969 N.am    1  UNL1       -0.1822
     14 C          -1.9335   -0.1225   -1.5314 C.2     1  UNL1        0.2592
     15 O          -2.1812   -0.5509   -2.7130 O.2     1  UNL1       -0.2689
     16 C          -0.5622    0.1111   -1.2051 C.2     1  UNL1        0.0027
     17 C          -0.0337    0.5387   -0.0851 C.2     1  UNL1       -0.0460
     18 C           1.4071    0.7415    0.1305 C.ar    1  UNL1        0.0207
     19 C           2.3322    0.5098   -0.8298 C.ar    1  UNL1       -0.0474
     20 C           3.6963    0.7397   -0.5746 C.ar    1  UNL1       -0.0387
     21 C           4.6365    0.4425   -1.6609 C.3     1  UNL1        0.0024
     22 C           5.8942   -0.2137   -1.2505 C.ar    1  UNL1        0.0146
     23 C           5.9567   -1.5847   -1.2483 C.ar    1  UNL1        0.0379
     24 N           7.0796   -2.2249   -0.8395 N.ar    1  UNL1       -0.2227
     25 C           8.1446   -1.5204   -0.4311 C.ar    1  UNL1        0.2142
     26 N           9.3582   -2.1427    0.0125 N.pl3   1  UNL1       -0.3274
     27 N           8.0953   -0.1762   -0.4275 N.ar    1  UNL1       -0.1999
     28 C           6.9878    0.4816   -0.8324 C.ar    1  UNL1        0.1247
     29 N           6.9547    1.9102   -0.8797 N.pl3   1  UNL1       -0.3428
     30 C           4.0614    1.1990    0.6690 C.ar    1  UNL1       -0.0130
     31 C           3.0931    1.4315    1.6478 C.ar    1  UNL1        0.1593
     32 O           3.4793    1.9015    2.9137 O.3     1  UNL1       -0.5033
     33 C           1.7735    1.2111    1.3993 C.ar    1  UNL1        0.1684
     34 O           0.8200    1.4516    2.3957 O.3     1  UNL1       -0.4909
     35 C           0.5296    0.3382    3.2334 C.3     1  UNL1        0.0790
     36 H          -5.8397   -3.8802   -1.2433 H       1  UNL1        0.0230
     37 H          -5.3030   -4.4547    0.3859 H       1  UNL1        0.0230
     38 H          -4.1469   -4.3932   -1.0199 H       1  UNL1        0.0230
     39 H          -3.8502   -2.3594    0.5086 H       1  UNL1        0.0263
     40 H          -5.6112   -2.1288    0.4345 H       1  UNL1        0.0263
     41 H          -5.5829   -1.7188   -1.9687 H       1  UNL1        0.0287
     42 H          -3.8317   -2.0291   -2.0469 H       1  UNL1        0.0287
     43 H          -4.4677    0.2974   -2.1655 H       1  UNL1        0.0571
     44 H          -6.9576    0.1372   -1.7510 H       1  UNL1        0.0621
     45 H          -8.7910    1.0587   -0.3664 H       1  UNL1        0.0618
     46 H          -8.2962    1.8779    1.8699 H       1  UNL1        0.0618
     47 H          -5.9080    1.7692    2.7010 H       1  UNL1        0.0624
     48 H          -3.5608    1.3012    2.3830 H       1  UNL1        0.0851
     49 H           0.2229   -0.0888   -1.9874 H       1  UNL1        0.0670
     50 H          -0.7229    0.7527    0.7310 H       1  UNL1        0.0626
     51 H           2.0991    0.1466   -1.8186 H       1  UNL1        0.0627
     52 H           4.1446   -0.1969   -2.4264 H       1  UNL1        0.0363
     53 H           4.8374    1.4191   -2.1753 H       1  UNL1        0.0363
     54 H           5.0867   -2.1441   -1.5819 H       1  UNL1        0.0834
     55 H          10.0929   -1.6003    0.5019 H       1  UNL1        0.1452
     56 H           9.4615   -3.1540   -0.1754 H       1  UNL1        0.1452
     57 H           7.2694    2.4610   -0.0509 H       1  UNL1        0.1437
     58 H           6.6251    2.4268   -1.7093 H       1  UNL1        0.1437
     59 H           5.1101    1.3796    0.9209 H       1  UNL1        0.0658
     60 H           4.2033    2.6148    2.9508 H       1  UNL1        0.2923
     61 H           0.3714   -0.5265    2.5508 H       1  UNL1        0.0660
     62 H          -0.3581    0.5952    3.8242 H       1  UNL1        0.0660
     63 H           1.3355    0.0982    3.9345 H       1  UNL1        0.0660
@<TRIPOS>BOND
     1     1     2    1
     2     2     3    1
     3     3     4    1
     4     4     5    1
     5     5     6   ar
     6     6     7   ar
     7     7     8   ar
     8     8     9   ar
     9     9    10   ar
    10    10    11    1
    11    11    12    2
    12    12    13    1
    13    13    14   am
    14    14    15    2
    15    14    16    1
    16    16    17    2
    17    17    18    1
    18    18    19   ar
    19    19    20   ar
    20    20    21    1
    21    21    22    1
    22    22    23   ar
    23    23    24   ar
    24    24    25   ar
    25    25    26    1
    26    25    27   ar
    27    27    28   ar
    28    28    29    1
    29    20    30   ar
    30    30    31   ar
    31    31    32    1
    32    31    33   ar
    33    33    34    1
    34    34    35    1
    35    13     4    1
    36    33    18   ar
    37    10     5   ar
    38    28    22   ar
    39     1    36    1
    40     1    37    1
    41     1    38    1
    42     2    39    1
    43     2    40    1
    44     3    41    1
    45     3    42    1
    46     4    43    1
    47     6    44    1
    48     7    45    1
    49     8    46    1
    50     9    47    1
    51    11    48    1
    52    16    49    1
    53    17    50    1
    54    19    51    1
    55    21    52    1
    56    21    53    1
    57    23    54    1
    58    26    55    1
    59    26    56    1
    60    29    57    1
    61    29    58    1
    62    30    59    1
    63    32    60    1
    64    35    61    1
    65    35    62    1
    66    35    63    1
