
     RDKit          3D

 63 66  0  0  0  0  0  0  0  0999 V2000
   -4.9923   -3.9133   -0.5182 C   0  0  0  0  0  0  0  0  0  0  0  0
   -4.7221   -2.4606   -0.1418 C   0  0  0  0  0  0  0  0  0  0  0  0
   -4.6473   -1.6509   -1.4124 C   0  0  0  0  0  0  0  0  0  0  0  0
   -4.3902   -0.1842   -1.1443 C   0  0  0  0  0  0  0  0  0  0  0  0
   -5.4196    0.4312   -0.3278 C   0  0  0  0  0  0  0  0  0  0  0  0
   -6.7444    0.5050   -0.7613 C   0  0  0  0  0  0  0  0  0  0  0  0
   -7.7617    1.0079   -0.0049 C   0  0  0  0  0  0  0  0  0  0  0  0
   -7.4937    1.4788    1.2684 C   0  0  0  0  0  0  0  0  0  0  0  0
   -6.1899    1.4235    1.7277 C   0  0  0  0  0  0  0  0  0  0  0  0
   -5.1706    0.9026    0.9261 C   0  0  0  0  0  0  0  0  0  0  0  0
   -3.7817    0.9404    1.3889 C   0  0  0  0  0  0  0  0  0  0  0  0
   -2.8523    0.5402    0.5933 N   0  0  0  0  0  0  0  0  0  0  0  0
   -3.0557    0.0711   -0.6969 N   0  0  0  0  0  0  0  0  0  0  0  0
   -1.9335   -0.1225   -1.5314 C   0  0  0  0  0  0  0  0  0  0  0  0
   -2.1812   -0.5509   -2.7130 O   0  0  0  0  0  0  0  0  0  0  0  0
   -0.5622    0.1111   -1.2051 C   0  0  0  0  0  0  0  0  0  0  0  0
   -0.0337    0.5387   -0.0851 C   0  0  0  0  0  0  0  0  0  0  0  0
    1.4071    0.7415    0.1305 C   0  0  0  0  0  0  0  0  0  0  0  0
    2.3322    0.5098   -0.8298 C   0  0  0  0  0  0  0  0  0  0  0  0
    3.6963    0.7397   -0.5746 C   0  0  0  0  0  0  0  0  0  0  0  0
    4.6365    0.4425   -1.6609 C   0  0  0  0  0  0  0  0  0  0  0  0
    5.8942   -0.2137   -1.2505 C   0  0  0  0  0  0  0  0  0  0  0  0
    5.9567   -1.5847   -1.2483 C   0  0  0  0  0  0  0  0  0  0  0  0
    7.0796   -2.2249   -0.8395 N   0  0  0  0  0  0  0  0  0  0  0  0
    8.1446   -1.5204   -0.4311 C   0  0  0  0  0  0  0  0  0  0  0  0
    9.3582   -2.1427    0.0125 N   0  0  0  0  0  0  0  0  0  0  0  0
    8.0953   -0.1762   -0.4275 N   0  0  0  0  0  0  0  0  0  0  0  0
    6.9878    0.4816   -0.8324 C   0  0  0  0  0  0  0  0  0  0  0  0
    6.9547    1.9102   -0.8797 N   0  0  0  0  0  0  0  0  0  0  0  0
    4.0614    1.1990    0.6690 C   0  0  0  0  0  0  0  0  0  0  0  0
    3.0931    1.4315    1.6478 C   0  0  0  0  0  0  0  0  0  0  0  0
    3.4793    1.9015    2.9137 O   0  0  0  0  0  0  0  0  0  0  0  0
    1.7735    1.2111    1.3993 C   0  0  0  0  0  0  0  0  0  0  0  0
    0.8200    1.4516    2.3957 O   0  0  0  0  0  0  0  0  0  0  0  0
    0.5296    0.3382    3.2334 C   0  0  0  0  0  0  0  0  0  0  0  0
   -5.8397   -3.8802   -1.2433 H   0  0  0  0  0  0  0  0  0  0  0  0
   -5.3030   -4.4547    0.3859 H   0  0  0  0  0  0  0  0  0  0  0  0
   -4.1469   -4.3932   -1.0199 H   0  0  0  0  0  0  0  0  0  0  0  0
   -3.8502   -2.3594    0.5086 H   0  0  0  0  0  0  0  0  0  0  0  0
   -5.6112   -2.1288    0.4345 H   0  0  0  0  0  0  0  0  0  0  0  0
   -5.5829   -1.7188   -1.9687 H   0  0  0  0  0  0  0  0  0  0  0  0
   -3.8317   -2.0291   -2.0469 H   0  0  0  0  0  0  0  0  0  0  0  0
   -4.4677    0.2974   -2.1655 H   0  0  0  0  0  0  0  0  0  0  0  0
   -6.9576    0.1372   -1.7510 H   0  0  0  0  0  0  0  0  0  0  0  0
   -8.7910    1.0587   -0.3664 H   0  0  0  0  0  0  0  0  0  0  0  0
   -8.2962    1.8779    1.8699 H   0  0  0  0  0  0  0  0  0  0  0  0
   -5.9080    1.7692    2.7010 H   0  0  0  0  0  0  0  0  0  0  0  0
   -3.5608    1.3012    2.3830 H   0  0  0  0  0  0  0  0  0  0  0  0
    0.2229   -0.0888   -1.9874 H   0  0  0  0  0  0  0  0  0  0  0  0
   -0.7229    0.7527    0.7310 H   0  0  0  0  0  0  0  0  0  0  0  0
    2.0991    0.1466   -1.8186 H   0  0  0  0  0  0  0  0  0  0  0  0
    4.1446   -0.1969   -2.4264 H   0  0  0  0  0  0  0  0  0  0  0  0
    4.8374    1.4191   -2.1753 H   0  0  0  0  0  0  0  0  0  0  0  0
    5.0867   -2.1441   -1.5819 H   0  0  0  0  0  0  0  0  0  0  0  0
   10.0929   -1.6003    0.5019 H   0  0  0  0  0  0  0  0  0  0  0  0
    9.4615   -3.1540   -0.1754 H   0  0  0  0  0  0  0  0  0  0  0  0
    7.2694    2.4610   -0.0509 H   0  0  0  0  0  0  0  0  0  0  0  0
    6.6251    2.4268   -1.7093 H   0  0  0  0  0  0  0  0  0  0  0  0
    5.1101    1.3796    0.9209 H   0  0  0  0  0  0  0  0  0  0  0  0
    4.2033    2.6148    2.9508 H   0  0  0  0  0  0  0  0  0  0  0  0
    0.3714   -0.5265    2.5508 H   0  0  0  0  0  0  0  0  0  0  0  0
   -0.3581    0.5952    3.8242 H   0  0  0  0  0  0  0  0  0  0  0  0
    1.3355    0.0982    3.9345 H   0  0  0  0  0  0  0  0  0  0  0  0
  1  2  1  0
  2  3  1  0
  3  4  1  0
  4  5  1  0
  5  6  2  0
  6  7  1  0
  7  8  2  0
  8  9  1  0
  9 10  2  0
 10 11  1  0
 11 12  2  0
 12 13  1  0
 13 14  1  0
 14 15  2  0
 14 16  1  0
 16 17  2  0
 17 18  1  0
 18 19  2  0
 19 20  1  0
 20 21  1  0
 21 22  1  0
 22 23  2  0
 23 24  1  0
 24 25  2  0
 25 26  1  0
 25 27  1  0
 27 28  2  0
 28 29  1  0
 20 30  2  0
 30 31  1  0
 31 32  1  0
 31 33  2  0
 33 34  1  0
 34 35  1  0
 13  4  1  0
 33 18  1  0
 10  5  1  0
 28 22  1  0
  1 36  1  0
  1 37  1  0
  1 38  1  0
  2 39  1  0
  2 40  1  0
  3 41  1  0
  3 42  1  0
  4 43  1  0
  6 44  1  0
  7 45  1  0
  8 46  1  0
  9 47  1  0
 11 48  1  0
 16 49  1  0
 17 50  1  0
 19 51  1  0
 21 52  1  0
 21 53  1  0
 23 54  1  0
 26 55  1  0
 26 56  1  0
 29 57  1  0
 29 58  1  0
 30 59  1  0
 32 60  1  0
 35 61  1  0
 35 62  1  0
 35 63  1  0
M  END
$$$$
