
     RDKit          3D

 49 52  0  0  0  0  0  0  0  0999 V2000
   -1.8901   -2.2125   -1.4333 N   0  0  0  0  0  0  0  0  0  0  0  0
   -1.4148   -1.0498   -0.7346 C   0  0  1  0  0  0  0  0  0  0  0  0
   -0.0454   -0.6032   -1.2122 C   0  0  0  0  0  0  0  0  0  0  0  0
    0.0219    0.7189   -0.6180 N   0  0  0  0  0  0  0  0  0  0  0  0
    1.2155    1.2945   -0.1066 C   0  0  0  0  0  0  0  0  0  0  0  0
    1.2313    2.5345    0.4402 N   0  0  0  0  0  0  0  0  0  0  0  0
    2.3766    3.0652    0.9216 C   0  0  0  0  0  0  0  0  0  0  0  0
    3.5313    2.3629    0.8649 N   0  0  0  0  0  0  0  0  0  0  0  0
    3.5439    1.1368    0.3304 C   0  0  0  0  0  0  0  0  0  0  0  0
    4.7605    0.3650    0.2568 N   0  0  0  0  0  0  0  0  0  0  0  0
    4.9121   -0.9654   -0.2948 C   0  0  0  0  0  0  0  0  0  0  0  0
    5.7517   -1.6437    0.7667 C   0  0  0  0  0  0  0  0  0  0  0  0
    6.5924   -0.5248    1.3360 C   0  0  0  0  0  0  0  0  0  0  0  0
    6.4418   -0.4426    2.7037 F   0  0  0  0  0  0  0  0  0  0  0  0
    7.9163   -0.6742    0.9719 F   0  0  0  0  0  0  0  0  0  0  0  0
    6.0755    0.7572    0.7164 C   0  0  0  0  0  0  0  0  0  0  0  0
    2.3872    0.6391   -0.1391 N   0  0  0  0  0  0  0  0  0  0  0  0
   -1.3078    1.3151   -0.6453 C   0  0  0  0  0  0  0  0  0  0  0  0
   -2.2297    0.1804   -0.9677 C   0  0  2  0  0  0  0  0  0  0  0  0
   -3.4869    0.1968   -0.2749 N   0  0  0  0  0  0  0  0  0  0  0  0
   -4.7248    0.3003   -1.0491 C   0  0  0  0  0  0  0  0  0  0  0  0
   -5.9571    0.1953   -0.1856 C   0  0  0  0  0  0  0  0  0  0  0  0
   -7.0447   -0.0595   -0.9873 F   0  0  0  0  0  0  0  0  0  0  0  0
   -6.1411    1.3239    0.5942 F   0  0  0  0  0  0  0  0  0  0  0  0
   -5.7534   -0.9616    0.8023 C   0  0  0  0  0  0  0  0  0  0  0  0
   -4.7990   -0.4265    1.8465 C   0  0  0  0  0  0  0  0  0  0  0  0
   -3.6104    0.1199    1.1365 C   0  0  0  0  0  0  0  0  0  0  0  0
   -2.6157    0.5578    1.8118 O   0  0  0  0  0  0  0  0  0  0  0  0
   -1.7742   -3.0703   -0.8204 H   0  0  0  0  0  0  0  0  0  0  0  0
   -2.9315   -2.1450   -1.5877 H   0  0  0  0  0  0  0  0  0  0  0  0
   -1.2895   -1.3000    0.3396 H   0  0  0  0  0  0  0  0  0  0  0  0
    0.7563   -1.2695   -0.8547 H   0  0  0  0  0  0  0  0  0  0  0  0
   -0.0505   -0.4646   -2.3125 H   0  0  0  0  0  0  0  0  0  0  0  0
    2.4348    4.0468    1.3645 H   0  0  0  0  0  0  0  0  0  0  0  0
    3.9416   -1.4752   -0.4420 H   0  0  0  0  0  0  0  0  0  0  0  0
    5.5075   -0.9243   -1.2502 H   0  0  0  0  0  0  0  0  0  0  0  0
    5.0323   -2.0540    1.5177 H   0  0  0  0  0  0  0  0  0  0  0  0
    6.3722   -2.4429    0.3126 H   0  0  0  0  0  0  0  0  0  0  0  0
    6.0244    1.5760    1.4574 H   0  0  0  0  0  0  0  0  0  0  0  0
    6.6510    1.0517   -0.1872 H   0  0  0  0  0  0  0  0  0  0  0  0
   -1.2599    2.0516   -1.5026 H   0  0  0  0  0  0  0  0  0  0  0  0
   -1.5345    1.8833    0.2530 H   0  0  0  0  0  0  0  0  0  0  0  0
   -2.4303    0.2425   -2.0642 H   0  0  0  0  0  0  0  0  0  0  0  0
   -4.7805    1.3061   -1.5489 H   0  0  0  0  0  0  0  0  0  0  0  0
   -4.7710   -0.4672   -1.8409 H   0  0  0  0  0  0  0  0  0  0  0  0
   -5.2176   -1.7523    0.2397 H   0  0  0  0  0  0  0  0  0  0  0  0
   -6.7159   -1.2899    1.2225 H   0  0  0  0  0  0  0  0  0  0  0  0
   -4.4278   -1.3179    2.4217 H   0  0  0  0  0  0  0  0  0  0  0  0
   -5.2740    0.3152    2.5159 H   0  0  0  0  0  0  0  0  0  0  0  0
  1  2  1  0
  2  3  1  0
  3  4  1  0
  4  5  1  0
  5  6  2  0
  6  7  1  0
  7  8  2  0
  8  9  1  0
  9 10  1  0
 10 11  1  0
 11 12  1  0
 12 13  1  0
 13 14  1  0
 13 15  1  0
 13 16  1  0
  9 17  2  0
  4 18  1  0
 18 19  1  0
 19 20  1  0
 20 21  1  0
 21 22  1  0
 22 23  1  0
 22 24  1  0
 22 25  1  0
 25 26  1  0
 26 27  1  0
 27 28  2  0
 19  2  1  0
 27 20  1  0
 17  5  1  0
 16 10  1  0
  1 29  1  0
  1 30  1  0
  2 31  1  1
  3 32  1  0
  3 33  1  0
  7 34  1  0
 11 35  1  0
 11 36  1  0
 12 37  1  0
 12 38  1  0
 16 39  1  0
 16 40  1  0
 18 41  1  0
 18 42  1  0
 19 43  1  6
 21 44  1  0
 21 45  1  0
 25 46  1  0
 25 47  1  0
 26 48  1  0
 26 49  1  0
M  END
$$$$
