@<TRIPOS>MOLECULE
*****
 49 52 0 0 0
SMALL
GASTEIGER

@<TRIPOS>ATOM
      1 N          -1.8901   -2.2125   -1.4333 N.3     1  UNL1       -0.3244
      2 C          -1.4148   -1.0498   -0.7346 C.3     1  UNL1        0.0411
      3 C          -0.0454   -0.6032   -1.2122 C.3     1  UNL1        0.0319
      4 N           0.0219    0.7189   -0.6180 N.pl3   1  UNL1       -0.2962
      5 C           1.2155    1.2945   -0.1066 C.ar    1  UNL1        0.2222
      6 N           1.2313    2.5345    0.4402 N.ar    1  UNL1       -0.2028
      7 C           2.3766    3.0652    0.9216 C.ar    1  UNL1        0.1232
      8 N           3.5313    2.3629    0.8649 N.ar    1  UNL1       -0.2028
      9 C           3.5439    1.1368    0.3304 C.ar    1  UNL1        0.2223
     10 N           4.7605    0.3650    0.2568 N.pl3   1  UNL1       -0.2937
     11 C           4.9121   -0.9654   -0.2948 C.3     1  UNL1        0.0206
     12 C           5.7517   -1.6437    0.7667 C.3     1  UNL1        0.0281
     13 C           6.5924   -0.5248    1.3360 C.3     1  UNL1        0.2657
     14 F           6.4418   -0.4426    2.7037 F       1  UNL1       -0.2039
     15 F           7.9163   -0.6742    0.9719 F       1  UNL1       -0.2039
     16 C           6.0755    0.7572    0.7164 C.3     1  UNL1        0.0783
     17 N           2.3872    0.6391   -0.1391 N.ar    1  UNL1       -0.1808
     18 C          -1.3078    1.3151   -0.6453 C.3     1  UNL1        0.0351
     19 C          -2.2297    0.1804   -0.9677 C.3     1  UNL1        0.0585
     20 N          -3.4869    0.1968   -0.2749 N.am    1  UNL1       -0.2897
     21 C          -4.7248    0.3003   -1.0491 C.3     1  UNL1        0.0785
     22 C          -5.9571    0.1953   -0.1856 C.3     1  UNL1        0.2647
     23 F          -7.0447   -0.0595   -0.9873 F       1  UNL1       -0.2039
     24 F          -6.1411    1.3239    0.5942 F       1  UNL1       -0.2039
     25 C          -5.7534   -0.9616    0.8023 C.3     1  UNL1        0.0206
     26 C          -4.7990   -0.4265    1.8465 C.3     1  UNL1        0.0296
     27 C          -3.6104    0.1199    1.1365 C.2     1  UNL1        0.2162
     28 O          -2.6157    0.5578    1.8118 O.2     1  UNL1       -0.2756
     29 H          -1.7742   -3.0703   -0.8204 H       1  UNL1        0.1186
     30 H          -2.9315   -2.1450   -1.5877 H       1  UNL1        0.1186
     31 H          -1.2895   -1.3000    0.3396 H       1  UNL1        0.0493
     32 H           0.7563   -1.2695   -0.8547 H       1  UNL1        0.0480
     33 H          -0.0505   -0.4646   -2.3125 H       1  UNL1        0.0480
     34 H           2.4348    4.0468    1.3645 H       1  UNL1        0.1049
     35 H           3.9416   -1.4752   -0.4420 H       1  UNL1        0.0466
     36 H           5.5075   -0.9243   -1.2502 H       1  UNL1        0.0466
     37 H           5.0323   -2.0540    1.5177 H       1  UNL1        0.0338
     38 H           6.3722   -2.4429    0.3126 H       1  UNL1        0.0338
     39 H           6.0244    1.5760    1.4574 H       1  UNL1        0.0523
     40 H           6.6510    1.0517   -0.1872 H       1  UNL1        0.0523
     41 H          -1.2599    2.0516   -1.5026 H       1  UNL1        0.0483
     42 H          -1.5345    1.8833    0.2530 H       1  UNL1        0.0483
     43 H          -2.4303    0.2425   -2.0642 H       1  UNL1        0.0532
     44 H          -4.7805    1.3061   -1.5489 H       1  UNL1        0.0523
     45 H          -4.7710   -0.4672   -1.8409 H       1  UNL1        0.0523
     46 H          -5.2176   -1.7523    0.2397 H       1  UNL1        0.0328
     47 H          -6.7159   -1.2899    1.2225 H       1  UNL1        0.0328
     48 H          -4.4278   -1.3179    2.4217 H       1  UNL1        0.0360
     49 H          -5.2740    0.3152    2.5159 H       1  UNL1        0.0360
@<TRIPOS>BOND
     1     1     2    1
     2     2     3    1
     3     3     4    1
     4     4     5    1
     5     5     6   ar
     6     6     7   ar
     7     7     8   ar
     8     8     9   ar
     9     9    10    1
    10    10    11    1
    11    11    12    1
    12    12    13    1
    13    13    14    1
    14    13    15    1
    15    13    16    1
    16     9    17   ar
    17     4    18    1
    18    18    19    1
    19    19    20    1
    20    20    21    1
    21    21    22    1
    22    22    23    1
    23    22    24    1
    24    22    25    1
    25    25    26    1
    26    26    27    1
    27    27    28    2
    28    19     2    1
    29    27    20   am
    30    17     5   ar
    31    16    10    1
    32     1    29    1
    33     1    30    1
    34     2    31    1
    35     3    32    1
    36     3    33    1
    37     7    34    1
    38    11    35    1
    39    11    36    1
    40    12    37    1
    41    12    38    1
    42    16    39    1
    43    16    40    1
    44    18    41    1
    45    18    42    1
    46    19    43    1
    47    21    44    1
    48    21    45    1
    49    25    46    1
    50    25    47    1
    51    26    48    1
    52    26    49    1
