@<TRIPOS>MOLECULE
*****
 27 29 0 0 0
SMALL
GASTEIGER

@<TRIPOS>ATOM
      1 O          -2.5995   -2.7768   -0.8088 O.2     1  UNL1       -0.2701
      2 C          -2.5849   -1.5296   -0.6355 C.2     1  UNL1        0.2458
      3 N          -3.7804   -0.7571   -0.6914 N.am    1  UNL1       -0.3109
      4 C          -3.8060    0.4516    0.1062 C.3     1  UNL1        0.0172
      5 C          -2.6590    1.3296   -0.2710 C.3     1  UNL1        0.0038
      6 C          -1.3756    0.5970   -0.1819 C.ar    1  UNL1        0.0301
      7 N          -0.0923    0.9987    0.0548 N.ar    1  UNL1       -0.3573
      8 C           0.7392   -0.0565    0.0286 C.ar    1  UNL1        0.0475
      9 C           2.1836   -0.0259    0.2373 C.ar    1  UNL1        0.0012
     10 C           2.8178    1.1705    0.4903 C.ar    1  UNL1       -0.0345
     11 C           4.1955    1.1545    0.6832 C.ar    1  UNL1        0.0282
     12 N           4.8716   -0.0052    0.6208 N.ar    1  UNL1       -0.2632
     13 C           4.2944   -1.1906    0.3774 C.ar    1  UNL1        0.0282
     14 C           2.9244   -1.1870    0.1838 C.ar    1  UNL1       -0.0345
     15 C          -0.0573   -1.1511   -0.2334 C.ar    1  UNL1       -0.0240
     16 C          -1.3621   -0.7651   -0.3654 C.ar    1  UNL1        0.0578
     17 H          -4.5918   -1.0774   -1.2940 H       1  UNL1        0.1490
     18 H          -4.7827    0.9603   -0.0296 H       1  UNL1        0.0466
     19 H          -3.6567    0.1517    1.1728 H       1  UNL1        0.0466
     20 H          -2.6654    2.2032    0.4327 H       1  UNL1        0.0343
     21 H          -2.8215    1.7069   -1.3212 H       1  UNL1        0.0343
     22 H           0.1811    1.9971    0.2297 H       1  UNL1        0.1656
     23 H           2.2953    2.1191    0.5458 H       1  UNL1        0.0639
     24 H           4.6876    2.1068    0.8828 H       1  UNL1        0.0830
     25 H           4.8833   -2.1016    0.3365 H       1  UNL1        0.0830
     26 H           2.4734   -2.1577   -0.0124 H       1  UNL1        0.0639
     27 H           0.2881   -2.1651   -0.3229 H       1  UNL1        0.0646
@<TRIPOS>BOND
     1     1     2    2
     2     2     3   am
     3     3     4    1
     4     4     5    1
     5     5     6    1
     6     6     7   ar
     7     7     8   ar
     8     8     9    1
     9     9    10   ar
    10    10    11   ar
    11    11    12   ar
    12    12    13   ar
    13    13    14   ar
    14     8    15   ar
    15    15    16   ar
    16    16     2    1
    17    16     6   ar
    18    14     9   ar
    19     3    17    1
    20     4    18    1
    21     4    19    1
    22     5    20    1
    23     5    21    1
    24     7    22    1
    25    10    23    1
    26    11    24    1
    27    13    25    1
    28    14    26    1
    29    15    27    1
