@<TRIPOS>MOLECULE
*****
 50 54 0 0 0
SMALL
GASTEIGER

@<TRIPOS>ATOM
      1 O           2.3140    1.3384    1.2171 O.2     1  UNL1       -0.2699
      2 C           3.1888    0.5313    0.7919 C.2     1  UNL1        0.2483
      3 N           2.7287   -0.7213    0.3355 N.am    1  UNL1       -0.2815
      4 C           1.3627   -1.1062    0.3323 C.ar    1  UNL1        0.0343
      5 C           0.8784   -1.7371    1.4618 C.ar    1  UNL1       -0.0404
      6 C          -0.4460   -2.1193    1.4793 C.ar    1  UNL1       -0.0594
      7 C          -1.2993   -1.8972    0.4192 C.ar    1  UNL1       -0.0524
      8 C          -0.8123   -1.2624   -0.7173 C.ar    1  UNL1        0.0023
      9 C          -1.7296   -1.0445   -1.8091 C.ar    1  UNL1        0.0763
     10 C          -1.4635   -1.2785   -3.1286 C.ar    1  UNL1       -0.0174
     11 C          -2.4107   -1.0372   -4.0998 C.ar    1  UNL1        0.0320
     12 N          -3.6159   -0.5684   -3.7870 N.ar    1  UNL1       -0.2360
     13 C          -3.8774   -0.3360   -2.4677 C.ar    1  UNL1        0.1566
     14 C          -5.0314    0.1421   -1.8878 C.ar    1  UNL1        0.0102
     15 C          -4.7981    0.2012   -0.5133 C.ar    1  UNL1        0.0954
     16 C          -5.7317    0.6452    0.5032 C.ar    1  UNL1        0.0050
     17 C          -5.3563    0.6464    1.8159 C.ar    1  UNL1       -0.0344
     18 C          -6.2922    1.0826    2.7507 C.ar    1  UNL1        0.0282
     19 N          -7.5210    1.4893    2.3872 N.ar    1  UNL1       -0.2632
     20 C          -7.8816    1.4838    1.0845 C.ar    1  UNL1        0.0282
     21 C          -6.9776    1.0582    0.1415 C.ar    1  UNL1       -0.0344
     22 N          -3.5392   -0.2381   -0.3578 N.ar    1  UNL1       -0.1644
     23 N          -2.9727   -0.5627   -1.5034 N.ar    1  UNL1       -0.2135
     24 C           0.5074   -0.8864   -0.7236 C.ar    1  UNL1       -0.0313
     25 C           4.5949    0.9384    0.7996 C.ar    1  UNL1        0.0376
     26 C           4.9652    2.1825    1.2624 C.ar    1  UNL1       -0.0496
     27 C           6.2871    2.5859    1.2780 C.ar    1  UNL1       -0.0605
     28 C           7.2605    1.7250    0.8203 C.ar    1  UNL1       -0.0501
     29 C           6.9396    0.4704    0.3477 C.ar    1  UNL1        0.0555
     30 C           7.9963   -0.4655   -0.1498 C.3     1  UNL1        0.4174
     31 F           7.6492   -1.7742    0.0563 F       1  UNL1       -0.1659
     32 F           9.1864   -0.1839    0.4983 F       1  UNL1       -0.1659
     33 F           8.2308   -0.2712   -1.5003 F       1  UNL1       -0.1659
     34 C           5.6036    0.1137    0.3526 C.ar    1  UNL1       -0.0380
     35 H           3.4255   -1.4084   -0.0211 H       1  UNL1        0.1551
     36 H           1.5368   -1.9257    2.3189 H       1  UNL1        0.0636
     37 H          -0.8127   -2.6109    2.3662 H       1  UNL1        0.0618
     38 H          -2.3400   -2.2152    0.4734 H       1  UNL1        0.0624
     39 H          -0.4772   -1.6629   -3.3912 H       1  UNL1        0.0654
     40 H          -2.1374   -1.2445   -5.1384 H       1  UNL1        0.0831
     41 H          -5.9731    0.4335   -2.3606 H       1  UNL1        0.0677
     42 H          -4.3599    0.3206    2.1485 H       1  UNL1        0.0639
     43 H          -6.0051    1.0887    3.8043 H       1  UNL1        0.0830
     44 H          -8.8621    1.8043    0.7567 H       1  UNL1        0.0830
     45 H          -7.3174    1.0717   -0.9068 H       1  UNL1        0.0639
     46 H           0.8868   -0.3912   -1.6107 H       1  UNL1        0.0643
     47 H           4.2167    2.8926    1.6339 H       1  UNL1        0.0625
     48 H           6.5785    3.5805    1.6486 H       1  UNL1        0.0618
     49 H           8.3189    1.9965    0.8119 H       1  UNL1        0.0623
     50 H           5.3844   -0.8738   -0.0232 H       1  UNL1        0.0631
@<TRIPOS>BOND
     1     1     2    2
     2     2     3   am
     3     3     4    1
     4     4     5   ar
     5     5     6   ar
     6     6     7   ar
     7     7     8   ar
     8     8     9    1
     9     9    10   ar
    10    10    11   ar
    11    11    12   ar
    12    12    13   ar
    13    13    14   ar
    14    14    15   ar
    15    15    16    1
    16    16    17   ar
    17    17    18   ar
    18    18    19   ar
    19    19    20   ar
    20    20    21   ar
    21    15    22   ar
    22    22    23   ar
    23     8    24   ar
    24     2    25    1
    25    25    26   ar
    26    26    27   ar
    27    27    28   ar
    28    28    29   ar
    29    29    30    1
    30    30    31    1
    31    30    32    1
    32    30    33    1
    33    29    34   ar
    34    24     4   ar
    35    34    25   ar
    36    23     9   ar
    37    23    13   ar
    38    21    16   ar
    39     3    35    1
    40     5    36    1
    41     6    37    1
    42     7    38    1
    43    10    39    1
    44    11    40    1
    45    14    41    1
    46    17    42    1
    47    18    43    1
    48    20    44    1
    49    21    45    1
    50    24    46    1
    51    26    47    1
    52    27    48    1
    53    28    49    1
    54    34    50    1
