
     RDKit          3D

 50 54  0  0  0  0  0  0  0  0999 V2000
    2.3140    1.3384    1.2171 O   0  0  0  0  0  0  0  0  0  0  0  0
    3.1888    0.5313    0.7919 C   0  0  0  0  0  0  0  0  0  0  0  0
    2.7287   -0.7213    0.3355 N   0  0  0  0  0  0  0  0  0  0  0  0
    1.3627   -1.1062    0.3323 C   0  0  0  0  0  0  0  0  0  0  0  0
    0.8784   -1.7371    1.4618 C   0  0  0  0  0  0  0  0  0  0  0  0
   -0.4460   -2.1193    1.4793 C   0  0  0  0  0  0  0  0  0  0  0  0
   -1.2993   -1.8972    0.4192 C   0  0  0  0  0  0  0  0  0  0  0  0
   -0.8123   -1.2624   -0.7173 C   0  0  0  0  0  0  0  0  0  0  0  0
   -1.7296   -1.0445   -1.8091 C   0  0  0  0  0  0  0  0  0  0  0  0
   -1.4635   -1.2785   -3.1286 C   0  0  0  0  0  0  0  0  0  0  0  0
   -2.4107   -1.0372   -4.0998 C   0  0  0  0  0  0  0  0  0  0  0  0
   -3.6159   -0.5684   -3.7870 N   0  0  0  0  0  0  0  0  0  0  0  0
   -3.8774   -0.3360   -2.4677 C   0  0  0  0  0  0  0  0  0  0  0  0
   -5.0314    0.1421   -1.8878 C   0  0  0  0  0  0  0  0  0  0  0  0
   -4.7981    0.2012   -0.5133 C   0  0  0  0  0  0  0  0  0  0  0  0
   -5.7317    0.6452    0.5032 C   0  0  0  0  0  0  0  0  0  0  0  0
   -5.3563    0.6464    1.8159 C   0  0  0  0  0  0  0  0  0  0  0  0
   -6.2922    1.0826    2.7507 C   0  0  0  0  0  0  0  0  0  0  0  0
   -7.5210    1.4893    2.3872 N   0  0  0  0  0  0  0  0  0  0  0  0
   -7.8816    1.4838    1.0845 C   0  0  0  0  0  0  0  0  0  0  0  0
   -6.9776    1.0582    0.1415 C   0  0  0  0  0  0  0  0  0  0  0  0
   -3.5392   -0.2381   -0.3578 N   0  0  0  0  0  0  0  0  0  0  0  0
   -2.9727   -0.5627   -1.5034 N   0  0  0  0  0  0  0  0  0  0  0  0
    0.5074   -0.8864   -0.7236 C   0  0  0  0  0  0  0  0  0  0  0  0
    4.5949    0.9384    0.7996 C   0  0  0  0  0  0  0  0  0  0  0  0
    4.9652    2.1825    1.2624 C   0  0  0  0  0  0  0  0  0  0  0  0
    6.2871    2.5859    1.2780 C   0  0  0  0  0  0  0  0  0  0  0  0
    7.2605    1.7250    0.8203 C   0  0  0  0  0  0  0  0  0  0  0  0
    6.9396    0.4704    0.3477 C   0  0  0  0  0  0  0  0  0  0  0  0
    7.9963   -0.4655   -0.1498 C   0  0  0  0  0  0  0  0  0  0  0  0
    7.6492   -1.7742    0.0563 F   0  0  0  0  0  0  0  0  0  0  0  0
    9.1864   -0.1839    0.4983 F   0  0  0  0  0  0  0  0  0  0  0  0
    8.2308   -0.2712   -1.5003 F   0  0  0  0  0  0  0  0  0  0  0  0
    5.6036    0.1137    0.3526 C   0  0  0  0  0  0  0  0  0  0  0  0
    3.4255   -1.4084   -0.0211 H   0  0  0  0  0  0  0  0  0  0  0  0
    1.5368   -1.9257    2.3189 H   0  0  0  0  0  0  0  0  0  0  0  0
   -0.8127   -2.6109    2.3662 H   0  0  0  0  0  0  0  0  0  0  0  0
   -2.3400   -2.2152    0.4734 H   0  0  0  0  0  0  0  0  0  0  0  0
   -0.4772   -1.6629   -3.3912 H   0  0  0  0  0  0  0  0  0  0  0  0
   -2.1374   -1.2445   -5.1384 H   0  0  0  0  0  0  0  0  0  0  0  0
   -5.9731    0.4335   -2.3606 H   0  0  0  0  0  0  0  0  0  0  0  0
   -4.3599    0.3206    2.1485 H   0  0  0  0  0  0  0  0  0  0  0  0
   -6.0051    1.0887    3.8043 H   0  0  0  0  0  0  0  0  0  0  0  0
   -8.8621    1.8043    0.7567 H   0  0  0  0  0  0  0  0  0  0  0  0
   -7.3174    1.0717   -0.9068 H   0  0  0  0  0  0  0  0  0  0  0  0
    0.8868   -0.3912   -1.6107 H   0  0  0  0  0  0  0  0  0  0  0  0
    4.2167    2.8926    1.6339 H   0  0  0  0  0  0  0  0  0  0  0  0
    6.5785    3.5805    1.6486 H   0  0  0  0  0  0  0  0  0  0  0  0
    8.3189    1.9965    0.8119 H   0  0  0  0  0  0  0  0  0  0  0  0
    5.3844   -0.8738   -0.0232 H   0  0  0  0  0  0  0  0  0  0  0  0
  1  2  2  0
  2  3  1  0
  3  4  1  0
  4  5  2  0
  5  6  1  0
  6  7  2  0
  7  8  1  0
  8  9  1  0
  9 10  2  0
 10 11  1  0
 11 12  2  0
 12 13  1  0
 13 14  2  0
 14 15  1  0
 15 16  1  0
 16 17  2  0
 17 18  1  0
 18 19  2  0
 19 20  1  0
 20 21  2  0
 15 22  2  0
 22 23  1  0
  8 24  2  0
  2 25  1  0
 25 26  2  0
 26 27  1  0
 27 28  2  0
 28 29  1  0
 29 30  1  0
 30 31  1  0
 30 32  1  0
 30 33  1  0
 29 34  2  0
 24  4  1  0
 34 25  1  0
 23  9  1  0
 23 13  1  0
 21 16  1  0
  3 35  1  0
  5 36  1  0
  6 37  1  0
  7 38  1  0
 10 39  1  0
 11 40  1  0
 14 41  1  0
 17 42  1  0
 18 43  1  0
 20 44  1  0
 21 45  1  0
 24 46  1  0
 26 47  1  0
 27 48  1  0
 28 49  1  0
 34 50  1  0
M  END
$$$$
