
     RDKit          3D

 54 56  0  0  0  0  0  0  0  0999 V2000
    8.5390   -0.8387    0.6912 C   0  0  0  0  0  0  0  0  0  0  0  0
    7.0744   -0.7837    0.4043 C   0  0  0  0  0  0  0  0  0  0  0  0
    6.5357    0.5607    0.5080 N   0  0  0  0  0  0  0  0  0  0  0  0
    7.0578    1.3941   -0.5676 C   0  0  0  0  0  0  0  0  0  0  0  0
    5.0791    0.5152    0.4217 C   0  0  0  0  0  0  0  0  0  0  0  0
    4.5929    0.1367   -0.9624 C   0  0  0  0  0  0  0  0  0  0  0  0
    3.1024    0.1448   -0.8855 C   0  0  0  0  0  0  0  0  0  0  0  0
    2.4319    1.3335   -1.1064 C   0  0  0  0  0  0  0  0  0  0  0  0
    1.0719    1.4256   -1.0592 C   0  0  0  0  0  0  0  0  0  0  0  0
    0.2875    0.2866   -0.7779 C   0  0  0  0  0  0  0  0  0  0  0  0
   -1.0841    0.4469   -0.7437 O   0  0  0  0  0  0  0  0  0  0  0  0
   -1.9738   -0.5977   -0.5172 C   0  0  0  0  0  0  0  0  0  0  0  0
   -2.5434   -0.3889    0.8717 C   0  0  0  0  0  0  0  0  0  0  0  0
   -3.9833   -0.2457    0.6691 C   0  0  0  0  0  0  0  0  0  0  0  0
   -5.0106   -0.0297    1.5934 C   0  0  0  0  0  0  0  0  0  0  0  0
   -6.3280    0.0846    1.2514 C   0  0  0  0  0  0  0  0  0  0  0  0
   -7.3646    0.2986    2.1503 O   0  0  0  0  0  0  0  0  0  0  0  0
   -7.0572    0.4074    3.5273 C   0  0  0  0  0  0  0  0  0  0  0  0
   -6.6569   -0.0218   -0.0976 C   0  0  0  0  0  0  0  0  0  0  0  0
   -7.9831    0.0886   -0.4900 O   0  0  0  0  0  0  0  0  0  0  0  0
   -8.2774   -0.0270   -1.8842 C   0  0  0  0  0  0  0  0  0  0  0  0
   -5.6550   -0.2347   -1.0205 C   0  0  0  0  0  0  0  0  0  0  0  0
   -4.3045   -0.3487   -0.6423 C   0  0  0  0  0  0  0  0  0  0  0  0
   -3.1249   -0.5688   -1.4340 C   0  0  0  0  0  0  0  0  0  0  0  0
   -3.0665   -0.7116   -2.6730 O   0  0  0  0  0  0  0  0  0  0  0  0
    0.9663   -0.8824   -0.5616 C   0  0  0  0  0  0  0  0  0  0  0  0
    2.3433   -0.9590   -0.6125 C   0  0  0  0  0  0  0  0  0  0  0  0
    9.0668   -1.5244   -0.0079 H   0  0  0  0  0  0  0  0  0  0  0  0
    9.0247    0.1588    0.7655 H   0  0  0  0  0  0  0  0  0  0  0  0
    8.6630   -1.3369    1.6992 H   0  0  0  0  0  0  0  0  0  0  0  0
    6.8984   -1.1982   -0.6139 H   0  0  0  0  0  0  0  0  0  0  0  0
    6.5120   -1.4454    1.1047 H   0  0  0  0  0  0  0  0  0  0  0  0
    6.4457    2.3167   -0.6037 H   0  0  0  0  0  0  0  0  0  0  0  0
    8.1183    1.5952   -0.3401 H   0  0  0  0  0  0  0  0  0  0  0  0
    6.9821    0.7787   -1.4892 H   0  0  0  0  0  0  0  0  0  0  0  0
    4.6201    1.4782    0.6750 H   0  0  0  0  0  0  0  0  0  0  0  0
    4.7284   -0.2568    1.1135 H   0  0  0  0  0  0  0  0  0  0  0  0
    4.8935   -0.9008   -1.2523 H   0  0  0  0  0  0  0  0  0  0  0  0
    4.9286    0.9020   -1.6668 H   0  0  0  0  0  0  0  0  0  0  0  0
    3.0265    2.2445   -1.3289 H   0  0  0  0  0  0  0  0  0  0  0  0
    0.5382    2.3695   -1.2328 H   0  0  0  0  0  0  0  0  0  0  0  0
   -1.5025   -1.6148   -0.5268 H   0  0  0  0  0  0  0  0  0  0  0  0
   -2.1799    0.5643    1.3377 H   0  0  0  0  0  0  0  0  0  0  0  0
   -2.2972   -1.2593    1.5296 H   0  0  0  0  0  0  0  0  0  0  0  0
   -4.7521    0.0541    2.6538 H   0  0  0  0  0  0  0  0  0  0  0  0
   -7.9633    0.6270    4.1290 H   0  0  0  0  0  0  0  0  0  0  0  0
   -6.5618   -0.5194    3.9288 H   0  0  0  0  0  0  0  0  0  0  0  0
   -6.2955    1.2225    3.6551 H   0  0  0  0  0  0  0  0  0  0  0  0
   -7.6536    0.7530   -2.4141 H   0  0  0  0  0  0  0  0  0  0  0  0
   -9.3351    0.1184   -2.1095 H   0  0  0  0  0  0  0  0  0  0  0  0
   -7.8850   -1.0273   -2.2034 H   0  0  0  0  0  0  0  0  0  0  0  0
   -5.9013   -0.3196   -2.0877 H   0  0  0  0  0  0  0  0  0  0  0  0
    0.3881   -1.7967   -0.3335 H   0  0  0  0  0  0  0  0  0  0  0  0
    2.8240   -1.9050   -0.4344 H   0  0  0  0  0  0  0  0  0  0  0  0
  1  2  1  0
  2  3  1  0
  3  4  1  0
  3  5  1  0
  5  6  1  0
  6  7  1  0
  7  8  2  0
  8  9  1  0
  9 10  2  0
 10 11  1  0
 11 12  1  0
 12 13  1  0
 13 14  1  0
 14 15  2  0
 15 16  1  0
 16 17  1  0
 17 18  1  0
 16 19  2  0
 19 20  1  0
 20 21  1  0
 19 22  1  0
 22 23  2  0
 23 24  1  0
 24 25  2  0
 10 26  1  0
 26 27  2  0
 27  7  1  0
 24 12  1  0
 23 14  1  0
  1 28  1  0
  1 29  1  0
  1 30  1  0
  2 31  1  0
  2 32  1  0
  4 33  1  0
  4 34  1  0
  4 35  1  0
  5 36  1  0
  5 37  1  0
  6 38  1  0
  6 39  1  0
  8 40  1  0
  9 41  1  0
 12 42  1  0
 13 43  1  0
 13 44  1  0
 15 45  1  0
 18 46  1  0
 18 47  1  0
 18 48  1  0
 21 49  1  0
 21 50  1  0
 21 51  1  0
 22 52  1  0
 26 53  1  0
 27 54  1  0
M  END
$$$$
