@<TRIPOS>MOLECULE
*****
 54 56 0 0 0
SMALL
GASTEIGER

@<TRIPOS>ATOM
      1 C           8.5390   -0.8387    0.6912 C.3     1  UNL1       -0.0524
      2 C           7.0744   -0.7837    0.4043 C.3     1  UNL1       -0.0042
      3 N           6.5357    0.5607    0.5080 N.3     1  UNL1       -0.3053
      4 C           7.0578    1.3941   -0.5676 C.3     1  UNL1       -0.0128
      5 C           5.0791    0.5152    0.4217 C.3     1  UNL1        0.0026
      6 C           4.5929    0.1367   -0.9624 C.3     1  UNL1       -0.0149
      7 C           3.1024    0.1448   -0.8855 C.ar    1  UNL1       -0.0459
      8 C           2.4319    1.3335   -1.1064 C.ar    1  UNL1       -0.0551
      9 C           1.0719    1.4256   -1.0592 C.ar    1  UNL1       -0.0197
     10 C           0.2875    0.2866   -0.7779 C.ar    1  UNL1        0.1216
     11 O          -1.0841    0.4469   -0.7437 O.3     1  UNL1       -0.4807
     12 C          -1.9738   -0.5977   -0.5172 C.3     1  UNL1        0.1661
     13 C          -2.5434   -0.3889    0.8717 C.3     1  UNL1        0.0177
     14 C          -3.9833   -0.2457    0.6691 C.ar    1  UNL1       -0.0292
     15 C          -5.0106   -0.0297    1.5934 C.ar    1  UNL1       -0.0123
     16 C          -6.3280    0.0846    1.2514 C.ar    1  UNL1        0.1618
     17 O          -7.3646    0.2986    2.1503 O.3     1  UNL1       -0.4914
     18 C          -7.0572    0.4074    3.5273 C.3     1  UNL1        0.0790
     19 C          -6.6569   -0.0218   -0.0976 C.ar    1  UNL1        0.1622
     20 O          -7.9831    0.0886   -0.4900 O.3     1  UNL1       -0.4914
     21 C          -8.2774   -0.0270   -1.8842 C.3     1  UNL1        0.0790
     22 C          -5.6550   -0.2347   -1.0205 C.ar    1  UNL1       -0.0054
     23 C          -4.3045   -0.3487   -0.6423 C.ar    1  UNL1        0.0282
     24 C          -3.1249   -0.5688   -1.4340 C.2     1  UNL1        0.2040
     25 O          -3.0665   -0.7116   -2.6730 O.2     1  UNL1       -0.2881
     26 C           0.9663   -0.8824   -0.5616 C.ar    1  UNL1       -0.0197
     27 C           2.3433   -0.9590   -0.6125 C.ar    1  UNL1       -0.0551
     28 H           9.0668   -1.5244   -0.0079 H       1  UNL1        0.0242
     29 H           9.0247    0.1588    0.7655 H       1  UNL1        0.0242
     30 H           8.6630   -1.3369    1.6992 H       1  UNL1        0.0242
     31 H           6.8984   -1.1982   -0.6139 H       1  UNL1        0.0424
     32 H           6.5120   -1.4454    1.1047 H       1  UNL1        0.0424
     33 H           6.4457    2.3167   -0.6037 H       1  UNL1        0.0391
     34 H           8.1183    1.5952   -0.3401 H       1  UNL1        0.0391
     35 H           6.9821    0.7787   -1.4892 H       1  UNL1        0.0391
     36 H           4.6201    1.4782    0.6750 H       1  UNL1        0.0430
     37 H           4.7284   -0.2568    1.1135 H       1  UNL1        0.0430
     38 H           4.8935   -0.9008   -1.2523 H       1  UNL1        0.0326
     39 H           4.9286    0.9020   -1.6668 H       1  UNL1        0.0326
     40 H           3.0265    2.2445   -1.3289 H       1  UNL1        0.0621
     41 H           0.5382    2.3695   -1.2328 H       1  UNL1        0.0654
     42 H          -1.5025   -1.6148   -0.5268 H       1  UNL1        0.0821
     43 H          -2.1799    0.5643    1.3377 H       1  UNL1        0.0354
     44 H          -2.2972   -1.2593    1.5296 H       1  UNL1        0.0354
     45 H          -4.7521    0.0541    2.6538 H       1  UNL1        0.0658
     46 H          -7.9633    0.6270    4.1290 H       1  UNL1        0.0660
     47 H          -6.5618   -0.5194    3.9288 H       1  UNL1        0.0660
     48 H          -6.2955    1.2225    3.6551 H       1  UNL1        0.0660
     49 H          -7.6536    0.7530   -2.4141 H       1  UNL1        0.0660
     50 H          -9.3351    0.1184   -2.1095 H       1  UNL1        0.0660
     51 H          -7.8850   -1.0273   -2.2034 H       1  UNL1        0.0660
     52 H          -5.9013   -0.3196   -2.0877 H       1  UNL1        0.0662
     53 H           0.3881   -1.7967   -0.3335 H       1  UNL1        0.0654
     54 H           2.8240   -1.9050   -0.4344 H       1  UNL1        0.0621
@<TRIPOS>BOND
     1     1     2    1
     2     2     3    1
     3     3     4    1
     4     3     5    1
     5     5     6    1
     6     6     7    1
     7     7     8   ar
     8     8     9   ar
     9     9    10   ar
    10    10    11    1
    11    11    12    1
    12    12    13    1
    13    13    14    1
    14    14    15   ar
    15    15    16   ar
    16    16    17    1
    17    17    18    1
    18    16    19   ar
    19    19    20    1
    20    20    21    1
    21    19    22   ar
    22    22    23   ar
    23    23    24    1
    24    24    25    2
    25    10    26   ar
    26    26    27   ar
    27    27     7   ar
    28    24    12    1
    29    23    14   ar
    30     1    28    1
    31     1    29    1
    32     1    30    1
    33     2    31    1
    34     2    32    1
    35     4    33    1
    36     4    34    1
    37     4    35    1
    38     5    36    1
    39     5    37    1
    40     6    38    1
    41     6    39    1
    42     8    40    1
    43     9    41    1
    44    12    42    1
    45    13    43    1
    46    13    44    1
    47    15    45    1
    48    18    46    1
    49    18    47    1
    50    18    48    1
    51    21    49    1
    52    21    50    1
    53    21    51    1
    54    22    52    1
    55    26    53    1
    56    27    54    1
