@<TRIPOS>MOLECULE
*****
 54 57 0 0 0
SMALL
GASTEIGER

@<TRIPOS>ATOM
      1 C          -2.5667   -0.7553   -2.5864 C.3     1  UNL1       -0.0436
      2 C          -2.7910    0.1616   -1.4133 C.3     1  UNL1        0.0543
      3 C          -4.2387    0.2793   -1.0860 C.3     1  UNL1        0.0758
      4 C          -4.9167   -1.0222   -0.7426 C.3     1  UNL1       -0.0369
      5 O          -4.5389    1.1884   -0.1085 O.3     1  UNL1       -0.3599
      6 C          -3.7679    1.1552    1.0169 C.3     1  UNL1        0.1402
      7 C          -3.2074    2.5508    1.2361 C.3     1  UNL1       -0.0274
      8 C          -4.6415    0.8447    2.2128 C.3     1  UNL1       -0.0274
      9 C          -2.6760    0.1743    1.0009 C.2     1  UNL1        0.2516
     10 O          -2.2819   -0.2834    2.1187 O.2     1  UNL1       -0.2721
     11 N          -2.0875   -0.2420   -0.2202 N.am    1  UNL1       -0.2626
     12 C          -0.8911   -0.9899   -0.1816 C.ar    1  UNL1        0.0547
     13 C           0.3317   -0.3095   -0.2120 C.ar    1  UNL1       -0.0298
     14 C           1.5296   -0.9846   -0.1760 C.ar    1  UNL1        0.0023
     15 C           2.8000   -0.2378   -0.2093 C.ar    1  UNL1        0.0740
     16 C           3.1021    0.7994   -1.0341 C.ar    1  UNL1       -0.0219
     17 C           4.3975    1.2459   -0.7691 C.ar    1  UNL1        0.0855
     18 C           5.0999    2.3558   -1.4499 C.3     1  UNL1        0.4195
     19 F           4.2419    2.8926   -2.4167 F       1  UNL1       -0.1658
     20 F           5.3686    3.4152   -0.5832 F       1  UNL1       -0.1658
     21 F           6.2390    1.9621   -2.1039 F       1  UNL1       -0.1658
     22 C           4.8539    0.4327    0.2466 C.ar    1  UNL1        0.1171
     23 C           6.0496    0.3739    0.9387 C.ar    1  UNL1        0.1442
     24 N           7.0678    1.2887    0.6109 N.pl3   1  UNL1       -0.3414
     25 N           6.2145   -0.5475    1.9021 N.ar    1  UNL1       -0.2173
     26 C           5.2379   -1.4108    2.2028 C.ar    1  UNL1        0.1388
     27 N           4.0743   -1.3416    1.5179 N.ar    1  UNL1       -0.1543
     28 N           3.8678   -0.4536    0.5641 N.ar    1  UNL1       -0.2269
     29 C           1.5901   -2.3586   -0.1085 C.ar    1  UNL1       -0.0512
     30 C           0.3901   -3.0314   -0.0784 C.ar    1  UNL1       -0.0419
     31 C          -0.8277   -2.3632   -0.1141 C.ar    1  UNL1        0.0732
     32 C          -2.0708   -3.0973   -0.0796 C.1     1  UNL1        0.1010
     33 N          -3.0767   -3.6700   -0.0587 N.1     1  UNL1       -0.1908
     34 H          -1.4538   -0.8784   -2.6911 H       1  UNL1        0.0248
     35 H          -2.9090   -0.2637   -3.4988 H       1  UNL1        0.0248
     36 H          -2.9822   -1.7528   -2.4754 H       1  UNL1        0.0248
     37 H          -2.4401    1.1866   -1.6765 H       1  UNL1        0.0527
     38 H          -4.7513    0.6442   -2.0273 H       1  UNL1        0.0612
     39 H          -6.0206   -0.8089   -0.6960 H       1  UNL1        0.0255
     40 H          -4.7699   -1.8056   -1.5121 H       1  UNL1        0.0255
     41 H          -4.6551   -1.3870    0.2657 H       1  UNL1        0.0255
     42 H          -4.0608    3.1668    1.6437 H       1  UNL1        0.0262
     43 H          -2.3460    2.5604    1.9129 H       1  UNL1        0.0262
     44 H          -2.9964    2.9771    0.2375 H       1  UNL1        0.0262
     45 H          -5.7065    1.0841    2.0251 H       1  UNL1        0.0262
     46 H          -4.5964   -0.2508    2.3759 H       1  UNL1        0.0262
     47 H          -4.2411    1.3320    3.1255 H       1  UNL1        0.0262
     48 H           0.2985    0.7899   -0.2659 H       1  UNL1        0.0643
     49 H           2.4713    1.2433   -1.7917 H       1  UNL1        0.0645
     50 H           7.7893    1.0117   -0.1138 H       1  UNL1        0.1438
     51 H           7.1727    2.2197    1.0236 H       1  UNL1        0.1438
     52 H           5.3717   -2.1484    2.9751 H       1  UNL1        0.1066
     53 H           2.5449   -2.8307   -0.0831 H       1  UNL1        0.0624
     54 H           0.4050   -4.1116   -0.0255 H       1  UNL1        0.0631
@<TRIPOS>BOND
     1     1     2    1
     2     2     3    1
     3     3     4    1
     4     3     5    1
     5     5     6    1
     6     6     7    1
     7     6     8    1
     8     6     9    1
     9     9    10    2
    10     9    11   am
    11    11    12    1
    12    12    13   ar
    13    13    14   ar
    14    14    15    1
    15    15    16   ar
    16    16    17   ar
    17    17    18    1
    18    18    19    1
    19    18    20    1
    20    18    21    1
    21    17    22   ar
    22    22    23   ar
    23    23    24    1
    24    23    25   ar
    25    25    26   ar
    26    26    27   ar
    27    27    28   ar
    28    14    29   ar
    29    29    30   ar
    30    30    31   ar
    31    31    32    1
    32    32    33    3
    33    11     2    1
    34    31    12   ar
    35    28    15   ar
    36    28    22   ar
    37     1    34    1
    38     1    35    1
    39     1    36    1
    40     2    37    1
    41     3    38    1
    42     4    39    1
    43     4    40    1
    44     4    41    1
    45     7    42    1
    46     7    43    1
    47     7    44    1
    48     8    45    1
    49     8    46    1
    50     8    47    1
    51    13    48    1
    52    16    49    1
    53    24    50    1
    54    24    51    1
    55    26    52    1
    56    29    53    1
    57    30    54    1
