
     RDKit          3D

 54 57  0  0  0  0  0  0  0  0999 V2000
   -2.5667   -0.7553   -2.5864 C   0  0  0  0  0  0  0  0  0  0  0  0
   -2.7910    0.1616   -1.4133 C   0  0  1  0  0  0  0  0  0  0  0  0
   -4.2387    0.2793   -1.0860 C   0  0  1  0  0  0  0  0  0  0  0  0
   -4.9167   -1.0222   -0.7426 C   0  0  0  0  0  0  0  0  0  0  0  0
   -4.5389    1.1884   -0.1085 O   0  0  0  0  0  0  0  0  0  0  0  0
   -3.7679    1.1552    1.0169 C   0  0  0  0  0  0  0  0  0  0  0  0
   -3.2074    2.5508    1.2361 C   0  0  0  0  0  0  0  0  0  0  0  0
   -4.6415    0.8447    2.2128 C   0  0  0  0  0  0  0  0  0  0  0  0
   -2.6760    0.1743    1.0009 C   0  0  0  0  0  0  0  0  0  0  0  0
   -2.2819   -0.2834    2.1187 O   0  0  0  0  0  0  0  0  0  0  0  0
   -2.0875   -0.2420   -0.2202 N   0  0  0  0  0  0  0  0  0  0  0  0
   -0.8911   -0.9899   -0.1816 C   0  0  0  0  0  0  0  0  0  0  0  0
    0.3317   -0.3095   -0.2120 C   0  0  0  0  0  0  0  0  0  0  0  0
    1.5296   -0.9846   -0.1760 C   0  0  0  0  0  0  0  0  0  0  0  0
    2.8000   -0.2378   -0.2093 C   0  0  0  0  0  0  0  0  0  0  0  0
    3.1021    0.7994   -1.0341 C   0  0  0  0  0  0  0  0  0  0  0  0
    4.3975    1.2459   -0.7691 C   0  0  0  0  0  0  0  0  0  0  0  0
    5.0999    2.3558   -1.4499 C   0  0  0  0  0  0  0  0  0  0  0  0
    4.2419    2.8926   -2.4167 F   0  0  0  0  0  0  0  0  0  0  0  0
    5.3686    3.4152   -0.5832 F   0  0  0  0  0  0  0  0  0  0  0  0
    6.2390    1.9621   -2.1039 F   0  0  0  0  0  0  0  0  0  0  0  0
    4.8539    0.4327    0.2466 C   0  0  0  0  0  0  0  0  0  0  0  0
    6.0496    0.3739    0.9387 C   0  0  0  0  0  0  0  0  0  0  0  0
    7.0678    1.2887    0.6109 N   0  0  0  0  0  0  0  0  0  0  0  0
    6.2145   -0.5475    1.9021 N   0  0  0  0  0  0  0  0  0  0  0  0
    5.2379   -1.4108    2.2028 C   0  0  0  0  0  0  0  0  0  0  0  0
    4.0743   -1.3416    1.5179 N   0  0  0  0  0  0  0  0  0  0  0  0
    3.8678   -0.4536    0.5641 N   0  0  0  0  0  0  0  0  0  0  0  0
    1.5901   -2.3586   -0.1085 C   0  0  0  0  0  0  0  0  0  0  0  0
    0.3901   -3.0314   -0.0784 C   0  0  0  0  0  0  0  0  0  0  0  0
   -0.8277   -2.3632   -0.1141 C   0  0  0  0  0  0  0  0  0  0  0  0
   -2.0708   -3.0973   -0.0796 C   0  0  0  0  0  0  0  0  0  0  0  0
   -3.0767   -3.6700   -0.0587 N   0  0  0  0  0  0  0  0  0  0  0  0
   -1.4538   -0.8784   -2.6911 H   0  0  0  0  0  0  0  0  0  0  0  0
   -2.9090   -0.2637   -3.4988 H   0  0  0  0  0  0  0  0  0  0  0  0
   -2.9822   -1.7528   -2.4754 H   0  0  0  0  0  0  0  0  0  0  0  0
   -2.4401    1.1866   -1.6765 H   0  0  0  0  0  0  0  0  0  0  0  0
   -4.7513    0.6442   -2.0273 H   0  0  0  0  0  0  0  0  0  0  0  0
   -6.0206   -0.8089   -0.6960 H   0  0  0  0  0  0  0  0  0  0  0  0
   -4.7699   -1.8056   -1.5121 H   0  0  0  0  0  0  0  0  0  0  0  0
   -4.6551   -1.3870    0.2657 H   0  0  0  0  0  0  0  0  0  0  0  0
   -4.0608    3.1668    1.6437 H   0  0  0  0  0  0  0  0  0  0  0  0
   -2.3460    2.5604    1.9129 H   0  0  0  0  0  0  0  0  0  0  0  0
   -2.9964    2.9771    0.2375 H   0  0  0  0  0  0  0  0  0  0  0  0
   -5.7065    1.0841    2.0251 H   0  0  0  0  0  0  0  0  0  0  0  0
   -4.5964   -0.2508    2.3759 H   0  0  0  0  0  0  0  0  0  0  0  0
   -4.2411    1.3320    3.1255 H   0  0  0  0  0  0  0  0  0  0  0  0
    0.2985    0.7899   -0.2659 H   0  0  0  0  0  0  0  0  0  0  0  0
    2.4713    1.2433   -1.7917 H   0  0  0  0  0  0  0  0  0  0  0  0
    7.7893    1.0117   -0.1138 H   0  0  0  0  0  0  0  0  0  0  0  0
    7.1727    2.2197    1.0236 H   0  0  0  0  0  0  0  0  0  0  0  0
    5.3717   -2.1484    2.9751 H   0  0  0  0  0  0  0  0  0  0  0  0
    2.5449   -2.8307   -0.0831 H   0  0  0  0  0  0  0  0  0  0  0  0
    0.4050   -4.1116   -0.0255 H   0  0  0  0  0  0  0  0  0  0  0  0
  1  2  1  0
  2  3  1  0
  3  4  1  0
  3  5  1  0
  5  6  1  0
  6  7  1  0
  6  8  1  0
  6  9  1  0
  9 10  2  0
  9 11  1  0
 11 12  1  0
 12 13  2  0
 13 14  1  0
 14 15  1  0
 15 16  2  0
 16 17  1  0
 17 18  1  0
 18 19  1  0
 18 20  1  0
 18 21  1  0
 17 22  2  0
 22 23  1  0
 23 24  1  0
 23 25  2  0
 25 26  1  0
 26 27  2  0
 27 28  1  0
 14 29  2  0
 29 30  1  0
 30 31  2  0
 31 32  1  0
 32 33  3  0
 11  2  1  0
 31 12  1  0
 28 15  1  0
 28 22  1  0
  1 34  1  0
  1 35  1  0
  1 36  1  0
  2 37  1  6
  3 38  1  6
  4 39  1  0
  4 40  1  0
  4 41  1  0
  7 42  1  0
  7 43  1  0
  7 44  1  0
  8 45  1  0
  8 46  1  0
  8 47  1  0
 13 48  1  0
 16 49  1  0
 24 50  1  0
 24 51  1  0
 26 52  1  0
 29 53  1  0
 30 54  1  0
M  END
$$$$
