
     RDKit          3D

 47 49  0  0  0  0  0  0  0  0999 V2000
    0.2944   -0.1122    2.2574 C   0  0  0  0  0  0  0  0  0  0  0  0
    0.3759    0.1125    0.7811 C   0  0  0  0  0  0  0  0  0  0  0  0
    1.4796   -0.4293    0.0928 C   0  0  0  0  0  0  0  0  0  0  0  0
    1.6672   -0.2775   -1.2558 C   0  0  0  0  0  0  0  0  0  0  0  0
    2.6984   -0.7687   -1.9860 O   0  0  0  0  0  0  0  0  0  0  0  0
    3.8169   -1.4947   -1.7286 C   0  0  0  0  0  0  0  0  0  0  0  0
    4.7558   -0.8170   -0.8241 C   0  0  0  0  0  0  0  0  0  0  0  0
    4.9596   -1.2200    0.4607 C   0  0  0  0  0  0  0  0  0  0  0  0
    5.8869   -0.5604    1.2715 C   0  0  0  0  0  0  0  0  0  0  0  0
    6.6191    0.5032    0.8156 C   0  0  0  0  0  0  0  0  0  0  0  0
    7.5017    1.1022    1.6445 F   0  0  0  0  0  0  0  0  0  0  0  0
    6.4156    0.9147   -0.4855 C   0  0  0  0  0  0  0  0  0  0  0  0
    5.4968    0.2657   -1.2980 C   0  0  0  0  0  0  0  0  0  0  0  0
    5.2835    0.6523   -2.5715 F   0  0  0  0  0  0  0  0  0  0  0  0
    0.6694    0.4651   -1.9128 C   0  0  0  0  0  0  0  0  0  0  0  0
    0.8640    0.7201   -3.8074 Br  0  0  0  0  0  0  0  0  0  0  0  0
   -0.3776    0.9697   -1.2131 C   0  0  0  0  0  0  0  0  0  0  0  0
   -1.2573    1.6332   -1.8199 O   0  0  0  0  0  0  0  0  0  0  0  0
   -0.5602    0.8148    0.1329 N   0  0  0  0  0  0  0  0  0  0  0  0
   -1.6981    1.3777    0.7978 C   0  0  0  0  0  0  0  0  0  0  0  0
   -2.8888    0.5356    0.9012 C   0  0  0  0  0  0  0  0  0  0  0  0
   -3.1619   -0.3293    1.9418 C   0  0  0  0  0  0  0  0  0  0  0  0
   -4.3167   -1.0963    1.9741 C   0  0  0  0  0  0  0  0  0  0  0  0
   -5.2355   -1.0059    0.9420 C   0  0  0  0  0  0  0  0  0  0  0  0
   -5.0032   -0.1583   -0.1106 C   0  0  0  0  0  0  0  0  0  0  0  0
   -5.9989   -0.0707   -1.2128 C   0  0  0  0  0  0  0  0  0  0  0  0
   -6.9944    0.9494   -0.9539 N   0  0  0  0  0  0  0  0  0  0  0  0
   -3.8379    0.5849   -0.0968 C   0  0  0  0  0  0  0  0  0  0  0  0
   -0.0833    0.7545    2.8135 H   0  0  0  0  0  0  0  0  0  0  0  0
    1.3612   -0.2375    2.6172 H   0  0  0  0  0  0  0  0  0  0  0  0
   -0.2022   -1.0720    2.4970 H   0  0  0  0  0  0  0  0  0  0  0  0
    2.1955   -0.9934    0.6582 H   0  0  0  0  0  0  0  0  0  0  0  0
    3.5464   -2.5068   -1.3052 H   0  0  0  0  0  0  0  0  0  0  0  0
    4.4076   -1.7469   -2.6477 H   0  0  0  0  0  0  0  0  0  0  0  0
    4.3968   -2.0629    0.8627 H   0  0  0  0  0  0  0  0  0  0  0  0
    6.0209   -0.9092    2.2857 H   0  0  0  0  0  0  0  0  0  0  0  0
    6.9936    1.7554   -0.8484 H   0  0  0  0  0  0  0  0  0  0  0  0
   -2.0327    2.3181    0.2519 H   0  0  0  0  0  0  0  0  0  0  0  0
   -1.4868    1.7675    1.8260 H   0  0  0  0  0  0  0  0  0  0  0  0
   -2.4695   -0.3983    2.7436 H   0  0  0  0  0  0  0  0  0  0  0  0
   -4.5267   -1.7833    2.8068 H   0  0  0  0  0  0  0  0  0  0  0  0
   -6.1500   -1.5995    0.9461 H   0  0  0  0  0  0  0  0  0  0  0  0
   -5.4524    0.2733   -2.1389 H   0  0  0  0  0  0  0  0  0  0  0  0
   -6.4550   -1.0290   -1.4677 H   0  0  0  0  0  0  0  0  0  0  0  0
   -6.6934    1.8833   -1.3201 H   0  0  0  0  0  0  0  0  0  0  0  0
   -7.1052    1.0812    0.0898 H   0  0  0  0  0  0  0  0  0  0  0  0
   -3.7192    1.2449   -0.9510 H   0  0  0  0  0  0  0  0  0  0  0  0
  1  2  1  0
  2  3  2  0
  3  4  1  0
  4  5  1  0
  5  6  1  0
  6  7  1  0
  7  8  2  0
  8  9  1  0
  9 10  2  0
 10 11  1  0
 10 12  1  0
 12 13  2  0
 13 14  1  0
  4 15  2  0
 15 16  1  0
 15 17  1  0
 17 18  2  0
 17 19  1  0
 19 20  1  0
 20 21  1  0
 21 22  2  0
 22 23  1  0
 23 24  2  0
 24 25  1  0
 25 26  1  0
 26 27  1  0
 25 28  2  0
 19  2  1  0
 28 21  1  0
 13  7  1  0
  1 29  1  0
  1 30  1  0
  1 31  1  0
  3 32  1  0
  6 33  1  0
  6 34  1  0
  8 35  1  0
  9 36  1  0
 12 37  1  0
 20 38  1  0
 20 39  1  0
 22 40  1  0
 23 41  1  0
 24 42  1  0
 26 43  1  0
 26 44  1  0
 27 45  1  0
 27 46  1  0
 28 47  1  0
M  END
$$$$
