@<TRIPOS>MOLECULE
*****
 47 49 0 0 0
SMALL
GASTEIGER

@<TRIPOS>ATOM
      1 C           0.2944   -0.1122    2.2574 C.3     1  UNL1       -0.0240
      2 C           0.3759    0.1125    0.7811 C.ar    1  UNL1        0.0228
      3 C           1.4796   -0.4293    0.0928 C.ar    1  UNL1        0.0006
      4 C           1.6672   -0.2775   -1.2558 C.ar    1  UNL1        0.1418
      5 O           2.6984   -0.7687   -1.9860 O.3     1  UNL1       -0.4859
      6 C           3.8169   -1.4947   -1.7286 C.3     1  UNL1        0.1173
      7 C           4.7558   -0.8170   -0.8241 C.ar    1  UNL1        0.0250
      8 C           4.9596   -1.2200    0.4607 C.ar    1  UNL1       -0.0499
      9 C           5.8869   -0.5604    1.2715 C.ar    1  UNL1       -0.0259
     10 C           6.6191    0.5032    0.8156 C.ar    1  UNL1        0.1261
     11 F           7.5017    1.1022    1.6445 F       1  UNL1       -0.2054
     12 C           6.4156    0.9147   -0.4855 C.ar    1  UNL1        0.0092
     13 C           5.4968    0.2657   -1.2980 C.ar    1  UNL1        0.1325
     14 F           5.2835    0.6523   -2.5715 F       1  UNL1       -0.2050
     15 C           0.6694    0.4651   -1.9128 C.ar    1  UNL1        0.1238
     16 BR          0.8640    0.7201   -3.8074 Br      1  UNL1       -0.0409
     17 C          -0.3776    0.9697   -1.2131 C.ar    1  UNL1        0.2694
     18 O          -1.2573    1.6332   -1.8199 O.2     1  UNL1       -0.2663
     19 N          -0.5602    0.8148    0.1329 N.ar    1  UNL1       -0.3072
     20 C          -1.6981    1.3777    0.7978 C.3     1  UNL1        0.0514
     21 C          -2.8888    0.5356    0.9012 C.ar    1  UNL1       -0.0274
     22 C          -3.1619   -0.3293    1.9418 C.ar    1  UNL1       -0.0569
     23 C          -4.3167   -1.0963    1.9741 C.ar    1  UNL1       -0.0611
     24 C          -5.2355   -1.0059    0.9420 C.ar    1  UNL1       -0.0573
     25 C          -5.0032   -0.1583   -0.1106 C.ar    1  UNL1       -0.0335
     26 C          -5.9989   -0.0707   -1.2128 C.3     1  UNL1        0.0186
     27 N          -6.9944    0.9494   -0.9539 N.3     1  UNL1       -0.3261
     28 C          -3.8379    0.5849   -0.0968 C.ar    1  UNL1       -0.0525
     29 H          -0.0833    0.7545    2.8135 H       1  UNL1        0.0292
     30 H           1.3612   -0.2375    2.6172 H       1  UNL1        0.0292
     31 H          -0.2022   -1.0720    2.4970 H       1  UNL1        0.0292
     32 H           2.1955   -0.9934    0.6582 H       1  UNL1        0.0672
     33 H           3.5464   -2.5068   -1.3052 H       1  UNL1        0.0749
     34 H           4.4076   -1.7469   -2.6477 H       1  UNL1        0.0749
     35 H           4.3968   -2.0629    0.8627 H       1  UNL1        0.0623
     36 H           6.0209   -0.9092    2.2857 H       1  UNL1        0.0646
     37 H           6.9936    1.7554   -0.8484 H       1  UNL1        0.0675
     38 H          -2.0327    2.3181    0.2519 H       1  UNL1        0.0542
     39 H          -1.4868    1.7675    1.8260 H       1  UNL1        0.0542
     40 H          -2.4695   -0.3983    2.7436 H       1  UNL1        0.0621
     41 H          -4.5267   -1.7833    2.8068 H       1  UNL1        0.0618
     42 H          -6.1500   -1.5995    0.9461 H       1  UNL1        0.0621
     43 H          -5.4524    0.2733   -2.1389 H       1  UNL1        0.0471
     44 H          -6.4550   -1.0290   -1.4677 H       1  UNL1        0.0471
     45 H          -6.6934    1.8833   -1.3201 H       1  UNL1        0.1185
     46 H          -7.1052    1.0812    0.0898 H       1  UNL1        0.1185
     47 H          -3.7192    1.2449   -0.9510 H       1  UNL1        0.0624
@<TRIPOS>BOND
     1     1     2    1
     2     2     3   ar
     3     3     4   ar
     4     4     5    1
     5     5     6    1
     6     6     7    1
     7     7     8   ar
     8     8     9   ar
     9     9    10   ar
    10    10    11    1
    11    10    12   ar
    12    12    13   ar
    13    13    14    1
    14     4    15   ar
    15    15    16    1
    16    15    17   ar
    17    17    18    2
    18    17    19   ar
    19    19    20    1
    20    20    21    1
    21    21    22   ar
    22    22    23   ar
    23    23    24   ar
    24    24    25   ar
    25    25    26    1
    26    26    27    1
    27    25    28   ar
    28    19     2   ar
    29    28    21   ar
    30    13     7   ar
    31     1    29    1
    32     1    30    1
    33     1    31    1
    34     3    32    1
    35     6    33    1
    36     6    34    1
    37     8    35    1
    38     9    36    1
    39    12    37    1
    40    20    38    1
    41    20    39    1
    42    22    40    1
    43    23    41    1
    44    24    42    1
    45    26    43    1
    46    26    44    1
    47    27    45    1
    48    27    46    1
    49    28    47    1
