@<TRIPOS>MOLECULE
*****
 180 185 0 0 0
SMALL
GASTEIGER

@<TRIPOS>ATOM
      1 C           5.1609   -1.1261   -1.2657 C.3     1  UNL1       -0.0367
      2 C           3.6641   -1.0499   -1.3694 C.3     1  UNL1        0.0792
      3 O           3.1313   -2.1596   -2.0567 O.3     1  UNL1       -0.3897
      4 C           2.9520   -0.7657   -0.1131 C.3     1  UNL1        0.1251
      5 N           3.4961    0.3559    0.5793 N.am    1  UNL1       -0.3016
      6 C           2.8953    1.4421    1.2866 C.2     1  UNL1        0.2190
      7 O           1.6640    1.3474    1.2767 O.2     1  UNL1       -0.2754
      8 C           3.8160    2.4021    1.8643 C.3     1  UNL1        0.0603
      9 C           4.9690    1.7636    2.6296 C.3     1  UNL1       -0.0516
     10 C           4.1750    3.6140    1.0926 C.3     1  UNL1        0.0840
     11 O           5.1640    4.2910    1.9454 O.3     1  UNL1       -0.3892
     12 C           3.1034    4.6487    0.9259 C.3     1  UNL1        0.0470
     13 C           3.8415    5.9056    0.3955 C.3     1  UNL1       -0.0442
     14 N           1.9598    4.3804    0.1488 N.am    1  UNL1       -0.3086
     15 C           0.6986    4.9162    0.5845 C.2     1  UNL1        0.2366
     16 O           0.8807    5.5527    1.6810 O.2     1  UNL1       -0.2737
     17 C          -0.6858    4.9985    0.2298 C.3     1  UNL1        0.1317
     18 N          -1.0630    4.6101   -1.1179 N.am    1  UNL1       -0.2963
     19 C          -0.9598    3.2063   -1.2888 C.2     1  UNL1        0.2635
     20 O          -0.5834    2.6113   -0.2614 O.2     1  UNL1       -0.2685
     21 C          -1.1829    2.2622   -2.3692 C.ar    1  UNL1        0.1336
     22 C          -1.3485    0.9071   -2.0763 C.ar    1  UNL1        0.0195
     23 C          -1.3388    0.3288   -0.7361 C.3     1  UNL1       -0.0343
     24 C          -1.5246    0.1032   -3.2225 C.ar    1  UNL1        0.1234
     25 N          -1.7136   -1.2898   -2.8755 N.pl3   1  UNL1       -0.3428
     26 N          -1.5342    0.5634   -4.4900 N.ar    1  UNL1       -0.2158
     27 C          -1.3649    1.8984   -4.7039 C.ar    1  UNL1        0.1492
     28 N          -1.2002    2.6843   -3.6414 N.ar    1  UNL1       -0.2254
     29 C          -1.3814    2.2025   -6.1621 C.3     1  UNL1        0.0764
     30 C          -2.7772    2.2269   -6.7029 C.3     1  UNL1        0.0462
     31 C          -3.6169    3.2616   -6.0307 C.2     1  UNL1        0.2124
     32 N          -4.9699    3.4636   -6.4001 N.am    1  UNL1       -0.3293
     33 O          -3.1924    4.0039   -5.1177 O.2     1  UNL1       -0.2760
     34 N          -0.6237    1.1723   -6.8248 N.3     1  UNL1       -0.3045
     35 C          -0.5100    1.2575   -8.2373 C.3     1  UNL1        0.0203
     36 C           0.3120    0.0830   -8.7967 C.3     1  UNL1        0.0947
     37 N          -0.3341   -1.1677   -8.4477 N.3     1  UNL1       -0.3189
     38 C           1.7116    0.1273   -8.2878 C.2     1  UNL1        0.2286
     39 N           2.1960   -0.9564   -7.4935 N.am    1  UNL1       -0.3280
     40 O           2.8870    0.5405   -8.0708 O.2     1  UNL1       -0.2743
     41 C          -1.6678    4.7523    1.2880 C.3     1  UNL1        0.1296
     42 O          -2.2542    3.4861    1.3271 O.3     1  UNL1       -0.3369
     43 C          -3.5249    3.6153    1.8780 C.3     1  UNL1        0.1891
     44 O          -4.4208    3.8269    0.7958 O.3     1  UNL1       -0.3405
     45 C          -4.4754    2.7661   -0.0295 C.3     1  UNL1        0.1130
     46 C          -5.3374    3.1053   -1.2764 C.3     1  UNL1        0.0730
     47 O          -6.6397    3.4453   -0.8847 O.3     1  UNL1       -0.3924
     48 C          -5.0884    1.5731    0.6702 C.3     1  UNL1        0.1119
     49 O          -6.3843    1.4184    0.2020 O.3     1  UNL1       -0.3865
     50 C          -5.1893    1.8141    2.1652 C.3     1  UNL1        0.1144
     51 O          -5.5370    0.6080    2.7274 O.3     1  UNL1       -0.3864
     52 C          -3.9499    2.4471    2.7031 C.3     1  UNL1        0.1406
     53 O          -4.1235    2.7537    4.0477 O.3     1  UNL1       -0.3377
     54 C          -3.1024    2.3263    4.8685 C.3     1  UNL1        0.1896
     55 O          -2.4849    3.3525    5.5485 O.3     1  UNL1       -0.3404
     56 C          -3.1017    3.7756    6.6933 C.3     1  UNL1        0.1141
     57 C          -2.0730    3.8010    7.8145 C.3     1  UNL1        0.0731
     58 O          -1.4875    2.5776    8.0640 O.3     1  UNL1       -0.3924
     59 C          -4.3018    3.0044    7.1277 C.3     1  UNL1        0.1230
     60 O          -4.5601    3.3192    8.4711 O.3     1  UNL1       -0.3854
     61 C          -4.0615    1.5428    7.0244 C.3     1  UNL1        0.1632
     62 O          -5.2407    0.7786    7.2616 O.3     1  UNL1       -0.4417
     63 C          -5.2991   -0.0767    8.3688 C.2     1  UNL1        0.3981
     64 N          -6.4908   -0.7934    8.5456 N.am    1  UNL1       -0.2950
     65 O          -4.3193   -0.1637    9.1271 O.2     1  UNL1       -0.2267
     66 C          -3.3809    1.1515    5.7633 C.3     1  UNL1        0.1452
     67 O          -3.9773    0.0742    5.1705 O.3     1  UNL1       -0.3830
     68 C          -0.9330    4.7424    2.6679 C.ar    1  UNL1        0.0669
     69 C          -0.1625    3.7532    3.3040 C.ar    1  UNL1        0.0510
     70 N           0.2480    4.2225    4.4836 N.ar    1  UNL1       -0.2439
     71 C          -0.2096    5.4501    4.6471 C.ar    1  UNL1        0.0936
     72 N          -0.9179    5.7759    3.5694 N.ar    1  UNL1       -0.3461
     73 C           2.7255   -1.9265    0.7916 C.2     1  UNL1        0.2359
     74 O           3.0952   -1.0440    1.6518 O.2     1  UNL1       -0.2737
     75 N           2.3213   -3.2787    0.7873 N.am    1  UNL1       -0.3133
     76 C           2.3058   -3.7852    2.1726 C.3     1  UNL1        0.0175
     77 C           1.2412   -3.0067    2.9624 C.3     1  UNL1        0.0116
     78 C          -0.1007   -3.3083    2.2110 C.ar    1  UNL1        0.0805
     79 N          -0.1997   -3.9972    1.2679 N.ar    1  UNL1       -0.2419
     80 C          -1.2831   -4.2947    0.5782 C.ar    1  UNL1        0.1033
     81 C          -2.4131   -3.7606    0.9814 C.ar    1  UNL1        0.0054
     82 S          -1.8202   -2.7555    2.4785 S.2     1  UNL1       -0.0798
     83 C          -1.0580   -5.2499   -0.6030 C.ar    1  UNL1        0.1278
     84 N          -0.2057   -5.7809   -1.0735 N.ar    1  UNL1       -0.2329
     85 C          -0.0384   -6.6037   -2.0826 C.ar    1  UNL1        0.1332
     86 C          -1.2403   -6.8723   -2.7197 C.ar    1  UNL1        0.0082
     87 S          -2.4532   -5.8309   -1.6889 S.2     1  UNL1       -0.0734
     88 C           1.2744   -7.1288   -2.4398 C.2     1  UNL1        0.2629
     89 O           1.4136   -7.9638   -3.4022 O.2     1  UNL1       -0.2685
     90 N           2.5061   -6.8159   -1.8195 N.am    1  UNL1       -0.3099
     91 C           3.8647   -7.1619   -1.9513 C.3     1  UNL1        0.0162
     92 C           4.2585   -8.5692   -1.7746 C.3     1  UNL1        0.0078
     93 C           5.7174   -8.7825   -1.9689 C.3     1  UNL1        0.1107
     94 S           6.8330   -7.9426   -0.9288 S.3     1  UNL1       -0.0163
     95 C           6.8066   -6.1899   -0.9697 C.3     1  UNL1        0.0991
     96 C           6.5408   -8.4187    0.7818 C.3     1  UNL1        0.0991
     97 H           5.5183   -1.7819   -0.4757 H       1  UNL1        0.0255
     98 H           5.4977   -1.4731   -2.2907 H       1  UNL1        0.0255
     99 H           5.6100   -0.1195   -1.1766 H       1  UNL1        0.0255
    100 H           3.4540   -0.1781   -2.0596 H       1  UNL1        0.0614
    101 H           3.3860   -2.0536   -2.9968 H       1  UNL1        0.2099
    102 H           1.8863   -0.4543   -0.3740 H       1  UNL1        0.0621
    103 H           4.5571    0.2805    0.5081 H       1  UNL1        0.1495
    104 H           3.1947    2.8458    2.7549 H       1  UNL1        0.0417
    105 H           5.5403    2.5897    3.1119 H       1  UNL1        0.0238
    106 H           4.5710    1.1024    3.4179 H       1  UNL1        0.0238
    107 H           5.6247    1.1436    1.9772 H       1  UNL1        0.0238
    108 H           4.6979    3.4822    0.1527 H       1  UNL1        0.0619
    109 H           6.0536    4.0507    1.6474 H       1  UNL1        0.2099
    110 H           2.8250    4.9637    1.9627 H       1  UNL1        0.0521
    111 H           3.1807    6.7642    0.3817 H       1  UNL1        0.0248
    112 H           4.2280    5.6567   -0.5941 H       1  UNL1        0.0248
    113 H           4.6356    6.1032    1.1319 H       1  UNL1        0.0248
    114 H           1.7552    3.8617   -0.7235 H       1  UNL1        0.1491
    115 H          -0.8106    6.1964    0.0901 H       1  UNL1        0.0625
    116 H          -1.4026    5.0492   -2.0280 H       1  UNL1        0.1499
    117 H          -1.5994   -0.7686   -0.8162 H       1  UNL1        0.0279
    118 H          -2.0031    0.8170   -0.0151 H       1  UNL1        0.0279
    119 H          -0.3279    0.3327   -0.2373 H       1  UNL1        0.0279
    120 H          -2.7546   -1.2279   -3.0701 H       1  UNL1        0.1437
    121 H          -2.1977   -2.1744   -2.6939 H       1  UNL1        0.1437
    122 H          -0.9389    3.2110   -6.3240 H       1  UNL1        0.0546
    123 H          -3.2700    1.2568   -6.5568 H       1  UNL1        0.0378
    124 H          -2.8040    2.4509   -7.7797 H       1  UNL1        0.0378
    125 H          -5.6506    3.4222   -5.6036 H       1  UNL1        0.1449
    126 H          -5.0714    3.6275   -7.4176 H       1  UNL1        0.1449
    127 H          -0.8792    0.2622   -6.4280 H       1  UNL1        0.1227
    128 H           0.0833    2.1734   -8.4925 H       1  UNL1        0.0444
    129 H          -1.4412    1.3081   -8.8087 H       1  UNL1        0.0444
    130 H           0.3372    0.1877   -9.8903 H       1  UNL1        0.0567
    131 H          -0.3807   -1.8107   -9.2672 H       1  UNL1        0.1189
    132 H           0.2787   -1.6582   -7.7375 H       1  UNL1        0.1189
    133 H           2.6029   -1.7639   -6.9684 H       1  UNL1        0.1450
    134 H           2.4387   -1.7151   -6.8062 H       1  UNL1        0.1450
    135 H          -2.4380    5.5020    1.4941 H       1  UNL1        0.0686
    136 H          -3.6711    4.5992    2.4155 H       1  UNL1        0.0938
    137 H          -3.5114    2.4831   -0.4702 H       1  UNL1        0.0647
    138 H          -5.3695    2.1910   -1.8907 H       1  UNL1        0.0584
    139 H          -4.8585    3.9560   -1.7753 H       1  UNL1        0.0584
    140 H          -6.5518    3.9173   -0.0089 H       1  UNL1        0.2095
    141 H          -4.5340    0.6411    0.4419 H       1  UNL1        0.0647
    142 H          -6.4637    0.8918   -0.6054 H       1  UNL1        0.2100
    143 H          -6.0219    2.5313    2.3400 H       1  UNL1        0.0648
    144 H          -6.1047    0.7842    3.5207 H       1  UNL1        0.2100
    145 H          -3.0434    1.7703    2.6917 H       1  UNL1        0.0675
    146 H          -2.3146    1.9042    4.1473 H       1  UNL1        0.0938
    147 H          -3.4285    4.8521    6.5899 H       1  UNL1        0.0647
    148 H          -1.2701    4.5519    7.5890 H       1  UNL1        0.0584
    149 H          -2.5348    4.1325    8.7652 H       1  UNL1        0.0584
    150 H          -0.7251    2.3506    7.4950 H       1  UNL1        0.2095
    151 H          -5.1536    3.3275    6.4744 H       1  UNL1        0.0658
    152 H          -4.5833    2.5385    9.0511 H       1  UNL1        0.2101
    153 H          -3.3852    1.2725    7.8948 H       1  UNL1        0.0790
    154 H          -6.9565   -1.3309    9.2833 H       1  UNL1        0.1482
    155 H          -7.2795   -0.9910    7.9316 H       1  UNL1        0.1482
    156 H          -2.3456    0.7494    6.0903 H       1  UNL1        0.0682
    157 H          -3.5483   -0.7761    5.4164 H       1  UNL1        0.2102
    158 H          -0.0654    2.8532    2.7383 H       1  UNL1        0.0848
    159 H          -0.0533    6.1108    5.4986 H       1  UNL1        0.1027
    160 H          -1.4097    6.6989    3.4027 H       1  UNL1        0.1666
    161 H           2.1750   -3.4370   -0.2329 H       1  UNL1        0.1487
    162 H           2.1347   -4.8605    2.1619 H       1  UNL1        0.0466
    163 H           3.2830   -3.5840    2.6343 H       1  UNL1        0.0466
    164 H           1.4046   -1.9522    2.8271 H       1  UNL1        0.0349
    165 H           1.1854   -3.3906    3.9769 H       1  UNL1        0.0349
    166 H          -3.3897   -3.9341    0.4810 H       1  UNL1        0.0716
    167 H          -1.3141   -7.5352   -3.5913 H       1  UNL1        0.0717
    168 H           2.2674   -6.1198   -1.0377 H       1  UNL1        0.1491
    169 H           4.2289   -6.7496   -2.9188 H       1  UNL1        0.0463
    170 H           4.3987   -6.5951   -1.1278 H       1  UNL1        0.0463
    171 H           3.6378   -9.2947   -2.3533 H       1  UNL1        0.0326
    172 H           4.0505   -8.8868   -0.7018 H       1  UNL1        0.0326
    173 H           5.9829   -9.8791   -1.9323 H       1  UNL1        0.0840
    174 H           6.0297   -8.5038   -3.0399 H       1  UNL1        0.0840
    175 H           7.8573   -5.7664   -0.8457 H       1  UNL1        0.0803
    176 H           6.2563   -5.7001   -0.1435 H       1  UNL1        0.0803
    177 H           6.4067   -5.7574   -1.9283 H       1  UNL1        0.0803
    178 H           7.1985   -9.2671    1.0240 H       1  UNL1        0.0803
    179 H           5.4705   -8.5957    0.8932 H       1  UNL1        0.0803
    180 H           6.8261   -7.5730    1.4720 H       1  UNL1        0.0803
@<TRIPOS>UNITY_ATOM_ATTR
94 1
charge 1
@<TRIPOS>BOND
     1     1     2    1
     2     2     3    1
     3     2     4    1
     4     4     5    1
     5     5     6   am
     6     6     7    2
     7     6     8    1
     8     8     9    1
     9     8    10    1
    10    10    11    1
    11    10    12    1
    12    12    13    1
    13    12    14    1
    14    14    15   am
    15    15    16    2
    16    15    17    1
    17    17    18    1
    18    18    19   am
    19    19    20    2
    20    19    21    1
    21    21    22   ar
    22    22    23    1
    23    22    24   ar
    24    24    25    1
    25    24    26   ar
    26    26    27   ar
    27    27    28   ar
    28    27    29    1
    29    29    30    1
    30    30    31    1
    31    31    32   am
    32    31    33    2
    33    29    34    1
    34    34    35    1
    35    35    36    1
    36    36    37    1
    37    36    38    1
    38    38    39   am
    39    38    40    2
    40    17    41    1
    41    41    42    1
    42    42    43    1
    43    43    44    1
    44    44    45    1
    45    45    46    1
    46    46    47    1
    47    45    48    1
    48    48    49    1
    49    48    50    1
    50    50    51    1
    51    50    52    1
    52    52    53    1
    53    53    54    1
    54    54    55    1
    55    55    56    1
    56    56    57    1
    57    57    58    1
    58    56    59    1
    59    59    60    1
    60    59    61    1
    61    61    62    1
    62    62    63    1
    63    63    64   am
    64    63    65    2
    65    61    66    1
    66    66    67    1
    67    41    68    1
    68    68    69   ar
    69    69    70   ar
    70    70    71   ar
    71    71    72   ar
    72     4    73    1
    73    73    74    2
    74    73    75   am
    75    75    76    1
    76    76    77    1
    77    77    78    1
    78    78    79   ar
    79    79    80   ar
    80    80    81   ar
    81    81    82   ar
    82    80    83    1
    83    83    84   ar
    84    84    85   ar
    85    85    86   ar
    86    86    87   ar
    87    85    88    1
    88    88    89    2
    89    88    90   am
    90    90    91    1
    91    91    92    1
    92    92    93    1
    93    93    94    1
    94    94    95    1
    95    94    96    1
    96    28    21   ar
    97    52    43    1
    98    66    54    1
    99    72    68   ar
   100    82    78   ar
   101    87    83   ar
   102     1    97    1
   103     1    98    1
   104     1    99    1
   105     2   100    1
   106     3   101    1
   107     4   102    1
   108     5   103    1
   109     8   104    1
   110     9   105    1
   111     9   106    1
   112     9   107    1
   113    10   108    1
   114    11   109    1
   115    12   110    1
   116    13   111    1
   117    13   112    1
   118    13   113    1
   119    14   114    1
   120    17   115    1
   121    18   116    1
   122    23   117    1
   123    23   118    1
   124    23   119    1
   125    25   120    1
   126    25   121    1
   127    29   122    1
   128    30   123    1
   129    30   124    1
   130    32   125    1
   131    32   126    1
   132    34   127    1
   133    35   128    1
   134    35   129    1
   135    36   130    1
   136    37   131    1
   137    37   132    1
   138    39   133    1
   139    39   134    1
   140    41   135    1
   141    43   136    1
   142    45   137    1
   143    46   138    1
   144    46   139    1
   145    47   140    1
   146    48   141    1
   147    49   142    1
   148    50   143    1
   149    51   144    1
   150    52   145    1
   151    54   146    1
   152    56   147    1
   153    57   148    1
   154    57   149    1
   155    58   150    1
   156    59   151    1
   157    60   152    1
   158    61   153    1
   159    64   154    1
   160    64   155    1
   161    66   156    1
   162    67   157    1
   163    69   158    1
   164    71   159    1
   165    72   160    1
   166    75   161    1
   167    76   162    1
   168    76   163    1
   169    77   164    1
   170    77   165    1
   171    81   166    1
   172    86   167    1
   173    90   168    1
   174    91   169    1
   175    91   170    1
   176    92   171    1
   177    92   172    1
   178    93   173    1
   179    93   174    1
   180    95   175    1
   181    95   176    1
   182    95   177    1
   183    96   178    1
   184    96   179    1
   185    96   180    1
