@<TRIPOS>MOLECULE
*****
 46 49 0 0 0
SMALL
GASTEIGER

@<TRIPOS>ATOM
      1 C           6.5475    0.5509    0.6840 C.3     1  UNL1        0.0309
      2 N           5.1144    0.3887    0.5261 N.ar    1  UNL1       -0.2661
      3 N           4.3509   -0.3485    1.3308 N.ar    1  UNL1       -0.1687
      4 C           3.0741   -0.3050    0.9326 C.ar    1  UNL1        0.1201
      5 C           1.9190   -0.9796    1.5491 C.ar    1  UNL1        0.1104
      6 C           2.0757   -1.7714    2.6692 C.ar    1  UNL1        0.0575
      7 N           1.0509   -2.4051    3.2632 N.ar    1  UNL1       -0.2338
      8 C          -0.1816   -2.2630    2.7456 C.ar    1  UNL1        0.1574
      9 N          -1.4053   -2.7342    3.0668 N.ar    1  UNL1       -0.3438
     10 C          -2.3308   -2.2713    2.1936 C.ar    1  UNL1        0.0178
     11 C          -1.7034   -1.4682    1.2640 C.ar    1  UNL1        0.0815
     12 C          -2.2651   -0.7446    0.1311 C.2     1  UNL1        0.2480
     13 O          -1.5432   -0.3913   -0.8329 O.2     1  UNL1       -0.2701
     14 N          -3.6496   -0.3959    0.0446 N.am    1  UNL1       -0.3065
     15 C          -4.2071    0.3248   -1.0820 C.3     1  UNL1        0.0265
     16 C          -5.6871    0.5075   -0.8227 C.3     1  UNL1       -0.0442
     17 C          -3.5844    1.6751   -1.2627 C.3     1  UNL1       -0.0442
     18 C          -4.0490   -0.4386   -2.3819 C.3     1  UNL1       -0.0442
     19 C          -0.3590   -1.4720    1.6211 C.ar    1  UNL1        0.1202
     20 N           0.6792   -0.8451    1.0399 N.ar    1  UNL1       -0.2397
     21 C           3.0581    0.5056   -0.1793 C.ar    1  UNL1        0.0292
     22 C           2.0429    0.9214   -1.0177 C.ar    1  UNL1       -0.0490
     23 C           2.3143    1.7536   -2.0845 C.ar    1  UNL1       -0.0426
     24 C           3.5950    2.2018   -2.3581 C.ar    1  UNL1        0.0430
     25 CL          3.9386    3.2555   -3.7100 Cl      1  UNL1       -0.0835
     26 C           4.5928    1.7767   -1.5110 C.ar    1  UNL1       -0.0177
     27 C           4.3537    0.9492   -0.4420 C.ar    1  UNL1        0.0706
     28 H           7.0585   -0.4406    0.5943 H       1  UNL1        0.0473
     29 H           6.8982    1.2834   -0.0407 H       1  UNL1        0.0473
     30 H           6.7809    0.9485    1.7160 H       1  UNL1        0.0473
     31 H           3.1017   -1.8553    3.0569 H       1  UNL1        0.0853
     32 H          -1.5562   -3.3665    3.8919 H       1  UNL1        0.1668
     33 H          -3.3846   -2.4775    2.1962 H       1  UNL1        0.0816
     34 H          -4.2570   -0.6843    0.8385 H       1  UNL1        0.1495
     35 H          -5.8481    0.5154    0.2815 H       1  UNL1        0.0250
     36 H          -6.2700   -0.3812   -1.1929 H       1  UNL1        0.0250
     37 H          -6.1104    1.4008   -1.3171 H       1  UNL1        0.0250
     38 H          -2.9707    1.9631   -0.3582 H       1  UNL1        0.0250
     39 H          -2.8970    1.6688   -2.1355 H       1  UNL1        0.0250
     40 H          -4.3905    2.4188   -1.4126 H       1  UNL1        0.0250
     41 H          -3.1051   -0.0697   -2.8677 H       1  UNL1        0.0250
     42 H          -4.9399   -0.1794   -3.0085 H       1  UNL1        0.0250
     43 H          -3.9965   -1.5173   -2.1496 H       1  UNL1        0.0250
     44 H           1.0284    0.5884   -0.8285 H       1  UNL1        0.0625
     45 H           1.5210    2.0912   -2.7580 H       1  UNL1        0.0632
     46 H           5.5955    2.1162   -1.7088 H       1  UNL1        0.0653
@<TRIPOS>BOND
     1     1     2    1
     2     2     3   ar
     3     3     4   ar
     4     4     5    1
     5     5     6   ar
     6     6     7   ar
     7     7     8   ar
     8     8     9   ar
     9     9    10   ar
    10    10    11   ar
    11    11    12    1
    12    12    13    2
    13    12    14   am
    14    14    15    1
    15    15    16    1
    16    15    17    1
    17    15    18    1
    18    11    19   ar
    19    19    20   ar
    20     4    21   ar
    21    21    22   ar
    22    22    23   ar
    23    23    24   ar
    24    24    25    1
    25    24    26   ar
    26    26    27   ar
    27    27     2   ar
    28    20     5   ar
    29    27    21   ar
    30    19     8   ar
    31     1    28    1
    32     1    29    1
    33     1    30    1
    34     6    31    1
    35     9    32    1
    36    10    33    1
    37    14    34    1
    38    16    35    1
    39    16    36    1
    40    16    37    1
    41    17    38    1
    42    17    39    1
    43    17    40    1
    44    18    41    1
    45    18    42    1
    46    18    43    1
    47    22    44    1
    48    23    45    1
    49    26    46    1
