
     RDKit          3D

 46 49  0  0  0  0  0  0  0  0999 V2000
    6.5475    0.5509    0.6840 C   0  0  0  0  0  0  0  0  0  0  0  0
    5.1144    0.3887    0.5261 N   0  0  0  0  0  0  0  0  0  0  0  0
    4.3509   -0.3485    1.3308 N   0  0  0  0  0  0  0  0  0  0  0  0
    3.0741   -0.3050    0.9326 C   0  0  0  0  0  0  0  0  0  0  0  0
    1.9190   -0.9796    1.5491 C   0  0  0  0  0  0  0  0  0  0  0  0
    2.0757   -1.7714    2.6692 C   0  0  0  0  0  0  0  0  0  0  0  0
    1.0509   -2.4051    3.2632 N   0  0  0  0  0  0  0  0  0  0  0  0
   -0.1816   -2.2630    2.7456 C   0  0  0  0  0  0  0  0  0  0  0  0
   -1.4053   -2.7342    3.0668 N   0  0  0  0  0  0  0  0  0  0  0  0
   -2.3308   -2.2713    2.1936 C   0  0  0  0  0  0  0  0  0  0  0  0
   -1.7034   -1.4682    1.2640 C   0  0  0  0  0  0  0  0  0  0  0  0
   -2.2651   -0.7446    0.1311 C   0  0  0  0  0  0  0  0  0  0  0  0
   -1.5432   -0.3913   -0.8329 O   0  0  0  0  0  0  0  0  0  0  0  0
   -3.6496   -0.3959    0.0446 N   0  0  0  0  0  0  0  0  0  0  0  0
   -4.2071    0.3248   -1.0820 C   0  0  0  0  0  0  0  0  0  0  0  0
   -5.6871    0.5075   -0.8227 C   0  0  0  0  0  0  0  0  0  0  0  0
   -3.5844    1.6751   -1.2627 C   0  0  0  0  0  0  0  0  0  0  0  0
   -4.0490   -0.4386   -2.3819 C   0  0  0  0  0  0  0  0  0  0  0  0
   -0.3590   -1.4720    1.6211 C   0  0  0  0  0  0  0  0  0  0  0  0
    0.6792   -0.8451    1.0399 N   0  0  0  0  0  0  0  0  0  0  0  0
    3.0581    0.5056   -0.1793 C   0  0  0  0  0  0  0  0  0  0  0  0
    2.0429    0.9214   -1.0177 C   0  0  0  0  0  0  0  0  0  0  0  0
    2.3143    1.7536   -2.0845 C   0  0  0  0  0  0  0  0  0  0  0  0
    3.5950    2.2018   -2.3581 C   0  0  0  0  0  0  0  0  0  0  0  0
    3.9386    3.2555   -3.7100 Cl  0  0  0  0  0  0  0  0  0  0  0  0
    4.5928    1.7767   -1.5110 C   0  0  0  0  0  0  0  0  0  0  0  0
    4.3537    0.9492   -0.4420 C   0  0  0  0  0  0  0  0  0  0  0  0
    7.0585   -0.4406    0.5943 H   0  0  0  0  0  0  0  0  0  0  0  0
    6.8982    1.2834   -0.0407 H   0  0  0  0  0  0  0  0  0  0  0  0
    6.7809    0.9485    1.7160 H   0  0  0  0  0  0  0  0  0  0  0  0
    3.1017   -1.8553    3.0569 H   0  0  0  0  0  0  0  0  0  0  0  0
   -1.5562   -3.3665    3.8919 H   0  0  0  0  0  0  0  0  0  0  0  0
   -3.3846   -2.4775    2.1962 H   0  0  0  0  0  0  0  0  0  0  0  0
   -4.2570   -0.6843    0.8385 H   0  0  0  0  0  0  0  0  0  0  0  0
   -5.8481    0.5154    0.2815 H   0  0  0  0  0  0  0  0  0  0  0  0
   -6.2700   -0.3812   -1.1929 H   0  0  0  0  0  0  0  0  0  0  0  0
   -6.1104    1.4008   -1.3171 H   0  0  0  0  0  0  0  0  0  0  0  0
   -2.9707    1.9631   -0.3582 H   0  0  0  0  0  0  0  0  0  0  0  0
   -2.8970    1.6688   -2.1355 H   0  0  0  0  0  0  0  0  0  0  0  0
   -4.3905    2.4188   -1.4126 H   0  0  0  0  0  0  0  0  0  0  0  0
   -3.1051   -0.0697   -2.8677 H   0  0  0  0  0  0  0  0  0  0  0  0
   -4.9399   -0.1794   -3.0085 H   0  0  0  0  0  0  0  0  0  0  0  0
   -3.9965   -1.5173   -2.1496 H   0  0  0  0  0  0  0  0  0  0  0  0
    1.0284    0.5884   -0.8285 H   0  0  0  0  0  0  0  0  0  0  0  0
    1.5210    2.0912   -2.7580 H   0  0  0  0  0  0  0  0  0  0  0  0
    5.5955    2.1162   -1.7088 H   0  0  0  0  0  0  0  0  0  0  0  0
  1  2  1  0
  2  3  1  0
  3  4  2  0
  4  5  1  0
  5  6  2  0
  6  7  1  0
  7  8  2  0
  8  9  1  0
  9 10  1  0
 10 11  2  0
 11 12  1  0
 12 13  2  0
 12 14  1  0
 14 15  1  0
 15 16  1  0
 15 17  1  0
 15 18  1  0
 11 19  1  0
 19 20  2  0
  4 21  1  0
 21 22  2  0
 22 23  1  0
 23 24  2  0
 24 25  1  0
 24 26  1  0
 26 27  2  0
 27  2  1  0
 20  5  1  0
 27 21  1  0
 19  8  1  0
  1 28  1  0
  1 29  1  0
  1 30  1  0
  6 31  1  0
  9 32  1  0
 10 33  1  0
 14 34  1  0
 16 35  1  0
 16 36  1  0
 16 37  1  0
 17 38  1  0
 17 39  1  0
 17 40  1  0
 18 41  1  0
 18 42  1  0
 18 43  1  0
 22 44  1  0
 23 45  1  0
 26 46  1  0
M  END
$$$$
