
     RDKit          3D

 48 52  0  0  0  0  0  0  0  0999 V2000
    7.7021   -1.4390   -1.6697 O   0  0  0  0  0  0  0  0  0  0  0  0
    6.7874   -0.7519   -2.2292 C   0  0  0  0  0  0  0  0  0  0  0  0
    7.0869   -0.1454   -3.4542 N   0  0  0  0  0  0  0  0  0  0  0  0
    8.3274   -0.2879   -4.0321 O   0  0  0  0  0  0  0  0  0  0  0  0
    5.4977   -0.6454   -1.5578 C   0  0  0  0  0  0  0  0  0  0  0  0
    4.4278    0.0653   -2.0548 C   0  0  0  0  0  0  0  0  0  0  0  0
    3.2531    0.1439   -1.4122 N   0  0  0  0  0  0  0  0  0  0  0  0
    3.0770   -0.4876   -0.2264 C   0  0  0  0  0  0  0  0  0  0  0  0
    1.8462   -0.4209    0.4732 N   0  0  0  0  0  0  0  0  0  0  0  0
    0.6571    0.2785    0.0735 C   0  0  0  0  0  0  0  0  0  0  0  0
    0.0528    0.7995    1.3433 C   0  0  1  0  0  0  0  0  0  0  0  0
   -0.7974   -0.0671    2.1927 C   0  0  2  0  0  0  0  0  0  0  0  0
   -1.5697    0.5513    3.2203 N   0  0  0  0  0  0  0  0  0  0  0  0
   -2.5184    1.5305    2.7389 C   0  0  0  0  0  0  0  0  0  0  0  0
   -3.5026    0.9691    1.8116 C   0  0  0  0  0  0  0  0  0  0  0  0
   -4.6843    0.4567    2.2797 C   0  0  0  0  0  0  0  0  0  0  0  0
   -5.5992   -0.0693    1.3777 C   0  0  0  0  0  0  0  0  0  0  0  0
   -5.3058   -0.0683    0.0275 C   0  0  0  0  0  0  0  0  0  0  0  0
   -6.1751   -0.5762   -0.9084 C   0  0  0  0  0  0  0  0  0  0  0  0
   -5.9057   -0.5874   -2.2680 C   0  0  0  0  0  0  0  0  0  0  0  0
   -6.7906   -1.0970   -3.1487 F   0  0  0  0  0  0  0  0  0  0  0  0
   -4.7024   -0.0599   -2.6879 C   0  0  0  0  0  0  0  0  0  0  0  0
   -3.8021    0.4606   -1.7724 C   0  0  0  0  0  0  0  0  0  0  0  0
   -4.1053    0.4562   -0.4097 C   0  0  0  0  0  0  0  0  0  0  0  0
   -3.2474    0.9559    0.4991 N   0  0  0  0  0  0  0  0  0  0  0  0
    0.7016   -0.0242    2.4235 C   0  0  1  0  0  0  0  0  0  0  0  0
    1.5681   -1.0553    1.7314 C   0  0  0  0  0  0  0  0  0  0  0  0
    4.1162   -1.1826    0.2643 N   0  0  0  0  0  0  0  0  0  0  0  0
    5.2936   -1.2841   -0.3413 C   0  0  0  0  0  0  0  0  0  0  0  0
    6.3578    0.4225   -3.9343 H   0  0  0  0  0  0  0  0  0  0  0  0
    9.0025   -0.2472   -3.2910 H   0  0  0  0  0  0  0  0  0  0  0  0
    4.5796    0.5763   -3.0203 H   0  0  0  0  0  0  0  0  0  0  0  0
    0.8762    1.1000   -0.6472 H   0  0  0  0  0  0  0  0  0  0  0  0
   -0.0118   -0.4361   -0.4531 H   0  0  0  0  0  0  0  0  0  0  0  0
   -0.0647    1.8813    1.4460 H   0  0  0  0  0  0  0  0  0  0  0  0
   -1.1482   -1.0558    1.7988 H   0  0  0  0  0  0  0  0  0  0  0  0
   -1.0376    0.8819    4.0327 H   0  0  0  0  0  0  0  0  0  0  0  0
   -3.0463    1.9321    3.6294 H   0  0  0  0  0  0  0  0  0  0  0  0
   -1.9445    2.3781    2.3149 H   0  0  0  0  0  0  0  0  0  0  0  0
   -4.9249    0.4504    3.3338 H   0  0  0  0  0  0  0  0  0  0  0  0
   -6.5425   -0.4859    1.6770 H   0  0  0  0  0  0  0  0  0  0  0  0
   -7.1113   -0.9828   -0.5449 H   0  0  0  0  0  0  0  0  0  0  0  0
   -4.4614   -0.0533   -3.7406 H   0  0  0  0  0  0  0  0  0  0  0  0
   -2.8489    0.8825   -2.0651 H   0  0  0  0  0  0  0  0  0  0  0  0
    1.0997    0.5563    3.2655 H   0  0  0  0  0  0  0  0  0  0  0  0
    0.9459   -1.9457    1.5250 H   0  0  0  0  0  0  0  0  0  0  0  0
    2.4763   -1.3022    2.3116 H   0  0  0  0  0  0  0  0  0  0  0  0
    6.1149   -1.8519    0.0777 H   0  0  0  0  0  0  0  0  0  0  0  0
  1  2  2  0
  2  3  1  0
  3  4  1  0
  2  5  1  0
  5  6  2  0
  6  7  1  0
  7  8  2  0
  8  9  1  0
  9 10  1  0
 10 11  1  0
 11 12  1  0
 12 13  1  0
 13 14  1  0
 14 15  1  0
 15 16  2  0
 16 17  1  0
 17 18  2  0
 18 19  1  0
 19 20  2  0
 20 21  1  0
 20 22  1  0
 22 23  2  0
 23 24  1  0
 24 25  2  0
 12 26  1  0
 26 27  1  0
  8 28  1  0
 28 29  2  0
 29  5  1  0
 27  9  1  0
 26 11  1  0
 25 15  1  0
 24 18  1  0
  3 30  1  0
  4 31  1  0
  6 32  1  0
 10 33  1  0
 10 34  1  0
 11 35  1  1
 12 36  1  6
 13 37  1  0
 14 38  1  0
 14 39  1  0
 16 40  1  0
 17 41  1  0
 19 42  1  0
 22 43  1  0
 23 44  1  0
 26 45  1  1
 27 46  1  0
 27 47  1  0
 29 48  1  0
M  END
$$$$
