@<TRIPOS>MOLECULE
*****
 48 52 0 0 0
SMALL
GASTEIGER

@<TRIPOS>ATOM
      1 O           7.7021   -1.4390   -1.6697 O.2     1  UNL1       -0.2680
      2 C           6.7874   -0.7519   -2.2292 C.2     1  UNL1        0.2694
      3 N           7.0869   -0.1454   -3.4542 N.am    1  UNL1       -0.1934
      4 O           8.3274   -0.2879   -4.0321 O.3     1  UNL1       -0.2949
      5 C           5.4977   -0.6454   -1.5578 C.ar    1  UNL1        0.0749
      6 C           4.4278    0.0653   -2.0548 C.ar    1  UNL1        0.0448
      7 N           3.2531    0.1439   -1.4122 N.ar    1  UNL1       -0.2220
      8 C           3.0770   -0.4876   -0.2264 C.ar    1  UNL1        0.2178
      9 N           1.8462   -0.4209    0.4732 N.pl3   1  UNL1       -0.2990
     10 C           0.6571    0.2785    0.0735 C.3     1  UNL1        0.0195
     11 C           0.0528    0.7995    1.3433 C.3     1  UNL1       -0.0038
     12 C          -0.7974   -0.0671    2.1927 C.3     1  UNL1        0.0172
     13 N          -1.5697    0.5513    3.2203 N.3     1  UNL1       -0.3072
     14 C          -2.5184    1.5305    2.7389 C.3     1  UNL1        0.0387
     15 C          -3.5026    0.9691    1.8116 C.ar    1  UNL1        0.0557
     16 C          -4.6843    0.4567    2.2797 C.ar    1  UNL1       -0.0385
     17 C          -5.5992   -0.0693    1.3777 C.ar    1  UNL1       -0.0507
     18 C          -5.3058   -0.0683    0.0275 C.ar    1  UNL1        0.0031
     19 C          -6.1751   -0.5762   -0.9084 C.ar    1  UNL1       -0.0173
     20 C          -5.9057   -0.5874   -2.2680 C.ar    1  UNL1        0.1241
     21 F          -6.7906   -1.0970   -3.1487 F       1  UNL1       -0.2055
     22 C          -4.7024   -0.0599   -2.6879 C.ar    1  UNL1       -0.0244
     23 C          -3.8021    0.4606   -1.7724 C.ar    1  UNL1       -0.0330
     24 C          -4.1053    0.4562   -0.4097 C.ar    1  UNL1        0.0715
     25 N          -3.2474    0.9559    0.4991 N.ar    1  UNL1       -0.2503
     26 C           0.7016   -0.0242    2.4235 C.3     1  UNL1       -0.0038
     27 C           1.5681   -1.0553    1.7314 C.3     1  UNL1        0.0195
     28 N           4.1162   -1.1826    0.2643 N.ar    1  UNL1       -0.2220
     29 C           5.2936   -1.2841   -0.3413 C.ar    1  UNL1        0.0448
     30 H           6.3578    0.4225   -3.9343 H       1  UNL1        0.1825
     31 H           9.0025   -0.2472   -3.2910 H       1  UNL1        0.2414
     32 H           4.5796    0.5763   -3.0203 H       1  UNL1        0.0839
     33 H           0.8762    1.1000   -0.6472 H       1  UNL1        0.0468
     34 H          -0.0118   -0.4361   -0.4531 H       1  UNL1        0.0468
     35 H          -0.0647    1.8813    1.4460 H       1  UNL1        0.0335
     36 H          -1.1482   -1.0558    1.7988 H       1  UNL1        0.0467
     37 H          -1.0376    0.8819    4.0327 H       1  UNL1        0.1226
     38 H          -3.0463    1.9321    3.6294 H       1  UNL1        0.0489
     39 H          -1.9445    2.3781    2.3149 H       1  UNL1        0.0489
     40 H          -4.9249    0.4504    3.3338 H       1  UNL1        0.0636
     41 H          -6.5425   -0.4859    1.6770 H       1  UNL1        0.0625
     42 H          -7.1113   -0.9828   -0.5449 H       1  UNL1        0.0653
     43 H          -4.4614   -0.0533   -3.7406 H       1  UNL1        0.0647
     44 H          -2.8489    0.8825   -2.0651 H       1  UNL1        0.0640
     45 H           1.0997    0.5563    3.2655 H       1  UNL1        0.0335
     46 H           0.9459   -1.9457    1.5250 H       1  UNL1        0.0468
     47 H           2.4763   -1.3022    2.3116 H       1  UNL1        0.0468
     48 H           6.1149   -1.8519    0.0777 H       1  UNL1        0.0839
@<TRIPOS>BOND
     1     1     2    2
     2     2     3   am
     3     3     4    1
     4     2     5    1
     5     5     6   ar
     6     6     7   ar
     7     7     8   ar
     8     8     9    1
     9     9    10    1
    10    10    11    1
    11    11    12    1
    12    12    13    1
    13    13    14    1
    14    14    15    1
    15    15    16   ar
    16    16    17   ar
    17    17    18   ar
    18    18    19   ar
    19    19    20   ar
    20    20    21    1
    21    20    22   ar
    22    22    23   ar
    23    23    24   ar
    24    24    25   ar
    25    12    26    1
    26    26    27    1
    27     8    28   ar
    28    28    29   ar
    29    29     5   ar
    30    27     9    1
    31    26    11    1
    32    25    15   ar
    33    24    18   ar
    34     3    30    1
    35     4    31    1
    36     6    32    1
    37    10    33    1
    38    10    34    1
    39    11    35    1
    40    12    36    1
    41    13    37    1
    42    14    38    1
    43    14    39    1
    44    16    40    1
    45    17    41    1
    46    19    42    1
    47    22    43    1
    48    23    44    1
    49    26    45    1
    50    27    46    1
    51    27    47    1
    52    29    48    1
