@<TRIPOS>MOLECULE
*****
 57 59 0 0 0
SMALL
GASTEIGER

@<TRIPOS>ATOM
      1 C          -3.0878   -0.3354   -2.8415 C.3     1  UNL1       -0.0425
      2 C          -2.6418    0.3100   -1.5152 C.3     1  UNL1        0.0456
      3 N          -1.9068   -0.7750   -0.8445 N.am    1  UNL1       -0.3075
      4 C          -0.4944   -0.7203   -0.7004 C.2     1  UNL1        0.2307
      5 O           0.0805    0.2827   -1.1725 O.2     1  UNL1       -0.2741
      6 C           0.2853   -1.7960   -0.0224 C.3     1  UNL1        0.0873
      7 C          -0.0629   -3.0624   -0.8178 C.3     1  UNL1       -0.0288
      8 C           0.5875   -4.2214   -0.1409 C.3     1  UNL1       -0.0500
      9 C           2.0857   -4.0065   -0.0456 C.3     1  UNL1       -0.0401
     10 C           2.4394   -2.6698    0.4790 C.3     1  UNL1       -0.0003
     11 N           1.6572   -1.5569    0.1041 N.3     1  UNL1       -0.2883
     12 C           2.0741   -0.3170    0.6707 C.3     1  UNL1        0.0338
     13 C           3.3642    0.2155    0.1729 C.3     1  UNL1        0.1023
     14 O           3.6194    1.4564    0.8473 O.3     1  UNL1       -0.4907
     15 C           4.7784    2.1528    0.5475 C.ar    1  UNL1        0.1206
     16 C           5.7059    1.7106   -0.3722 C.ar    1  UNL1       -0.0199
     17 C           6.8503    2.4587   -0.6272 C.ar    1  UNL1       -0.0583
     18 C           7.0513    3.6509    0.0492 C.ar    1  UNL1       -0.0615
     19 C           6.1337    4.1065    0.9713 C.ar    1  UNL1       -0.0583
     20 C           5.0089    3.3401    1.2007 C.ar    1  UNL1       -0.0199
     21 C          -3.8741    0.6767   -0.8140 C.ar    1  UNL1       -0.0274
     22 C          -3.9451    0.7701    0.5726 C.ar    1  UNL1       -0.0560
     23 C          -5.1267    1.1251    1.1807 C.ar    1  UNL1       -0.0475
     24 C          -6.2755    1.4005    0.4602 C.ar    1  UNL1        0.0589
     25 C          -7.5113    1.7679    1.1299 C.2     1  UNL1        0.3368
     26 O          -8.5252    2.0311    0.4621 O.2     1  UNL1       -0.2451
     27 O          -7.5582    1.8233    2.5035 O.3     1  UNL1       -0.4771
     28 C          -6.2091    1.3094   -0.9108 C.ar    1  UNL1       -0.0475
     29 C          -5.0366    0.9573   -1.5043 C.ar    1  UNL1       -0.0560
     30 H          -2.2681   -1.0294   -3.1914 H       1  UNL1        0.0251
     31 H          -3.3164    0.4157   -3.5994 H       1  UNL1        0.0251
     32 H          -3.9281   -1.0055   -2.5687 H       1  UNL1        0.0251
     33 H          -1.9743    1.1336   -1.7825 H       1  UNL1        0.0545
     34 H          -2.4241   -1.5835   -0.4752 H       1  UNL1        0.1493
     35 H          -0.1401   -2.0002    1.0049 H       1  UNL1        0.0558
     36 H           0.2616   -2.9709   -1.8669 H       1  UNL1        0.0285
     37 H          -1.1596   -3.1942   -0.7805 H       1  UNL1        0.0285
     38 H           0.4433   -5.1187   -0.7895 H       1  UNL1        0.0266
     39 H           0.1668   -4.3932    0.8671 H       1  UNL1        0.0266
     40 H           2.4767   -4.7900    0.6404 H       1  UNL1        0.0278
     41 H           2.4950   -4.2329   -1.0499 H       1  UNL1        0.0278
     42 H           2.3433   -2.7495    1.6080 H       1  UNL1        0.0427
     43 H           3.5366   -2.5216    0.3470 H       1  UNL1        0.0427
     44 H           1.3194    0.4734    0.6735 H       1  UNL1        0.0460
     45 H           2.2355   -0.5354    1.7792 H       1  UNL1        0.0460
     46 H           3.2560    0.4769   -0.8988 H       1  UNL1        0.0709
     47 H           4.2474   -0.4131    0.3841 H       1  UNL1        0.0709
     48 H           5.5529    0.7724   -0.9088 H       1  UNL1        0.0654
     49 H           7.5894    2.1254   -1.3465 H       1  UNL1        0.0619
     50 H           7.9301    4.2615   -0.1217 H       1  UNL1        0.0618
     51 H           6.3168    5.0368    1.4821 H       1  UNL1        0.0619
     52 H           4.3008    3.7267    1.9347 H       1  UNL1        0.0654
     53 H          -3.0324    0.5490    1.1083 H       1  UNL1        0.0621
     54 H          -5.1788    1.1964    2.2575 H       1  UNL1        0.0626
     55 H          -8.4153    1.8746    3.0315 H       1  UNL1        0.2954
     56 H          -7.0800    1.5159   -1.5166 H       1  UNL1        0.0626
     57 H          -5.0208    0.8950   -2.5984 H       1  UNL1        0.0621
@<TRIPOS>BOND
     1     1     2    1
     2     2     3    1
     3     3     4   am
     4     4     5    2
     5     4     6    1
     6     6     7    1
     7     7     8    1
     8     8     9    1
     9     9    10    1
    10    10    11    1
    11    11    12    1
    12    12    13    1
    13    13    14    1
    14    14    15    1
    15    15    16   ar
    16    16    17   ar
    17    17    18   ar
    18    18    19   ar
    19    19    20   ar
    20     2    21    1
    21    21    22   ar
    22    22    23   ar
    23    23    24   ar
    24    24    25    1
    25    25    26    2
    26    25    27    1
    27    24    28   ar
    28    28    29   ar
    29    11     6    1
    30    20    15   ar
    31    29    21   ar
    32     1    30    1
    33     1    31    1
    34     1    32    1
    35     2    33    1
    36     3    34    1
    37     6    35    1
    38     7    36    1
    39     7    37    1
    40     8    38    1
    41     8    39    1
    42     9    40    1
    43     9    41    1
    44    10    42    1
    45    10    43    1
    46    12    44    1
    47    12    45    1
    48    13    46    1
    49    13    47    1
    50    16    48    1
    51    17    49    1
    52    18    50    1
    53    19    51    1
    54    20    52    1
    55    22    53    1
    56    23    54    1
    57    27    55    1
    58    28    56    1
    59    29    57    1
