
     RDKit          3D

 65 68  0  0  0  0  0  0  0  0999 V2000
    4.7478   -3.3543   -0.0923 C   0  0  0  0  0  0  0  0  0  0  0  0
    4.5345   -2.0903   -0.7340 N   0  0  0  0  0  0  0  0  0  0  0  0
    5.1382   -1.8466   -2.0343 C   0  0  0  0  0  0  0  0  0  0  0  0
    3.7472   -1.0642   -0.1403 C   0  0  0  0  0  0  0  0  0  0  0  0
    3.5687    0.0407   -0.7287 O   0  0  0  0  0  0  0  0  0  0  0  0
    3.1192   -1.2890    1.2005 C   0  0  0  0  0  0  0  0  0  0  0  0
    2.4217   -0.0839    1.5710 N   0  0  0  0  0  0  0  0  0  0  0  0
    3.1090    0.8563    2.2596 C   0  0  0  0  0  0  0  0  0  0  0  0
    4.3227    0.6839    2.5810 O   0  0  0  0  0  0  0  0  0  0  0  0
    2.4796    1.9878    2.6016 N   0  0  0  0  0  0  0  0  0  0  0  0
    3.2170    3.0144    3.3495 C   0  0  0  0  0  0  0  0  0  0  0  0
    1.1925    2.1668    2.2589 C   0  0  0  0  0  0  0  0  0  0  0  0
    0.6729    3.2297    2.6057 O   0  0  0  0  0  0  0  0  0  0  0  0
    0.4560    1.2286    1.5548 C   0  0  0  0  0  0  0  0  0  0  0  0
    1.1340    0.0729    1.2183 C   0  0  0  0  0  0  0  0  0  0  0  0
    0.2123   -0.6927    0.5508 C   0  0  0  0  0  0  0  0  0  0  0  0
   -1.0146   -0.0537    0.4601 C   0  0  0  0  0  0  0  0  0  0  0  0
   -2.1881   -0.5861   -0.1496 N   0  0  0  0  0  0  0  0  0  0  0  0
   -3.4881   -0.0517   -0.0415 C   0  0  0  0  0  0  0  0  0  0  0  0
   -4.5743   -0.9712   -0.5579 C   0  0  0  0  0  0  0  0  0  0  0  0
   -4.2081   -2.4163   -0.3168 C   0  0  0  0  0  0  0  0  0  0  0  0
   -3.0507   -2.7004   -1.2342 C   0  0  1  0  0  0  0  0  0  0  0  0
   -2.5783   -4.1342   -0.9498 C   0  0  0  0  0  0  0  0  0  0  0  0
   -3.5109   -2.6525   -2.6308 N   0  0  0  0  0  0  0  0  0  0  0  0
   -1.9554   -1.7827   -0.9538 C   0  0  0  0  0  0  0  0  0  0  0  0
   -0.8202    1.1361    1.0907 N   0  0  0  0  0  0  0  0  0  0  0  0
   -1.8019    2.1900    1.1641 C   0  0  0  0  0  0  0  0  0  0  0  0
   -1.6229    3.1867    0.0764 C   0  0  0  0  0  0  0  0  0  0  0  0
   -1.5405    2.7616   -1.2500 C   0  0  0  0  0  0  0  0  0  0  0  0
   -1.2335    3.6506   -2.2786 C   0  0  0  0  0  0  0  0  0  0  0  0
   -1.1470    3.2523   -3.5796 F   0  0  0  0  0  0  0  0  0  0  0  0
   -1.0017    4.9814   -2.0148 C   0  0  0  0  0  0  0  0  0  0  0  0
   -1.0810    5.4152   -0.7188 C   0  0  0  0  0  0  0  0  0  0  0  0
   -1.3882    4.5138    0.2764 C   0  0  0  0  0  0  0  0  0  0  0  0
   -1.6235    5.1510    1.9213 Cl  0  0  0  0  0  0  0  0  0  0  0  0
    5.7136   -3.8396   -0.4226 H   0  0  0  0  0  0  0  0  0  0  0  0
    4.8381   -3.1856    1.0110 H   0  0  0  0  0  0  0  0  0  0  0  0
    3.9763   -4.1157   -0.3170 H   0  0  0  0  0  0  0  0  0  0  0  0
    4.4265   -1.2632   -2.6556 H   0  0  0  0  0  0  0  0  0  0  0  0
    6.0202   -1.1501   -1.8697 H   0  0  0  0  0  0  0  0  0  0  0  0
    5.5136   -2.7621   -2.5140 H   0  0  0  0  0  0  0  0  0  0  0  0
    3.8250   -1.6400    1.9540 H   0  0  0  0  0  0  0  0  0  0  0  0
    2.3909   -2.1207    1.0439 H   0  0  0  0  0  0  0  0  0  0  0  0
    4.2820    2.8558    3.2114 H   0  0  0  0  0  0  0  0  0  0  0  0
    2.8825    4.0226    3.0813 H   0  0  0  0  0  0  0  0  0  0  0  0
    2.9794    2.7821    4.4280 H   0  0  0  0  0  0  0  0  0  0  0  0
    0.4769   -1.6716    0.1616 H   0  0  0  0  0  0  0  0  0  0  0  0
   -3.6009    0.8782   -0.5799 H   0  0  0  0  0  0  0  0  0  0  0  0
   -3.7244   -0.0272    1.0655 H   0  0  0  0  0  0  0  0  0  0  0  0
   -5.5497   -0.8062   -0.0809 H   0  0  0  0  0  0  0  0  0  0  0  0
   -4.7174   -0.8586   -1.6447 H   0  0  0  0  0  0  0  0  0  0  0  0
   -5.0665   -3.0690   -0.5606 H   0  0  0  0  0  0  0  0  0  0  0  0
   -3.8448   -2.5998    0.7248 H   0  0  0  0  0  0  0  0  0  0  0  0
   -1.4747   -4.2107   -0.9907 H   0  0  0  0  0  0  0  0  0  0  0  0
   -2.9664   -4.8462   -1.7029 H   0  0  0  0  0  0  0  0  0  0  0  0
   -2.8730   -4.4203    0.0838 H   0  0  0  0  0  0  0  0  0  0  0  0
   -2.9556   -3.4003   -3.1451 H   0  0  0  0  0  0  0  0  0  0  0  0
   -4.5054   -3.0380   -2.6687 H   0  0  0  0  0  0  0  0  0  0  0  0
   -1.1193   -2.3914   -0.4884 H   0  0  0  0  0  0  0  0  0  0  0  0
   -1.5001   -1.4852   -1.9428 H   0  0  0  0  0  0  0  0  0  0  0  0
   -2.8341    1.9505    1.2184 H   0  0  0  0  0  0  0  0  0  0  0  0
   -1.4861    2.7896    2.0918 H   0  0  0  0  0  0  0  0  0  0  0  0
   -1.6919    1.7472   -1.5643 H   0  0  0  0  0  0  0  0  0  0  0  0
   -0.7512    5.6845   -2.8277 H   0  0  0  0  0  0  0  0  0  0  0  0
   -0.9082    6.4412   -0.4350 H   0  0  0  0  0  0  0  0  0  0  0  0
  1  2  1  0
  2  3  1  0
  2  4  1  0
  4  5  2  0
  4  6  1  0
  6  7  1  0
  7  8  1  0
  8  9  2  0
  8 10  1  0
 10 11  1  0
 10 12  1  0
 12 13  2  0
 12 14  1  0
 14 15  2  0
 15 16  1  0
 16 17  2  0
 17 18  1  0
 18 19  1  0
 19 20  1  0
 20 21  1  0
 21 22  1  0
 22 23  1  0
 22 24  1  6
 22 25  1  0
 17 26  1  0
 26 27  1  0
 27 28  1  0
 28 29  2  0
 29 30  1  0
 30 31  1  0
 30 32  2  0
 32 33  1  0
 33 34  2  0
 34 35  1  0
 15  7  1  0
 25 18  1  0
 34 28  1  0
 26 14  1  0
  1 36  1  0
  1 37  1  0
  1 38  1  0
  3 39  1  0
  3 40  1  0
  3 41  1  0
  6 42  1  0
  6 43  1  0
 11 44  1  0
 11 45  1  0
 11 46  1  0
 16 47  1  0
 19 48  1  0
 19 49  1  0
 20 50  1  0
 20 51  1  0
 21 52  1  0
 21 53  1  0
 23 54  1  0
 23 55  1  0
 23 56  1  0
 24 57  1  0
 24 58  1  0
 25 59  1  0
 25 60  1  0
 27 61  1  0
 27 62  1  0
 29 63  1  0
 32 64  1  0
 33 65  1  0
M  END
$$$$
