@<TRIPOS>MOLECULE
*****
 65 68 0 0 0
SMALL
GASTEIGER

@<TRIPOS>ATOM
      1 C           4.7478   -3.3543   -0.0923 C.3     1  UNL1        0.0029
      2 N           4.5345   -2.0903   -0.7340 N.am    1  UNL1       -0.3061
      3 C           5.1382   -1.8466   -2.0343 C.3     1  UNL1        0.0029
      4 C           3.7472   -1.0642   -0.1403 C.2     1  UNL1        0.2350
      5 O           3.5687    0.0407   -0.7287 O.2     1  UNL1       -0.2737
      6 C           3.1192   -1.2890    1.2005 C.3     1  UNL1        0.1045
      7 N           2.4217   -0.0839    1.5710 N.ar    1  UNL1       -0.2829
      8 C           3.1090    0.8563    2.2596 C.ar    1  UNL1        0.3327
      9 O           4.3227    0.6839    2.5810 O.2     1  UNL1       -0.2462
     10 N           2.4796    1.9878    2.6016 N.ar    1  UNL1       -0.2623
     11 C           3.2170    3.0144    3.3495 C.3     1  UNL1        0.0196
     12 C           1.1925    2.1668    2.2589 C.ar    1  UNL1        0.2806
     13 O           0.6729    3.2297    2.6057 O.2     1  UNL1       -0.2652
     14 C           0.4560    1.2286    1.5548 C.ar    1  UNL1        0.1329
     15 C           1.1340    0.0729    1.2183 C.ar    1  UNL1        0.0788
     16 C           0.2123   -0.6927    0.5508 C.ar    1  UNL1        0.0025
     17 C          -1.0146   -0.0537    0.4601 C.ar    1  UNL1        0.1043
     18 N          -2.1881   -0.5861   -0.1496 N.pl3   1  UNL1       -0.3147
     19 C          -3.4881   -0.0517   -0.0415 C.3     1  UNL1        0.0136
     20 C          -4.5743   -0.9712   -0.5579 C.3     1  UNL1       -0.0355
     21 C          -4.2081   -2.4163   -0.3168 C.3     1  UNL1       -0.0322
     22 C          -3.0507   -2.7004   -1.2342 C.3     1  UNL1        0.0296
     23 C          -2.5783   -4.1342   -0.9498 C.3     1  UNL1       -0.0455
     24 N          -3.5109   -2.6525   -2.6308 N.3     1  UNL1       -0.3236
     25 C          -1.9554   -1.7827   -0.9538 C.3     1  UNL1        0.0313
     26 N          -0.8202    1.1361    1.0907 N.ar    1  UNL1       -0.3187
     27 C          -1.8019    2.1900    1.1641 C.3     1  UNL1        0.0516
     28 C          -1.6229    3.1867    0.0764 C.ar    1  UNL1       -0.0067
     29 C          -1.5405    2.7616   -1.2500 C.ar    1  UNL1       -0.0202
     30 C          -1.2335    3.6506   -2.2786 C.ar    1  UNL1        0.1238
     31 F          -1.1470    3.2523   -3.5796 F       1  UNL1       -0.2055
     32 C          -1.0017    4.9814   -2.0148 C.ar    1  UNL1       -0.0251
     33 C          -1.0810    5.4152   -0.7188 C.ar    1  UNL1       -0.0404
     34 C          -1.3882    4.5138    0.2764 C.ar    1  UNL1        0.0460
     35 CL         -1.6235    5.1510    1.9213 Cl      1  UNL1       -0.0832
     36 H           5.7136   -3.8396   -0.4226 H       1  UNL1        0.0428
     37 H           4.8381   -3.1856    1.0110 H       1  UNL1        0.0428
     38 H           3.9763   -4.1157   -0.3170 H       1  UNL1        0.0428
     39 H           4.4265   -1.2632   -2.6556 H       1  UNL1        0.0428
     40 H           6.0202   -1.1501   -1.8697 H       1  UNL1        0.0428
     41 H           5.5136   -2.7621   -2.5140 H       1  UNL1        0.0428
     42 H           3.8250   -1.6400    1.9540 H       1  UNL1        0.0589
     43 H           2.3909   -2.1207    1.0439 H       1  UNL1        0.0589
     44 H           4.2820    2.8558    3.2114 H       1  UNL1        0.0458
     45 H           2.8825    4.0226    3.0813 H       1  UNL1        0.0458
     46 H           2.9794    2.7821    4.4280 H       1  UNL1        0.0458
     47 H           0.4769   -1.6716    0.1616 H       1  UNL1        0.0673
     48 H          -3.6009    0.8782   -0.5799 H       1  UNL1        0.0464
     49 H          -3.7244   -0.0272    1.0655 H       1  UNL1        0.0464
     50 H          -5.5497   -0.8062   -0.0809 H       1  UNL1        0.0281
     51 H          -4.7174   -0.8586   -1.6447 H       1  UNL1        0.0281
     52 H          -5.0665   -3.0690   -0.5606 H       1  UNL1        0.0284
     53 H          -3.8448   -2.5998    0.7248 H       1  UNL1        0.0284
     54 H          -1.4747   -4.2107   -0.9907 H       1  UNL1        0.0248
     55 H          -2.9664   -4.8462   -1.7029 H       1  UNL1        0.0248
     56 H          -2.8730   -4.4203    0.0838 H       1  UNL1        0.0248
     57 H          -2.9556   -3.4003   -3.1451 H       1  UNL1        0.1188
     58 H          -4.5054   -3.0380   -2.6687 H       1  UNL1        0.1188
     59 H          -1.1193   -2.3914   -0.4884 H       1  UNL1        0.0482
     60 H          -1.5001   -1.4852   -1.9428 H       1  UNL1        0.0482
     61 H          -2.8341    1.9505    1.2184 H       1  UNL1        0.0542
     62 H          -1.4861    2.7896    2.0918 H       1  UNL1        0.0542
     63 H          -1.6919    1.7472   -1.5643 H       1  UNL1        0.0650
     64 H          -0.7512    5.6845   -2.8277 H       1  UNL1        0.0647
     65 H          -0.9082    6.4412   -0.4350 H       1  UNL1        0.0633
@<TRIPOS>BOND
     1     1     2    1
     2     2     3    1
     3     2     4   am
     4     4     5    2
     5     4     6    1
     6     6     7    1
     7     7     8   ar
     8     8     9    2
     9     8    10   ar
    10    10    11    1
    11    10    12   ar
    12    12    13    2
    13    12    14   ar
    14    14    15   ar
    15    15    16   ar
    16    16    17   ar
    17    17    18    1
    18    18    19    1
    19    19    20    1
    20    20    21    1
    21    21    22    1
    22    22    23    1
    23    22    24    1
    24    22    25    1
    25    17    26   ar
    26    26    27    1
    27    27    28    1
    28    28    29   ar
    29    29    30   ar
    30    30    31    1
    31    30    32   ar
    32    32    33   ar
    33    33    34   ar
    34    34    35    1
    35    15     7   ar
    36    25    18    1
    37    34    28   ar
    38    26    14   ar
    39     1    36    1
    40     1    37    1
    41     1    38    1
    42     3    39    1
    43     3    40    1
    44     3    41    1
    45     6    42    1
    46     6    43    1
    47    11    44    1
    48    11    45    1
    49    11    46    1
    50    16    47    1
    51    19    48    1
    52    19    49    1
    53    20    50    1
    54    20    51    1
    55    21    52    1
    56    21    53    1
    57    23    54    1
    58    23    55    1
    59    23    56    1
    60    24    57    1
    61    24    58    1
    62    25    59    1
    63    25    60    1
    64    27    61    1
    65    27    62    1
    66    29    63    1
    67    32    64    1
    68    33    65    1
