@<TRIPOS>MOLECULE
*****
 41 43 0 0 0
SMALL
GASTEIGER

@<TRIPOS>ATOM
      1 C           3.3898    2.2725   -2.4455 C.3     1  UNL1        0.0788
      2 O           3.8362    0.9331   -2.4472 O.3     1  UNL1       -0.4951
      3 C           3.3354    0.0469   -1.5058 C.ar    1  UNL1        0.1204
      4 C           3.7546   -1.2845   -1.4785 C.ar    1  UNL1       -0.0197
      5 C           3.2575   -2.1441   -0.5520 C.ar    1  UNL1       -0.0548
      6 C           2.3292   -1.6853    0.3665 C.ar    1  UNL1       -0.0414
      7 C           1.8885   -0.3796    0.3748 C.ar    1  UNL1       -0.0250
      8 C           2.4116    0.4779   -0.5817 C.ar    1  UNL1       -0.0152
      9 C           0.8948    0.1502    1.3425 C.3     1  UNL1        0.0459
     10 N           0.2811   -0.8730    2.1417 N.3     1  UNL1       -0.1720
     11 S          -1.2690   -0.3579    2.6184 S.O2    1  UNL1        0.0612
     12 O          -1.2046    0.8956    3.4246 O.2     1  UNL1       -0.1528
     13 O          -1.9069   -1.4109    3.4783 O.2     1  UNL1       -0.1528
     14 C          -2.3502   -0.0675    1.2763 C.ar    1  UNL1        0.1063
     15 C          -3.1302   -1.0911    0.7824 C.ar    1  UNL1       -0.0353
     16 C          -3.9854   -0.8531   -0.2805 C.ar    1  UNL1       -0.0591
     17 C          -4.0737    0.4040   -0.8627 C.ar    1  UNL1       -0.0477
     18 C          -3.2968    1.4284   -0.3726 C.ar    1  UNL1        0.0607
     19 C          -3.4091    2.7336   -1.0004 C.2     1  UNL1        0.3369
     20 O          -2.7407    3.7331   -0.6243 O.2     1  UNL1       -0.2451
     21 O          -4.2761    2.9323   -2.0615 O.3     1  UNL1       -0.4771
     22 C          -2.4496    1.1775    0.6863 C.ar    1  UNL1       -0.0214
     23 C           0.2914   -2.1769    1.5538 C.3     1  UNL1        0.0248
     24 C           1.7554   -2.5979    1.4044 C.3     1  UNL1       -0.0129
     25 H           2.3107    2.3579   -2.6587 H       1  UNL1        0.0660
     26 H           3.9122    2.8890   -3.2045 H       1  UNL1        0.0660
     27 H           3.5896    2.6580   -1.4067 H       1  UNL1        0.0660
     28 H           4.4799   -1.5866   -2.2183 H       1  UNL1        0.0654
     29 H           3.5514   -3.1821   -0.4917 H       1  UNL1        0.0622
     30 H           2.0877    1.5298   -0.6120 H       1  UNL1        0.0657
     31 H           0.1175    0.6860    0.7240 H       1  UNL1        0.0493
     32 H           1.3405    0.9102    2.0023 H       1  UNL1        0.0493
     33 H          -3.0588   -2.0865    1.2451 H       1  UNL1        0.0637
     34 H          -4.5847   -1.6741   -0.6468 H       1  UNL1        0.0618
     35 H          -4.7613    0.5672   -1.7065 H       1  UNL1        0.0626
     36 H          -4.1127    3.6575   -2.7770 H       1  UNL1        0.2954
     37 H          -1.8464    2.0187    1.0504 H       1  UNL1        0.0645
     38 H          -0.2759   -2.8561    2.1943 H       1  UNL1        0.0447
     39 H          -0.1913   -2.1390    0.5401 H       1  UNL1        0.0447
     40 H           2.2602   -2.3515    2.3609 H       1  UNL1        0.0326
     41 H           1.8483   -3.6618    1.1191 H       1  UNL1        0.0326
@<TRIPOS>BOND
     1     1     2    1
     2     2     3    1
     3     3     4   ar
     4     4     5   ar
     5     5     6   ar
     6     6     7   ar
     7     7     8   ar
     8     7     9    1
     9     9    10    1
    10    10    11    1
    11    11    12    2
    12    11    13    2
    13    11    14    1
    14    14    15   ar
    15    15    16   ar
    16    16    17   ar
    17    17    18   ar
    18    18    19    1
    19    19    20    2
    20    19    21    1
    21    18    22   ar
    22    10    23    1
    23    23    24    1
    24     8     3   ar
    25    22    14   ar
    26    24     6    1
    27     1    25    1
    28     1    26    1
    29     1    27    1
    30     4    28    1
    31     5    29    1
    32     8    30    1
    33     9    31    1
    34     9    32    1
    35    15    33    1
    36    16    34    1
    37    17    35    1
    38    21    36    1
    39    22    37    1
    40    23    38    1
    41    23    39    1
    42    24    40    1
    43    24    41    1
