
     RDKit          3D

 41 43  0  0  0  0  0  0  0  0999 V2000
    3.3898    2.2725   -2.4455 C   0  0  0  0  0  0  0  0  0  0  0  0
    3.8362    0.9331   -2.4472 O   0  0  0  0  0  0  0  0  0  0  0  0
    3.3354    0.0469   -1.5058 C   0  0  0  0  0  0  0  0  0  0  0  0
    3.7546   -1.2845   -1.4785 C   0  0  0  0  0  0  0  0  0  0  0  0
    3.2575   -2.1441   -0.5520 C   0  0  0  0  0  0  0  0  0  0  0  0
    2.3292   -1.6853    0.3665 C   0  0  0  0  0  0  0  0  0  0  0  0
    1.8885   -0.3796    0.3748 C   0  0  0  0  0  0  0  0  0  0  0  0
    2.4116    0.4779   -0.5817 C   0  0  0  0  0  0  0  0  0  0  0  0
    0.8948    0.1502    1.3425 C   0  0  0  0  0  0  0  0  0  0  0  0
    0.2811   -0.8730    2.1417 N   0  0  0  0  0  0  0  0  0  0  0  0
   -1.2690   -0.3579    2.6184 S   0  0  0  0  0  6  0  0  0  0  0  0
   -1.2046    0.8956    3.4246 O   0  0  0  0  0  0  0  0  0  0  0  0
   -1.9069   -1.4109    3.4783 O   0  0  0  0  0  0  0  0  0  0  0  0
   -2.3502   -0.0675    1.2763 C   0  0  0  0  0  0  0  0  0  0  0  0
   -3.1302   -1.0911    0.7824 C   0  0  0  0  0  0  0  0  0  0  0  0
   -3.9854   -0.8531   -0.2805 C   0  0  0  0  0  0  0  0  0  0  0  0
   -4.0737    0.4040   -0.8627 C   0  0  0  0  0  0  0  0  0  0  0  0
   -3.2968    1.4284   -0.3726 C   0  0  0  0  0  0  0  0  0  0  0  0
   -3.4091    2.7336   -1.0004 C   0  0  0  0  0  0  0  0  0  0  0  0
   -2.7407    3.7331   -0.6243 O   0  0  0  0  0  0  0  0  0  0  0  0
   -4.2761    2.9323   -2.0615 O   0  0  0  0  0  0  0  0  0  0  0  0
   -2.4496    1.1775    0.6863 C   0  0  0  0  0  0  0  0  0  0  0  0
    0.2914   -2.1769    1.5538 C   0  0  0  0  0  0  0  0  0  0  0  0
    1.7554   -2.5979    1.4044 C   0  0  0  0  0  0  0  0  0  0  0  0
    2.3107    2.3579   -2.6587 H   0  0  0  0  0  0  0  0  0  0  0  0
    3.9122    2.8890   -3.2045 H   0  0  0  0  0  0  0  0  0  0  0  0
    3.5896    2.6580   -1.4067 H   0  0  0  0  0  0  0  0  0  0  0  0
    4.4799   -1.5866   -2.2183 H   0  0  0  0  0  0  0  0  0  0  0  0
    3.5514   -3.1821   -0.4917 H   0  0  0  0  0  0  0  0  0  0  0  0
    2.0877    1.5298   -0.6120 H   0  0  0  0  0  0  0  0  0  0  0  0
    0.1175    0.6860    0.7240 H   0  0  0  0  0  0  0  0  0  0  0  0
    1.3405    0.9102    2.0023 H   0  0  0  0  0  0  0  0  0  0  0  0
   -3.0588   -2.0865    1.2451 H   0  0  0  0  0  0  0  0  0  0  0  0
   -4.5847   -1.6741   -0.6468 H   0  0  0  0  0  0  0  0  0  0  0  0
   -4.7613    0.5672   -1.7065 H   0  0  0  0  0  0  0  0  0  0  0  0
   -4.1127    3.6575   -2.7770 H   0  0  0  0  0  0  0  0  0  0  0  0
   -1.8464    2.0187    1.0504 H   0  0  0  0  0  0  0  0  0  0  0  0
   -0.2759   -2.8561    2.1943 H   0  0  0  0  0  0  0  0  0  0  0  0
   -0.1913   -2.1390    0.5401 H   0  0  0  0  0  0  0  0  0  0  0  0
    2.2602   -2.3515    2.3609 H   0  0  0  0  0  0  0  0  0  0  0  0
    1.8483   -3.6618    1.1191 H   0  0  0  0  0  0  0  0  0  0  0  0
  1  2  1  0
  2  3  1  0
  3  4  2  0
  4  5  1  0
  5  6  2  0
  6  7  1  0
  7  8  2  0
  7  9  1  0
  9 10  1  0
 10 11  1  0
 11 12  2  0
 11 13  2  0
 11 14  1  0
 14 15  2  0
 15 16  1  0
 16 17  2  0
 17 18  1  0
 18 19  1  0
 19 20  2  0
 19 21  1  0
 18 22  2  0
 10 23  1  0
 23 24  1  0
  8  3  1  0
 22 14  1  0
 24  6  1  0
  1 25  1  0
  1 26  1  0
  1 27  1  0
  4 28  1  0
  5 29  1  0
  8 30  1  0
  9 31  1  0
  9 32  1  0
 15 33  1  0
 16 34  1  0
 17 35  1  0
 21 36  1  0
 22 37  1  0
 23 38  1  0
 23 39  1  0
 24 40  1  0
 24 41  1  0
M  END
$$$$
