
     RDKit          3D

 65 69  0  0  0  0  0  0  0  0999 V2000
    2.2507    2.5007    0.3891 C   0  0  0  0  0  0  0  0  0  0  0  0
    1.7725    2.3331   -0.9794 C   0  0  0  0  0  0  0  0  0  0  0  0
    2.3333    3.2099   -1.9266 C   0  0  0  0  0  0  0  0  0  0  0  0
    1.9332    3.1565   -3.2372 C   0  0  0  0  0  0  0  0  0  0  0  0
    0.9950    2.2563   -3.6193 C   0  0  0  0  0  0  0  0  0  0  0  0
    0.4666    1.4194   -2.6920 C   0  0  0  0  0  0  0  0  0  0  0  0
    0.8201    1.4079   -1.3323 C   0  0  0  0  0  0  0  0  0  0  0  0
    0.1920    0.4241   -0.4059 C   0  0  0  0  0  0  0  0  0  0  0  0
    1.1240   -0.3408    0.4193 C   0  0  0  0  0  0  0  0  0  0  0  0
    0.9185   -0.5872    1.6165 O   0  0  0  0  0  0  0  0  0  0  0  0
    2.3114   -0.8228   -0.1724 N   0  0  0  0  0  0  0  0  0  0  0  0
    3.3025   -1.5901    0.5475 C   0  0  0  0  0  0  0  0  0  0  0  0
    4.6487   -0.9200    0.4059 C   0  0  0  0  0  0  0  0  0  0  0  0
    5.6756   -1.9977    0.6001 C   0  0  0  0  0  0  0  0  0  0  0  0
    4.9897   -3.3000    0.3226 C   0  0  0  0  0  0  0  0  0  0  0  0
    3.5603   -2.9397   -0.0826 C   0  0  0  0  0  0  0  0  0  0  0  0
   -0.9599    0.9412    0.2583 N   0  0  0  0  0  0  0  0  0  0  0  0
   -2.2051    0.3243   -0.0358 C   0  0  0  0  0  0  0  0  0  0  0  0
   -3.2500    0.7595    0.5066 O   0  0  0  0  0  0  0  0  0  0  0  0
   -2.3499   -0.8274   -0.9629 C   0  0  0  0  0  0  0  0  0  0  0  0
   -3.7258   -1.2722   -1.0293 N   0  0  0  0  0  0  0  0  0  0  0  0
   -4.6494   -0.8294   -1.8824 C   0  0  0  0  0  0  0  0  0  0  0  0
   -5.8297   -1.4720   -1.6570 N   0  0  0  0  0  0  0  0  0  0  0  0
   -5.6272   -2.3229   -0.6492 C   0  0  0  0  0  0  0  0  0  0  0  0
   -6.4621   -3.2077   -0.0223 C   0  0  0  0  0  0  0  0  0  0  0  0
   -5.9862   -3.9824    1.0115 C   0  0  0  0  0  0  0  0  0  0  0  0
   -4.6733   -3.8720    1.4189 C   0  0  0  0  0  0  0  0  0  0  0  0
   -3.8490   -2.9746    0.7739 C   0  0  0  0  0  0  0  0  0  0  0  0
   -4.2946   -2.1955   -0.2524 C   0  0  0  0  0  0  0  0  0  0  0  0
   -1.0017    2.0275    1.1669 C   0  0  0  0  0  0  0  0  0  0  0  0
   -0.9168    1.9341    2.5265 C   0  0  0  0  0  0  0  0  0  0  0  0
   -0.9603    3.0443    3.3412 C   0  0  0  0  0  0  0  0  0  0  0  0
   -1.0954    4.3270    2.7979 C   0  0  0  0  0  0  0  0  0  0  0  0
   -1.1832    4.4409    1.4225 C   0  0  0  0  0  0  0  0  0  0  0  0
   -1.3158    5.6899    0.8816 F   0  0  0  0  0  0  0  0  0  0  0  0
   -1.1367    3.3274    0.6523 C   0  0  0  0  0  0  0  0  0  0  0  0
    3.3327    2.8602    0.3566 H   0  0  0  0  0  0  0  0  0  0  0  0
    1.7441    3.4067    0.8430 H   0  0  0  0  0  0  0  0  0  0  0  0
    2.2733    1.6549    1.0431 H   0  0  0  0  0  0  0  0  0  0  0  0
    3.0923    3.9342   -1.6044 H   0  0  0  0  0  0  0  0  0  0  0  0
    2.4020    3.8643   -3.9401 H   0  0  0  0  0  0  0  0  0  0  0  0
    0.6980    2.2410   -4.6764 H   0  0  0  0  0  0  0  0  0  0  0  0
   -0.2824    0.7110   -3.0432 H   0  0  0  0  0  0  0  0  0  0  0  0
   -0.1827   -0.4016   -1.0936 H   0  0  0  0  0  0  0  0  0  0  0  0
    2.5001   -0.6258   -1.1769 H   0  0  0  0  0  0  0  0  0  0  0  0
    2.9862   -1.7036    1.5827 H   0  0  0  0  0  0  0  0  0  0  0  0
    4.7452   -0.5288   -0.6319 H   0  0  0  0  0  0  0  0  0  0  0  0
    4.8014   -0.1008    1.1428 H   0  0  0  0  0  0  0  0  0  0  0  0
    6.1322   -1.9780    1.6120 H   0  0  0  0  0  0  0  0  0  0  0  0
    6.5309   -1.8598   -0.1133 H   0  0  0  0  0  0  0  0  0  0  0  0
    5.5079   -3.8660   -0.4749 H   0  0  0  0  0  0  0  0  0  0  0  0
    4.9803   -3.9704    1.2224 H   0  0  0  0  0  0  0  0  0  0  0  0
    3.5250   -2.9428   -1.1698 H   0  0  0  0  0  0  0  0  0  0  0  0
    2.8907   -3.6642    0.4166 H   0  0  0  0  0  0  0  0  0  0  0  0
   -1.9799   -0.5499   -1.9957 H   0  0  0  0  0  0  0  0  0  0  0  0
   -1.7338   -1.6823   -0.6480 H   0  0  0  0  0  0  0  0  0  0  0  0
   -4.5275   -0.0874   -2.6413 H   0  0  0  0  0  0  0  0  0  0  0  0
   -7.4877   -3.3157   -0.3170 H   0  0  0  0  0  0  0  0  0  0  0  0
   -6.6482   -4.6882    1.5132 H   0  0  0  0  0  0  0  0  0  0  0  0
   -4.2689   -4.4715    2.2334 H   0  0  0  0  0  0  0  0  0  0  0  0
   -2.8039   -2.8575    1.0666 H   0  0  0  0  0  0  0  0  0  0  0  0
   -0.8195    0.9677    2.9760 H   0  0  0  0  0  0  0  0  0  0  0  0
   -0.8887    2.9223    4.4190 H   0  0  0  0  0  0  0  0  0  0  0  0
   -1.1331    5.2182    3.4058 H   0  0  0  0  0  0  0  0  0  0  0  0
   -1.2079    3.4438   -0.4265 H   0  0  0  0  0  0  0  0  0  0  0  0
  1  2  1  0
  2  3  2  0
  3  4  1  0
  4  5  2  0
  5  6  1  0
  6  7  2  0
  7  8  1  0
  8  9  1  0
  9 10  2  0
  9 11  1  0
 11 12  1  0
 12 13  1  0
 13 14  1  0
 14 15  1  0
 15 16  1  0
  8 17  1  0
 17 18  1  0
 18 19  2  0
 18 20  1  0
 20 21  1  0
 21 22  1  0
 22 23  2  0
 23 24  1  0
 24 25  2  0
 25 26  1  0
 26 27  2  0
 27 28  1  0
 28 29  2  0
 17 30  1  0
 30 31  2  0
 31 32  1  0
 32 33  2  0
 33 34  1  0
 34 35  1  0
 34 36  2  0
  7  2  1  0
 16 12  1  0
 29 21  1  0
 36 30  1  0
 29 24  1  0
  1 37  1  0
  1 38  1  0
  1 39  1  0
  3 40  1  0
  4 41  1  0
  5 42  1  0
  6 43  1  0
  8 44  1  0
 11 45  1  0
 12 46  1  0
 13 47  1  0
 13 48  1  0
 14 49  1  0
 14 50  1  0
 15 51  1  0
 15 52  1  0
 16 53  1  0
 16 54  1  0
 20 55  1  0
 20 56  1  0
 22 57  1  0
 25 58  1  0
 26 59  1  0
 27 60  1  0
 28 61  1  0
 31 62  1  0
 32 63  1  0
 33 64  1  0
 36 65  1  0
M  END
$$$$
