@<TRIPOS>MOLECULE
*****
 65 69 0 0 0
SMALL
GASTEIGER

@<TRIPOS>ATOM
      1 C           2.2507    2.5007    0.3891 C.3     1  UNL1       -0.0394
      2 C           1.7725    2.3331   -0.9794 C.ar    1  UNL1       -0.0450
      3 C           2.3333    3.2099   -1.9266 C.ar    1  UNL1       -0.0585
      4 C           1.9332    3.1565   -3.2372 C.ar    1  UNL1       -0.0615
      5 C           0.9950    2.2563   -3.6193 C.ar    1  UNL1       -0.0614
      6 C           0.4666    1.4194   -2.6920 C.ar    1  UNL1       -0.0561
      7 C           0.8201    1.4079   -1.3323 C.ar    1  UNL1       -0.0150
      8 C           0.1920    0.4241   -0.4059 C.3     1  UNL1        0.1323
      9 C           1.1240   -0.3408    0.4193 C.2     1  UNL1        0.2387
     10 O           0.9185   -0.5872    1.6165 O.2     1  UNL1       -0.2734
     11 N           2.3114   -0.8228   -0.1724 N.am    1  UNL1       -0.3106
     12 C           3.3025   -1.5901    0.5475 C.3     1  UNL1        0.0232
     13 C           4.6487   -0.9200    0.4059 C.3     1  UNL1       -0.0345
     14 C           5.6756   -1.9977    0.6001 C.3     1  UNL1       -0.0513
     15 C           4.9897   -3.3000    0.3226 C.3     1  UNL1       -0.0513
     16 C           3.5603   -2.9397   -0.0826 C.3     1  UNL1       -0.0345
     17 N          -0.9599    0.9412    0.2583 N.am    1  UNL1       -0.2538
     18 C          -2.2051    0.3243   -0.0358 C.2     1  UNL1        0.2405
     19 O          -3.2500    0.7595    0.5066 O.2     1  UNL1       -0.2733
     20 C          -2.3499   -0.8274   -0.9629 C.3     1  UNL1        0.1014
     21 N          -3.7258   -1.2722   -1.0293 N.ar    1  UNL1       -0.3211
     22 C          -4.6494   -0.8294   -1.8824 C.ar    1  UNL1        0.0975
     23 N          -5.8297   -1.4720   -1.6570 N.ar    1  UNL1       -0.2357
     24 C          -5.6272   -2.3229   -0.6492 C.ar    1  UNL1        0.0890
     25 C          -6.4621   -3.2077   -0.0223 C.ar    1  UNL1       -0.0342
     26 C          -5.9862   -3.9824    1.0115 C.ar    1  UNL1       -0.0596
     27 C          -4.6733   -3.8720    1.4189 C.ar    1  UNL1       -0.0597
     28 C          -3.8490   -2.9746    0.7739 C.ar    1  UNL1       -0.0361
     29 C          -4.2946   -2.1955   -0.2524 C.ar    1  UNL1        0.0690
     30 C          -1.0017    2.0275    1.1669 C.ar    1  UNL1        0.0402
     31 C          -0.9168    1.9341    2.5265 C.ar    1  UNL1       -0.0401
     32 C          -0.9603    3.0443    3.3412 C.ar    1  UNL1       -0.0573
     33 C          -1.0954    4.3270    2.7979 C.ar    1  UNL1       -0.0263
     34 C          -1.1832    4.4409    1.4225 C.ar    1  UNL1        0.1252
     35 F          -1.3158    5.6899    0.8816 F       1  UNL1       -0.2054
     36 C          -1.1367    3.3274    0.6523 C.ar    1  UNL1       -0.0050
     37 H           3.3327    2.8602    0.3566 H       1  UNL1        0.0278
     38 H           1.7441    3.4067    0.8430 H       1  UNL1        0.0278
     39 H           2.2733    1.6549    1.0431 H       1  UNL1        0.0278
     40 H           3.0923    3.9342   -1.6044 H       1  UNL1        0.0620
     41 H           2.4020    3.8643   -3.9401 H       1  UNL1        0.0618
     42 H           0.6980    2.2410   -4.6764 H       1  UNL1        0.0618
     43 H          -0.2824    0.7110   -3.0432 H       1  UNL1        0.0621
     44 H          -0.1827   -0.4016   -1.0936 H       1  UNL1        0.0651
     45 H           2.5001   -0.6258   -1.1769 H       1  UNL1        0.1490
     46 H           2.9862   -1.7036    1.5827 H       1  UNL1        0.0498
     47 H           4.7452   -0.5288   -0.6319 H       1  UNL1        0.0283
     48 H           4.8014   -0.1008    1.1428 H       1  UNL1        0.0283
     49 H           6.1322   -1.9780    1.6120 H       1  UNL1        0.0266
     50 H           6.5309   -1.8598   -0.1133 H       1  UNL1        0.0266
     51 H           5.5079   -3.8660   -0.4749 H       1  UNL1        0.0266
     52 H           4.9803   -3.9704    1.2224 H       1  UNL1        0.0266
     53 H           3.5250   -2.9428   -1.1698 H       1  UNL1        0.0283
     54 H           2.8907   -3.6642    0.4166 H       1  UNL1        0.0283
     55 H          -1.9799   -0.5499   -1.9957 H       1  UNL1        0.0588
     56 H          -1.7338   -1.6823   -0.6480 H       1  UNL1        0.0588
     57 H          -4.5275   -0.0874   -2.6413 H       1  UNL1        0.1029
     58 H          -7.4877   -3.3157   -0.3170 H       1  UNL1        0.0639
     59 H          -6.6482   -4.6882    1.5132 H       1  UNL1        0.0618
     60 H          -4.2689   -4.4715    2.2334 H       1  UNL1        0.0618
     61 H          -2.8039   -2.8575    1.0666 H       1  UNL1        0.0639
     62 H          -0.8195    0.9677    2.9760 H       1  UNL1        0.0636
     63 H          -0.8887    2.9223    4.4190 H       1  UNL1        0.0619
     64 H          -1.1331    5.2182    3.4058 H       1  UNL1        0.0646
     65 H          -1.2079    3.4438   -0.4265 H       1  UNL1        0.0665
@<TRIPOS>BOND
     1     1     2    1
     2     2     3   ar
     3     3     4   ar
     4     4     5   ar
     5     5     6   ar
     6     6     7   ar
     7     7     8    1
     8     8     9    1
     9     9    10    2
    10     9    11   am
    11    11    12    1
    12    12    13    1
    13    13    14    1
    14    14    15    1
    15    15    16    1
    16     8    17    1
    17    17    18   am
    18    18    19    2
    19    18    20    1
    20    20    21    1
    21    21    22   ar
    22    22    23   ar
    23    23    24   ar
    24    24    25   ar
    25    25    26   ar
    26    26    27   ar
    27    27    28   ar
    28    28    29   ar
    29    17    30    1
    30    30    31   ar
    31    31    32   ar
    32    32    33   ar
    33    33    34   ar
    34    34    35    1
    35    34    36   ar
    36     7     2   ar
    37    16    12    1
    38    29    21   ar
    39    36    30   ar
    40    29    24   ar
    41     1    37    1
    42     1    38    1
    43     1    39    1
    44     3    40    1
    45     4    41    1
    46     5    42    1
    47     6    43    1
    48     8    44    1
    49    11    45    1
    50    12    46    1
    51    13    47    1
    52    13    48    1
    53    14    49    1
    54    14    50    1
    55    15    51    1
    56    15    52    1
    57    16    53    1
    58    16    54    1
    59    20    55    1
    60    20    56    1
    61    22    57    1
    62    25    58    1
    63    26    59    1
    64    27    60    1
    65    28    61    1
    66    31    62    1
    67    32    63    1
    68    33    64    1
    69    36    65    1
