@<TRIPOS>MOLECULE
*****
 69 73 0 0 0
SMALL
GASTEIGER

@<TRIPOS>ATOM
      1 C           1.8011    2.5610   -2.2339 C.3     1  UNL1       -0.0362
      2 C           2.9487    2.2326   -1.3534 C.ar    1  UNL1       -0.0062
      3 C           4.0967    2.9845   -1.4256 C.ar    1  UNL1        0.0361
      4 N           5.1217    2.6664   -0.6087 N.ar    1  UNL1       -0.2224
      5 C           5.0086    1.6373    0.2487 C.ar    1  UNL1        0.2201
      6 N           6.1060    1.3401    1.0861 N.pl3   1  UNL1       -0.2809
      7 C           7.1165    0.3939    0.7481 C.ar    1  UNL1        0.0744
      8 C           7.2003   -0.3800   -0.3751 C.ar    1  UNL1        0.0467
      9 N           8.3090   -1.1206   -0.2625 N.ar    1  UNL1       -0.2724
     10 C           8.8225   -2.0991   -1.2133 C.3     1  UNL1        0.0303
     11 N           8.9245   -0.8401    0.8915 N.ar    1  UNL1       -0.1748
     12 C           8.2001    0.0877    1.5167 C.ar    1  UNL1        0.0811
     13 C           8.5669    0.6659    2.8500 C.3     1  UNL1       -0.0188
     14 N           3.8685    0.8886    0.3213 N.ar    1  UNL1       -0.2139
     15 C           2.8288    1.1787   -0.4781 C.ar    1  UNL1        0.0809
     16 C           1.5919    0.4162   -0.4478 C.ar    1  UNL1        0.0258
     17 C           0.9256   -0.1785   -1.5030 C.ar    1  UNL1        0.0120
     18 N          -0.1732   -0.7804   -1.0358 N.ar    1  UNL1       -0.3586
     19 C          -0.2706   -0.6141    0.2823 C.ar    1  UNL1        0.0686
     20 C          -1.2053   -1.0410    1.1862 C.ar    1  UNL1        0.0576
     21 N          -2.3175   -1.8009    0.7455 N.am    1  UNL1       -0.2825
     22 C          -3.4954   -1.0863    0.3812 C.2     1  UNL1        0.2342
     23 O          -3.4940    0.1585    0.4656 O.2     1  UNL1       -0.2738
     24 C          -4.6826   -1.8449   -0.0858 C.3     1  UNL1        0.0848
     25 C          -5.0604   -2.8472    0.9915 C.3     1  UNL1       -0.0409
     26 N          -5.7250   -0.9530   -0.4113 N.3     1  UNL1       -0.2893
     27 C          -5.5427   -0.0547   -1.4876 C.3     1  UNL1        0.0124
     28 C          -6.2869    1.2349   -1.2038 C.3     1  UNL1        0.0114
     29 N          -7.5012    1.0378   -0.4806 N.3     1  UNL1       -0.3029
     30 C          -7.4557    1.5207    0.8841 C.3     1  UNL1       -0.0127
     31 C          -8.0613   -0.2897   -0.5690 C.3     1  UNL1        0.0114
     32 C          -7.0631   -1.3690   -0.1718 C.3     1  UNL1        0.0124
     33 C          -1.0742   -0.7336    2.5116 C.ar    1  UNL1       -0.0384
     34 C           0.0086    0.0093    2.9244 C.ar    1  UNL1       -0.0593
     35 C           0.9489    0.4399    2.0247 C.ar    1  UNL1       -0.0518
     36 C           0.8317    0.1398    0.6900 C.ar    1  UNL1        0.0107
     37 H           1.9835    2.0460   -3.2003 H       1  UNL1        0.0279
     38 H           1.7436    3.6636   -2.4391 H       1  UNL1        0.0279
     39 H           0.8374    2.2691   -1.7789 H       1  UNL1        0.0279
     40 H           4.2109    3.8196   -2.1101 H       1  UNL1        0.0834
     41 H           6.1541    1.8581    1.9980 H       1  UNL1        0.1551
     42 H           6.4799   -0.3667   -1.1859 H       1  UNL1        0.0845
     43 H           8.1042   -2.3009   -2.0203 H       1  UNL1        0.0473
     44 H           9.7717   -1.7726   -1.6640 H       1  UNL1        0.0473
     45 H           9.0200   -3.0795   -0.7218 H       1  UNL1        0.0473
     46 H           9.6615    0.6012    3.0349 H       1  UNL1        0.0294
     47 H           8.3030    1.7472    2.8702 H       1  UNL1        0.0294
     48 H           8.0441    0.1198    3.6729 H       1  UNL1        0.0294
     49 H           1.2634   -0.1454   -2.5264 H       1  UNL1        0.0814
     50 H          -0.8382   -1.3011   -1.6625 H       1  UNL1        0.1654
     51 H          -2.2285   -2.8290    0.7074 H       1  UNL1        0.1549
     52 H          -4.3247   -2.4630   -0.9424 H       1  UNL1        0.0556
     53 H          -4.9446   -2.4469    2.0200 H       1  UNL1        0.0249
     54 H          -4.3560   -3.7173    0.9191 H       1  UNL1        0.0249
     55 H          -6.0786   -3.2618    0.8273 H       1  UNL1        0.0249
     56 H          -5.8896   -0.4411   -2.4712 H       1  UNL1        0.0439
     57 H          -4.4739    0.1911   -1.6040 H       1  UNL1        0.0439
     58 H          -5.6352    1.9268   -0.5955 H       1  UNL1        0.0439
     59 H          -6.4785    1.7334   -2.1620 H       1  UNL1        0.0439
     60 H          -8.4898    1.5611    1.2760 H       1  UNL1        0.0391
     61 H          -6.8053    0.8907    1.5260 H       1  UNL1        0.0391
     62 H          -7.0580    2.5616    0.8398 H       1  UNL1        0.0391
     63 H          -8.9340   -0.3198    0.1130 H       1  UNL1        0.0439
     64 H          -8.3954   -0.4949   -1.6069 H       1  UNL1        0.0439
     65 H          -7.2088   -1.5339    0.9117 H       1  UNL1        0.0439
     66 H          -7.3634   -2.2893   -0.7141 H       1  UNL1        0.0439
     67 H          -1.7945   -1.0565    3.2434 H       1  UNL1        0.0637
     68 H           0.1142    0.2518    3.9720 H       1  UNL1        0.0618
     69 H           1.7887    1.0177    2.3583 H       1  UNL1        0.0624
@<TRIPOS>BOND
     1     1     2    1
     2     2     3   ar
     3     3     4   ar
     4     4     5   ar
     5     5     6    1
     6     6     7    1
     7     7     8   ar
     8     8     9   ar
     9     9    10    1
    10     9    11   ar
    11    11    12   ar
    12    12    13    1
    13     5    14   ar
    14    14    15   ar
    15    15    16    1
    16    16    17   ar
    17    17    18   ar
    18    18    19   ar
    19    19    20   ar
    20    20    21    1
    21    21    22   am
    22    22    23    2
    23    22    24    1
    24    24    25    1
    25    24    26    1
    26    26    27    1
    27    27    28    1
    28    28    29    1
    29    29    30    1
    30    29    31    1
    31    31    32    1
    32    20    33   ar
    33    33    34   ar
    34    34    35   ar
    35    35    36   ar
    36    15     2   ar
    37    36    16   ar
    38    12     7   ar
    39    36    19   ar
    40    32    26    1
    41     1    37    1
    42     1    38    1
    43     1    39    1
    44     3    40    1
    45     6    41    1
    46     8    42    1
    47    10    43    1
    48    10    44    1
    49    10    45    1
    50    13    46    1
    51    13    47    1
    52    13    48    1
    53    17    49    1
    54    18    50    1
    55    21    51    1
    56    24    52    1
    57    25    53    1
    58    25    54    1
    59    25    55    1
    60    27    56    1
    61    27    57    1
    62    28    58    1
    63    28    59    1
    64    30    60    1
    65    30    61    1
    66    30    62    1
    67    31    63    1
    68    31    64    1
    69    32    65    1
    70    32    66    1
    71    33    67    1
    72    34    68    1
    73    35    69    1
