
     RDKit          3D

 69 73  0  0  0  0  0  0  0  0999 V2000
    1.8011    2.5610   -2.2339 C   0  0  0  0  0  0  0  0  0  0  0  0
    2.9487    2.2326   -1.3534 C   0  0  0  0  0  0  0  0  0  0  0  0
    4.0967    2.9845   -1.4256 C   0  0  0  0  0  0  0  0  0  0  0  0
    5.1217    2.6664   -0.6087 N   0  0  0  0  0  0  0  0  0  0  0  0
    5.0086    1.6373    0.2487 C   0  0  0  0  0  0  0  0  0  0  0  0
    6.1060    1.3401    1.0861 N   0  0  0  0  0  0  0  0  0  0  0  0
    7.1165    0.3939    0.7481 C   0  0  0  0  0  0  0  0  0  0  0  0
    7.2003   -0.3800   -0.3751 C   0  0  0  0  0  0  0  0  0  0  0  0
    8.3090   -1.1206   -0.2625 N   0  0  0  0  0  0  0  0  0  0  0  0
    8.8225   -2.0991   -1.2133 C   0  0  0  0  0  0  0  0  0  0  0  0
    8.9245   -0.8401    0.8915 N   0  0  0  0  0  0  0  0  0  0  0  0
    8.2001    0.0877    1.5167 C   0  0  0  0  0  0  0  0  0  0  0  0
    8.5669    0.6659    2.8500 C   0  0  0  0  0  0  0  0  0  0  0  0
    3.8685    0.8886    0.3213 N   0  0  0  0  0  0  0  0  0  0  0  0
    2.8288    1.1787   -0.4781 C   0  0  0  0  0  0  0  0  0  0  0  0
    1.5919    0.4162   -0.4478 C   0  0  0  0  0  0  0  0  0  0  0  0
    0.9256   -0.1785   -1.5030 C   0  0  0  0  0  0  0  0  0  0  0  0
   -0.1732   -0.7804   -1.0358 N   0  0  0  0  0  0  0  0  0  0  0  0
   -0.2706   -0.6141    0.2823 C   0  0  0  0  0  0  0  0  0  0  0  0
   -1.2053   -1.0410    1.1862 C   0  0  0  0  0  0  0  0  0  0  0  0
   -2.3175   -1.8009    0.7455 N   0  0  0  0  0  0  0  0  0  0  0  0
   -3.4954   -1.0863    0.3812 C   0  0  0  0  0  0  0  0  0  0  0  0
   -3.4940    0.1585    0.4656 O   0  0  0  0  0  0  0  0  0  0  0  0
   -4.6826   -1.8449   -0.0858 C   0  0  1  0  0  0  0  0  0  0  0  0
   -5.0604   -2.8472    0.9915 C   0  0  0  0  0  0  0  0  0  0  0  0
   -5.7250   -0.9530   -0.4113 N   0  0  0  0  0  0  0  0  0  0  0  0
   -5.5427   -0.0547   -1.4876 C   0  0  0  0  0  0  0  0  0  0  0  0
   -6.2869    1.2349   -1.2038 C   0  0  0  0  0  0  0  0  0  0  0  0
   -7.5012    1.0378   -0.4806 N   0  0  0  0  0  0  0  0  0  0  0  0
   -7.4557    1.5207    0.8841 C   0  0  0  0  0  0  0  0  0  0  0  0
   -8.0613   -0.2897   -0.5690 C   0  0  0  0  0  0  0  0  0  0  0  0
   -7.0631   -1.3690   -0.1718 C   0  0  0  0  0  0  0  0  0  0  0  0
   -1.0742   -0.7336    2.5116 C   0  0  0  0  0  0  0  0  0  0  0  0
    0.0086    0.0093    2.9244 C   0  0  0  0  0  0  0  0  0  0  0  0
    0.9489    0.4399    2.0247 C   0  0  0  0  0  0  0  0  0  0  0  0
    0.8317    0.1398    0.6900 C   0  0  0  0  0  0  0  0  0  0  0  0
    1.9835    2.0460   -3.2003 H   0  0  0  0  0  0  0  0  0  0  0  0
    1.7436    3.6636   -2.4391 H   0  0  0  0  0  0  0  0  0  0  0  0
    0.8374    2.2691   -1.7789 H   0  0  0  0  0  0  0  0  0  0  0  0
    4.2109    3.8196   -2.1101 H   0  0  0  0  0  0  0  0  0  0  0  0
    6.1541    1.8581    1.9980 H   0  0  0  0  0  0  0  0  0  0  0  0
    6.4799   -0.3667   -1.1859 H   0  0  0  0  0  0  0  0  0  0  0  0
    8.1042   -2.3009   -2.0203 H   0  0  0  0  0  0  0  0  0  0  0  0
    9.7717   -1.7726   -1.6640 H   0  0  0  0  0  0  0  0  0  0  0  0
    9.0200   -3.0795   -0.7218 H   0  0  0  0  0  0  0  0  0  0  0  0
    9.6615    0.6012    3.0349 H   0  0  0  0  0  0  0  0  0  0  0  0
    8.3030    1.7472    2.8702 H   0  0  0  0  0  0  0  0  0  0  0  0
    8.0441    0.1198    3.6729 H   0  0  0  0  0  0  0  0  0  0  0  0
    1.2634   -0.1454   -2.5264 H   0  0  0  0  0  0  0  0  0  0  0  0
   -0.8382   -1.3011   -1.6625 H   0  0  0  0  0  0  0  0  0  0  0  0
   -2.2285   -2.8290    0.7074 H   0  0  0  0  0  0  0  0  0  0  0  0
   -4.3247   -2.4630   -0.9424 H   0  0  0  0  0  0  0  0  0  0  0  0
   -4.9446   -2.4469    2.0200 H   0  0  0  0  0  0  0  0  0  0  0  0
   -4.3560   -3.7173    0.9191 H   0  0  0  0  0  0  0  0  0  0  0  0
   -6.0786   -3.2618    0.8273 H   0  0  0  0  0  0  0  0  0  0  0  0
   -5.8896   -0.4411   -2.4712 H   0  0  0  0  0  0  0  0  0  0  0  0
   -4.4739    0.1911   -1.6040 H   0  0  0  0  0  0  0  0  0  0  0  0
   -5.6352    1.9268   -0.5955 H   0  0  0  0  0  0  0  0  0  0  0  0
   -6.4785    1.7334   -2.1620 H   0  0  0  0  0  0  0  0  0  0  0  0
   -8.4898    1.5611    1.2760 H   0  0  0  0  0  0  0  0  0  0  0  0
   -6.8053    0.8907    1.5260 H   0  0  0  0  0  0  0  0  0  0  0  0
   -7.0580    2.5616    0.8398 H   0  0  0  0  0  0  0  0  0  0  0  0
   -8.9340   -0.3198    0.1130 H   0  0  0  0  0  0  0  0  0  0  0  0
   -8.3954   -0.4949   -1.6069 H   0  0  0  0  0  0  0  0  0  0  0  0
   -7.2088   -1.5339    0.9117 H   0  0  0  0  0  0  0  0  0  0  0  0
   -7.3634   -2.2893   -0.7141 H   0  0  0  0  0  0  0  0  0  0  0  0
   -1.7945   -1.0565    3.2434 H   0  0  0  0  0  0  0  0  0  0  0  0
    0.1142    0.2518    3.9720 H   0  0  0  0  0  0  0  0  0  0  0  0
    1.7887    1.0177    2.3583 H   0  0  0  0  0  0  0  0  0  0  0  0
  1  2  1  0
  2  3  2  0
  3  4  1  0
  4  5  2  0
  5  6  1  0
  6  7  1  0
  7  8  2  0
  8  9  1  0
  9 10  1  0
  9 11  1  0
 11 12  2  0
 12 13  1  0
  5 14  1  0
 14 15  2  0
 15 16  1  0
 16 17  2  0
 17 18  1  0
 18 19  1  0
 19 20  2  0
 20 21  1  0
 21 22  1  0
 22 23  2  0
 22 24  1  0
 24 25  1  0
 24 26  1  0
 26 27  1  0
 27 28  1  0
 28 29  1  0
 29 30  1  0
 29 31  1  0
 31 32  1  0
 20 33  1  0
 33 34  2  0
 34 35  1  0
 35 36  2  0
 15  2  1  0
 36 16  1  0
 12  7  1  0
 36 19  1  0
 32 26  1  0
  1 37  1  0
  1 38  1  0
  1 39  1  0
  3 40  1  0
  6 41  1  0
  8 42  1  0
 10 43  1  0
 10 44  1  0
 10 45  1  0
 13 46  1  0
 13 47  1  0
 13 48  1  0
 17 49  1  0
 18 50  1  0
 21 51  1  0
 24 52  1  6
 25 53  1  0
 25 54  1  0
 25 55  1  0
 27 56  1  0
 27 57  1  0
 28 58  1  0
 28 59  1  0
 30 60  1  0
 30 61  1  0
 30 62  1  0
 31 63  1  0
 31 64  1  0
 32 65  1  0
 32 66  1  0
 33 67  1  0
 34 68  1  0
 35 69  1  0
M  END
$$$$
