@<TRIPOS>MOLECULE
*****
 56 60 0 0 0
SMALL
GASTEIGER

@<TRIPOS>ATOM
      1 C           3.1257    1.1261   -0.4023 C.3     1  UNL1       -0.0167
      2 C           3.8211    0.1687   -1.3406 C.3     1  UNL1       -0.0044
      3 C           3.9028   -1.1029   -0.5562 C.3     1  UNL1       -0.0044
      4 C           3.1664   -0.7709    0.7471 C.3     1  UNL1       -0.0167
      5 C           1.7045   -1.0646    0.5973 C.3     1  UNL1        0.0169
      6 C           0.9623   -0.1923   -0.3566 C.3     1  UNL1        0.0701
      7 C           1.6691    1.0847   -0.7121 C.3     1  UNL1        0.0169
      8 O          -0.2898    0.0518    0.2301 O.3     1  UNL1       -0.3637
      9 C          -1.3579   -0.4862   -0.4625 C.3     1  UNL1        0.1095
     10 C          -2.1421    0.6827   -0.9455 C.ar    1  UNL1       -0.0113
     11 C          -1.8199    1.0096   -2.2698 C.ar    1  UNL1       -0.0555
     12 C          -2.4178    2.0601   -2.9333 C.ar    1  UNL1       -0.0614
     13 C          -3.3623    2.8328   -2.3116 C.ar    1  UNL1       -0.0615
     14 C          -3.7035    2.5468   -1.0226 C.ar    1  UNL1       -0.0582
     15 C          -3.1035    1.4959   -0.3631 C.ar    1  UNL1       -0.0411
     16 C          -3.5252    1.2322    1.0548 C.3     1  UNL1       -0.0233
     17 C          -4.3095   -0.0368    1.0138 C.3     1  UNL1       -0.0233
     18 C          -3.3976   -1.1914    0.9110 C.ar    1  UNL1       -0.0411
     19 C          -2.1775   -1.4127    0.3119 C.ar    1  UNL1       -0.0113
     20 C          -1.5757   -2.6541    0.4092 C.ar    1  UNL1       -0.0555
     21 C          -2.1429   -3.7181    1.0926 C.ar    1  UNL1       -0.0614
     22 C          -3.3591   -3.5263    1.6999 C.ar    1  UNL1       -0.0615
     23 C          -3.9389   -2.2871    1.5911 C.ar    1  UNL1       -0.0582
     24 N           3.4577    0.6183    0.9049 N.4     1  UNL1        0.2434
     25 C           4.8851    0.7627    1.0986 C.3     1  UNL1       -0.0410
     26 C           2.7919    1.2827    1.9777 C.3     1  UNL1       -0.0410
     27 H           3.4669    2.1616   -0.5178 H       1  UNL1        0.0853
     28 H           3.1989   -0.0088   -2.2599 H       1  UNL1        0.0322
     29 H           4.7917    0.5377   -1.7238 H       1  UNL1        0.0322
     30 H           4.9460   -1.3329   -0.3020 H       1  UNL1        0.0322
     31 H           3.4200   -1.9509   -1.0572 H       1  UNL1        0.0322
     32 H           3.5571   -1.4321    1.5206 H       1  UNL1        0.0853
     33 H           1.2645   -1.0491    1.6313 H       1  UNL1        0.0345
     34 H           1.6495   -2.1557    0.3093 H       1  UNL1        0.0345
     35 H           0.7413   -0.7863   -1.2680 H       1  UNL1        0.0600
     36 H           1.5747    1.2349   -1.8082 H       1  UNL1        0.0345
     37 H           1.1348    1.9776   -0.2732 H       1  UNL1        0.0345
     38 H          -0.9982   -1.0258   -1.3783 H       1  UNL1        0.0697
     39 H          -1.0772    0.4254   -2.8028 H       1  UNL1        0.0621
     40 H          -2.1503    2.2829   -3.9409 H       1  UNL1        0.0618
     41 H          -3.8713    3.6666   -2.7626 H       1  UNL1        0.0618
     42 H          -4.4349    3.0853   -0.4284 H       1  UNL1        0.0620
     43 H          -2.6551    1.1225    1.7292 H       1  UNL1        0.0316
     44 H          -4.1766    2.0360    1.4518 H       1  UNL1        0.0316
     45 H          -4.9660   -0.1734    1.8942 H       1  UNL1        0.0316
     46 H          -5.0140    0.0202    0.1419 H       1  UNL1        0.0316
     47 H          -0.6097   -2.8724   -0.0508 H       1  UNL1        0.0621
     48 H          -1.6436   -4.6772    1.1487 H       1  UNL1        0.0618
     49 H          -3.8369   -4.3181    2.2393 H       1  UNL1        0.0618
     50 H          -4.9071   -2.1522    2.0807 H       1  UNL1        0.0620
     51 H           5.0660    1.7218    1.6163 H       1  UNL1        0.0778
     52 H           5.4791    0.7562    0.1879 H       1  UNL1        0.0778
     53 H           5.2843   -0.0708    1.7455 H       1  UNL1        0.0778
     54 H           3.4925    1.4086    2.8525 H       1  UNL1        0.0778
     55 H           2.4805    2.3240    1.7170 H       1  UNL1        0.0778
     56 H           1.9296    0.7326    2.3894 H       1  UNL1        0.0778
@<TRIPOS>UNITY_ATOM_ATTR
24 1
charge 1
@<TRIPOS>BOND
     1     1     2    1
     2     2     3    1
     3     3     4    1
     4     4     5    1
     5     5     6    1
     6     6     7    1
     7     6     8    1
     8     8     9    1
     9     9    10    1
    10    10    11   ar
    11    11    12   ar
    12    12    13   ar
    13    13    14   ar
    14    14    15   ar
    15    15    16    1
    16    16    17    1
    17    17    18    1
    18    18    19   ar
    19    19    20   ar
    20    20    21   ar
    21    21    22   ar
    22    22    23   ar
    23     4    24    1
    24    24    25    1
    25    24    26    1
    26     7     1    1
    27    19     9    1
    28    24     1    1
    29    15    10   ar
    30    23    18   ar
    31     1    27    1
    32     2    28    1
    33     2    29    1
    34     3    30    1
    35     3    31    1
    36     4    32    1
    37     5    33    1
    38     5    34    1
    39     6    35    1
    40     7    36    1
    41     7    37    1
    42     9    38    1
    43    11    39    1
    44    12    40    1
    45    13    41    1
    46    14    42    1
    47    16    43    1
    48    16    44    1
    49    17    45    1
    50    17    46    1
    51    20    47    1
    52    21    48    1
    53    22    49    1
    54    23    50    1
    55    25    51    1
    56    25    52    1
    57    25    53    1
    58    26    54    1
    59    26    55    1
    60    26    56    1
