@<TRIPOS>MOLECULE
*****
 50 54 0 0 0
SMALL
GASTEIGER

@<TRIPOS>ATOM
      1 C          -5.4731   -1.5047   -1.3313 C.3     1  UNL1       -0.0288
      2 C          -4.0662   -1.0436   -1.0152 C.3     1  UNL1        0.1834
      3 C          -3.1569   -1.2181   -2.1811 C.3     1  UNL1       -0.0288
      4 C          -4.1436    0.4010   -0.6870 C.2     1  UNL1        0.3067
      5 N          -5.2458    1.2005   -1.2028 N.pl3   1  UNL1       -0.2488
      6 N          -3.2458    0.9010    0.0372 N.2     1  UNL1       -0.0721
      7 C          -2.1073    0.3684    0.6500 C.3     1  UNL1        0.2035
      8 C          -0.7947    0.9410    0.2097 C.ar    1  UNL1        0.0426
      9 C           0.1578    0.1446   -0.3565 C.ar    1  UNL1       -0.0301
     10 C           1.3817    0.6555   -0.7708 C.ar    1  UNL1        0.0330
     11 N           2.3244   -0.1994   -1.3791 N.pl3   1  UNL1       -0.2977
     12 C           3.6654   -0.4016   -0.9518 C.ar    1  UNL1        0.1490
     13 N           4.5183   -1.1187   -1.7540 N.ar    1  UNL1       -0.2380
     14 C           5.7828   -1.3547   -1.3878 C.ar    1  UNL1        0.0304
     15 C           6.3127   -0.9066   -0.2061 C.ar    1  UNL1       -0.0342
     16 C           5.5010   -0.1789    0.6435 C.ar    1  UNL1        0.0066
     17 C           5.9868    0.2846    1.8511 C.ar    1  UNL1       -0.0326
     18 C           5.1452    0.9950    2.6741 C.ar    1  UNL1        0.0596
     19 CL          5.6936    1.6234    4.2367 Cl      1  UNL1       -0.0820
     20 C           3.8564    1.2013    2.2376 C.ar    1  UNL1        0.0467
     21 N           3.3936    0.7481    1.0642 N.ar    1  UNL1       -0.2501
     22 C           4.1904    0.0497    0.2345 C.ar    1  UNL1        0.1109
     23 C           1.5942    2.0056   -0.5859 C.ar    1  UNL1       -0.0378
     24 C           0.6469    2.8378   -0.0147 C.ar    1  UNL1       -0.0243
     25 C          -0.5395    2.2964    0.3780 C.ar    1  UNL1        0.1312
     26 F          -1.5262    3.0540    0.9509 F       1  UNL1       -0.2050
     27 C          -2.2561   -0.0287    2.0903 C.3     1  UNL1        0.0281
     28 C          -2.1121   -1.0470    1.0260 C.3     1  UNL1        0.1341
     29 S          -3.5305   -1.9239    0.4174 S.O2    1  UNL1       -0.0071
     30 O          -4.5863   -2.0267    1.4580 O.2     1  UNL1       -0.1729
     31 O          -3.1301   -3.3031    0.0149 O.2     1  UNL1       -0.1729
     32 H          -5.6225   -2.5738   -1.0984 H       1  UNL1        0.0256
     33 H          -5.7733   -1.3111   -2.3662 H       1  UNL1        0.0256
     34 H          -6.1537   -0.9195   -0.6543 H       1  UNL1        0.0256
     35 H          -2.1064   -1.1963   -1.8933 H       1  UNL1        0.0256
     36 H          -3.4427   -0.4693   -2.9492 H       1  UNL1        0.0256
     37 H          -3.3467   -2.2292   -2.6430 H       1  UNL1        0.0256
     38 H          -6.0537    1.4099   -0.6027 H       1  UNL1        0.2881
     39 H          -5.2300    1.5665   -2.1770 H       1  UNL1        0.2881
     40 H          -0.0359   -0.9277   -0.4966 H       1  UNL1        0.0641
     41 H           1.9738   -0.7285   -2.2307 H       1  UNL1        0.1536
     42 H           6.4515   -1.9289   -2.0384 H       1  UNL1        0.0830
     43 H           7.3488   -1.1031    0.0879 H       1  UNL1        0.0639
     44 H           7.0050    0.1068    2.1687 H       1  UNL1        0.0639
     45 H           3.1913    1.7583    2.8798 H       1  UNL1        0.0844
     46 H           2.5436    2.4672   -0.9053 H       1  UNL1        0.0637
     47 H           0.8394    3.9070    0.1224 H       1  UNL1        0.0647
     48 H          -3.2453    0.1506    2.5784 H       1  UNL1        0.0335
     49 H          -1.3994    0.1792    2.7672 H       1  UNL1        0.0335
     50 H          -1.1811   -1.6104    1.0247 H       1  UNL1        0.0588
@<TRIPOS>BOND
     1     1     2    1
     2     2     3    1
     3     2     4    1
     4     4     5    1
     5     4     6    2
     6     6     7    1
     7     7     8    1
     8     8     9   ar
     9     9    10   ar
    10    10    11    1
    11    11    12    1
    12    12    13   ar
    13    13    14   ar
    14    14    15   ar
    15    15    16   ar
    16    16    17   ar
    17    17    18   ar
    18    18    19    1
    19    18    20   ar
    20    20    21   ar
    21    21    22   ar
    22    10    23   ar
    23    23    24   ar
    24    24    25   ar
    25    25    26    1
    26     7    27    1
    27    27    28    1
    28    28    29    1
    29    29    30    2
    30    29    31    2
    31    29     2    1
    32    28     7    1
    33    25     8   ar
    34    22    12   ar
    35    22    16   ar
    36     1    32    1
    37     1    33    1
    38     1    34    1
    39     3    35    1
    40     3    36    1
    41     3    37    1
    42     5    38    1
    43     5    39    1
    44     9    40    1
    45    11    41    1
    46    14    42    1
    47    15    43    1
    48    17    44    1
    49    20    45    1
    50    23    46    1
    51    24    47    1
    52    27    48    1
    53    27    49    1
    54    28    50    1
