@<TRIPOS>MOLECULE
*****
 30 32 0 0 0
SMALL
GASTEIGER

@<TRIPOS>ATOM
      1 C           0.9233   -1.5558    0.3693 C.3     1  UNL1        0.1772
      2 C           0.2468   -1.0949   -0.9064 C.3     1  UNL1        0.0314
      3 C          -0.9481   -0.2766   -0.4754 C.3     1  UNL1        0.1738
      4 N          -1.6038   -0.9658    0.5990 N.2     1  UNL1       -0.2116
      5 C          -2.8199   -1.1815    0.2387 C.2     1  UNL1        0.3151
      6 O          -3.7251   -1.8300    1.0512 O.2     1  UNL1       -0.4786
      7 N          -3.0634   -0.6667   -1.0692 N.2     1  UNL1       -0.1617
      8 C          -1.9573   -0.1224   -1.5124 C.2     1  UNL1        0.2250
      9 O          -1.9314    0.4516   -2.7658 O.2     1  UNL1       -0.4934
     10 C          -0.4055    0.9944    0.0681 C.ar    1  UNL1        0.0335
     11 C           0.6000    0.7886    1.0196 C.ar    1  UNL1        0.1277
     12 O           0.9674   -0.5324    1.3402 O.3     1  UNL1       -0.4790
     13 C           1.2181    1.8575    1.6305 C.ar    1  UNL1       -0.0168
     14 C           0.8352    3.1381    1.2943 C.ar    1  UNL1       -0.0230
     15 C          -0.1588    3.3568    0.3540 C.ar    1  UNL1        0.1240
     16 F          -0.5603    4.6056   -0.0007 F       1  UNL1       -0.2055
     17 C          -0.7756    2.2836   -0.2558 C.ar    1  UNL1       -0.0170
     18 C           2.3280   -1.9867    0.1140 C.2     1  UNL1        0.2219
     19 O           3.2405   -2.4651    1.0429 O.2     1  UNL1       -0.4933
     20 N           2.7657   -1.9159   -1.0973 N.2     1  UNL1       -0.2680
     21 H           0.3179   -2.4149    0.7483 H       1  UNL1        0.0833
     22 H          -0.0987   -1.9704   -1.4908 H       1  UNL1        0.0338
     23 H           0.9585   -0.4660   -1.4910 H       1  UNL1        0.0338
     24 H          -3.6952   -1.7774    2.0644 H       1  UNL1        0.2953
     25 H          -2.3097   -0.0227   -3.5999 H       1  UNL1        0.2935
     26 H           2.0024    1.7154    2.3731 H       1  UNL1        0.0655
     27 H           1.2876    4.0329    1.7438 H       1  UNL1        0.0647
     28 H          -1.5639    2.3465   -1.0039 H       1  UNL1        0.0651
     29 H           4.2235   -2.1521    1.0462 H       1  UNL1        0.2935
     30 H           3.7019   -2.1738   -1.4291 H       1  UNL1        0.1896
@<TRIPOS>BOND
     1     1     2    1
     2     3     2    1
     3     3     4    1
     4     4     5    2
     5     5     6    1
     6     5     7    1
     7     7     8    2
     8     8     9    1
     9     3    10    1
    10    10    11   ar
    11    11    12    1
    12    11    13   ar
    13    13    14   ar
    14    14    15   ar
    15    15    16    1
    16    15    17   ar
    17     1    18    1
    18    18    19    1
    19    18    20    2
    20    12     1    1
    21     8     3    1
    22    17    10   ar
    23     1    21    1
    24     2    22    1
    25     2    23    1
    26     6    24    1
    27     9    25    1
    28    13    26    1
    29    14    27    1
    30    17    28    1
    31    19    29    1
    32    20    30    1
