
     RDKit          3D

 30 32  0  0  0  0  0  0  0  0999 V2000
    0.9233   -1.5558    0.3693 C   0  0  2  0  0  0  0  0  0  0  0  0
    0.2468   -1.0949   -0.9064 C   0  0  0  0  0  0  0  0  0  0  0  0
   -0.9481   -0.2766   -0.4754 C   0  0  2  0  0  0  0  0  0  0  0  0
   -1.6038   -0.9658    0.5990 N   0  0  0  0  0  0  0  0  0  0  0  0
   -2.8199   -1.1815    0.2387 C   0  0  0  0  0  0  0  0  0  0  0  0
   -3.7251   -1.8300    1.0512 O   0  0  0  0  0  0  0  0  0  0  0  0
   -3.0634   -0.6667   -1.0692 N   0  0  0  0  0  0  0  0  0  0  0  0
   -1.9573   -0.1224   -1.5124 C   0  0  0  0  0  0  0  0  0  0  0  0
   -1.9314    0.4516   -2.7658 O   0  0  0  0  0  0  0  0  0  0  0  0
   -0.4055    0.9944    0.0681 C   0  0  0  0  0  0  0  0  0  0  0  0
    0.6000    0.7886    1.0196 C   0  0  0  0  0  0  0  0  0  0  0  0
    0.9674   -0.5324    1.3402 O   0  0  0  0  0  0  0  0  0  0  0  0
    1.2181    1.8575    1.6305 C   0  0  0  0  0  0  0  0  0  0  0  0
    0.8352    3.1381    1.2943 C   0  0  0  0  0  0  0  0  0  0  0  0
   -0.1588    3.3568    0.3540 C   0  0  0  0  0  0  0  0  0  0  0  0
   -0.5603    4.6056   -0.0007 F   0  0  0  0  0  0  0  0  0  0  0  0
   -0.7756    2.2836   -0.2558 C   0  0  0  0  0  0  0  0  0  0  0  0
    2.3280   -1.9867    0.1140 C   0  0  0  0  0  0  0  0  0  0  0  0
    3.2405   -2.4651    1.0429 O   0  0  0  0  0  0  0  0  0  0  0  0
    2.7657   -1.9159   -1.0973 N   0  0  0  0  0  0  0  0  0  0  0  0
    0.3179   -2.4149    0.7483 H   0  0  0  0  0  0  0  0  0  0  0  0
   -0.0987   -1.9704   -1.4908 H   0  0  0  0  0  0  0  0  0  0  0  0
    0.9585   -0.4660   -1.4910 H   0  0  0  0  0  0  0  0  0  0  0  0
   -3.6952   -1.7774    2.0644 H   0  0  0  0  0  0  0  0  0  0  0  0
   -2.3097   -0.0227   -3.5999 H   0  0  0  0  0  0  0  0  0  0  0  0
    2.0024    1.7154    2.3731 H   0  0  0  0  0  0  0  0  0  0  0  0
    1.2876    4.0329    1.7438 H   0  0  0  0  0  0  0  0  0  0  0  0
   -1.5639    2.3465   -1.0039 H   0  0  0  0  0  0  0  0  0  0  0  0
    4.2235   -2.1521    1.0462 H   0  0  0  0  0  0  0  0  0  0  0  0
    3.7019   -2.1738   -1.4291 H   0  0  0  0  0  0  0  0  0  0  0  0
  1  2  1  0
  3  2  1  6
  3  4  1  0
  4  5  2  0
  5  6  1  0
  5  7  1  0
  7  8  2  0
  8  9  1  0
  3 10  1  0
 10 11  2  0
 11 12  1  0
 11 13  1  0
 13 14  2  0
 14 15  1  0
 15 16  1  0
 15 17  2  0
  1 18  1  0
 18 19  1  0
 18 20  2  3
 12  1  1  0
  8  3  1  0
 17 10  1  0
  1 21  1  1
  2 22  1  0
  2 23  1  0
  6 24  1  0
  9 25  1  0
 13 26  1  0
 14 27  1  0
 17 28  1  0
 19 29  1  0
 20 30  1  0
M  END
$$$$
