
     RDKit          3D

 57 61  0  0  0  0  0  0  0  0999 V2000
    2.1314   -2.9347   -0.7117 N   0  0  0  0  0  0  0  0  0  0  0  0
    0.7648   -3.0151   -0.4117 C   0  0  0  0  0  0  0  0  0  0  0  0
    0.2469   -4.2442   -0.2467 N   0  0  0  0  0  0  0  0  0  0  0  0
   -1.0442   -4.4081    0.0556 C   0  0  0  0  0  0  0  0  0  0  0  0
   -1.7998   -3.3206    0.1882 N   0  0  0  0  0  0  0  0  0  0  0  0
   -1.3106   -2.0873    0.0296 C   0  0  0  0  0  0  0  0  0  0  0  0
    0.0149   -1.8962   -0.2822 C   0  0  0  0  0  0  0  0  0  0  0  0
    0.3066   -0.5587   -0.3942 C   0  0  0  0  0  0  0  0  0  0  0  0
   -0.8709    0.0845   -0.1427 N   0  0  0  0  0  0  0  0  0  0  0  0
   -1.8074   -0.8164    0.1030 N   0  0  0  0  0  0  0  0  0  0  0  0
   -3.1600   -0.4593    0.4035 C   0  0  2  0  0  0  0  0  0  0  0  0
   -3.8360   -1.6489    1.0514 C   0  0  0  0  0  0  0  0  0  0  0  0
   -5.1972   -1.1721    1.5135 C   0  0  0  0  0  0  0  0  0  0  0  0
   -5.9733   -0.7735    0.2627 C   0  0  0  0  0  0  0  0  0  0  0  0
   -5.2726    0.3611   -0.2980 N   0  0  0  0  0  0  0  0  0  0  0  0
   -3.9826   -0.0817   -0.8128 C   0  0  0  0  0  0  0  0  0  0  0  0
   -5.6837    1.7405   -0.3870 C   0  0  0  0  0  0  0  0  0  0  0  0
   -5.1260    2.7643   -0.8579 O   0  0  0  0  0  0  0  0  0  0  0  0
   -6.9890    2.0638    0.1597 C   0  0  0  0  0  0  0  0  0  0  0  0
   -7.2189    3.3467    0.0055 C   0  0  0  0  0  0  0  0  0  0  0  0
    1.5475    0.1320   -0.6943 C   0  0  0  0  0  0  0  0  0  0  0  0
    2.4706   -0.0363   -1.7015 C   0  0  0  0  0  0  0  0  0  0  0  0
    3.5922    0.7338   -1.7675 C   0  0  0  0  0  0  0  0  0  0  0  0
    3.8864    1.7119   -0.8639 C   0  0  0  0  0  0  0  0  0  0  0  0
    5.0654    2.4244   -1.0483 O   0  0  0  0  0  0  0  0  0  0  0  0
    6.2290    1.9732   -0.4637 C   0  0  0  0  0  0  0  0  0  0  0  0
    7.4261    2.6436   -0.6167 C   0  0  0  0  0  0  0  0  0  0  0  0
    8.5634    2.1632   -0.0191 C   0  0  0  0  0  0  0  0  0  0  0  0
    8.5362    1.0071    0.7429 C   0  0  0  0  0  0  0  0  0  0  0  0
    7.3734    0.3084    0.9231 C   0  0  0  0  0  0  0  0  0  0  0  0
    6.2434    0.8161    0.3092 C   0  0  0  0  0  0  0  0  0  0  0  0
    2.9858    1.9138    0.1624 C   0  0  0  0  0  0  0  0  0  0  0  0
    1.8443    1.1366    0.2378 C   0  0  0  0  0  0  0  0  0  0  0  0
    3.1259   -2.8765   -0.9297 H   0  0  0  0  0  0  0  0  0  0  0  0
    2.9734   -3.4663   -0.3529 H   0  0  0  0  0  0  0  0  0  0  0  0
   -1.5350   -5.3667    0.2041 H   0  0  0  0  0  0  0  0  0  0  0  0
   -3.2231    0.4345    1.0835 H   0  0  0  0  0  0  0  0  0  0  0  0
   -3.9975   -2.3833    0.2096 H   0  0  0  0  0  0  0  0  0  0  0  0
   -3.2431   -2.1029    1.8648 H   0  0  0  0  0  0  0  0  0  0  0  0
   -5.6872   -1.9978    2.0681 H   0  0  0  0  0  0  0  0  0  0  0  0
   -5.0038   -0.2864    2.1498 H   0  0  0  0  0  0  0  0  0  0  0  0
   -6.9861   -0.4701    0.5951 H   0  0  0  0  0  0  0  0  0  0  0  0
   -5.9741   -1.6298   -0.4152 H   0  0  0  0  0  0  0  0  0  0  0  0
   -4.1314   -0.9299   -1.4999 H   0  0  0  0  0  0  0  0  0  0  0  0
   -3.5436    0.7629   -1.3696 H   0  0  0  0  0  0  0  0  0  0  0  0
   -7.9139    1.7855    0.6507 H   0  0  0  0  0  0  0  0  0  0  0  0
   -7.8609    4.1996    0.1326 H   0  0  0  0  0  0  0  0  0  0  0  0
   -6.6681    4.1708   -0.4213 H   0  0  0  0  0  0  0  0  0  0  0  0
    2.2053   -0.8030   -2.4033 H   0  0  0  0  0  0  0  0  0  0  0  0
    4.2273    0.4833   -2.6196 H   0  0  0  0  0  0  0  0  0  0  0  0
    7.4283    3.5443   -1.2150 H   0  0  0  0  0  0  0  0  0  0  0  0
    9.4950    2.6937   -0.1440 H   0  0  0  0  0  0  0  0  0  0  0  0
    9.4116    0.5877    1.2360 H   0  0  0  0  0  0  0  0  0  0  0  0
    7.2298   -0.6040    1.4947 H   0  0  0  0  0  0  0  0  0  0  0  0
    5.2895    0.3097    0.4125 H   0  0  0  0  0  0  0  0  0  0  0  0
    3.2159    2.6857    0.8766 H   0  0  0  0  0  0  0  0  0  0  0  0
    1.2096    1.3868    1.0891 H   0  0  0  0  0  0  0  0  0  0  0  0
  1  2  1  0
  2  3  2  0
  3  4  1  0
  4  5  2  0
  5  6  1  0
  6  7  2  0
  7  8  1  0
  8  9  2  0
  9 10  1  0
 10 11  1  0
 11 12  1  0
 12 13  1  0
 13 14  1  0
 14 15  1  0
 15 16  1  0
 15 17  1  0
 17 18  2  0
 17 19  1  0
 19 20  2  0
  8 21  1  0
 21 22  2  0
 22 23  1  0
 23 24  2  0
 24 25  1  0
 25 26  1  0
 26 27  2  0
 27 28  1  0
 28 29  2  0
 29 30  1  0
 30 31  2  0
 24 32  1  0
 32 33  2  0
  7  2  1  0
 16 11  1  0
 33 21  1  0
 10  6  1  0
 31 26  1  0
  1 34  1  0
  1 35  1  0
  4 36  1  0
 11 37  1  1
 12 38  1  0
 12 39  1  0
 13 40  1  0
 13 41  1  0
 14 42  1  0
 14 43  1  0
 16 44  1  0
 16 45  1  0
 19 46  1  0
 20 47  1  0
 20 48  1  0
 22 49  1  0
 23 50  1  0
 27 51  1  0
 28 52  1  0
 29 53  1  0
 30 54  1  0
 31 55  1  0
 32 56  1  0
 33 57  1  0
M  END
$$$$
