
     RDKit          3D

 45 48  0  0  0  0  0  0  0  0999 V2000
    5.4522   -0.7214   -0.0618 C   0  0  0  0  0  0  0  0  0  0  0  0
    4.1848   -1.0447    0.4617 O   0  0  0  0  0  0  0  0  0  0  0  0
    3.0555   -0.3857   -0.0068 C   0  0  0  0  0  0  0  0  0  0  0  0
    3.1634    0.5758   -0.9734 C   0  0  0  0  0  0  0  0  0  0  0  0
    1.9964    1.1801   -1.3819 C   0  0  0  0  0  0  0  0  0  0  0  0
    0.7506    0.8327   -0.8380 C   0  0  0  0  0  0  0  0  0  0  0  0
    0.6698   -0.1375    0.1329 C   0  0  0  0  0  0  0  0  0  0  0  0
    1.8424   -0.7390    0.5376 C   0  0  0  0  0  0  0  0  0  0  0  0
   -0.6488   -0.5029    0.7071 C   0  0  2  0  0  0  0  0  0  0  0  0
   -0.7359   -1.9614    1.0836 C   0  0  0  0  0  0  0  0  0  0  0  0
   -0.6486   -2.8693   -0.1130 C   0  0  0  0  0  0  0  0  0  0  0  0
   -1.6858   -2.5205   -1.1589 C   0  0  0  0  0  0  0  0  0  0  0  0
   -1.4936   -1.0733   -1.5478 C   0  0  0  0  0  0  0  0  0  0  0  0
   -1.7127   -0.2271   -0.3214 C   0  0  2  0  0  0  0  0  0  0  0  0
   -1.6954    1.2623   -0.6909 C   0  0  2  0  0  0  0  0  0  0  0  0
   -0.3989    1.5828   -1.3940 C   0  0  0  0  0  0  0  0  0  0  0  0
   -1.7776    2.0556    0.4904 N   0  0  0  0  0  0  0  0  0  0  0  0
   -2.6204    3.2218    0.3637 C   0  0  0  0  0  0  0  0  0  0  0  0
   -2.0465    1.3064    1.6902 C   0  0  0  0  0  0  0  0  0  0  0  0
   -0.9142    0.3291    1.9417 C   0  0  0  0  0  0  0  0  0  0  0  0
    5.6451    0.3495    0.2259 H   0  0  0  0  0  0  0  0  0  0  0  0
    5.3928   -0.7300   -1.1712 H   0  0  0  0  0  0  0  0  0  0  0  0
    6.2279   -1.3913    0.3267 H   0  0  0  0  0  0  0  0  0  0  0  0
    4.1203    0.8491   -1.3974 H   0  0  0  0  0  0  0  0  0  0  0  0
    2.0747    1.9493   -2.1538 H   0  0  0  0  0  0  0  0  0  0  0  0
    1.7995   -1.4968    1.2927 H   0  0  0  0  0  0  0  0  0  0  0  0
   -0.0046   -2.2829    1.8235 H   0  0  0  0  0  0  0  0  0  0  0  0
   -1.7444   -2.1112    1.5289 H   0  0  0  0  0  0  0  0  0  0  0  0
    0.3387   -2.9135   -0.5762 H   0  0  0  0  0  0  0  0  0  0  0  0
   -0.8914   -3.9010    0.2532 H   0  0  0  0  0  0  0  0  0  0  0  0
   -2.6846   -2.5793   -0.6607 H   0  0  0  0  0  0  0  0  0  0  0  0
   -1.5849   -3.2188   -1.9902 H   0  0  0  0  0  0  0  0  0  0  0  0
   -0.5126   -0.9281   -2.0119 H   0  0  0  0  0  0  0  0  0  0  0  0
   -2.2826   -0.8292   -2.2901 H   0  0  0  0  0  0  0  0  0  0  0  0
   -2.6963   -0.4588    0.0991 H   0  0  0  0  0  0  0  0  0  0  0  0
   -2.5420    1.4003   -1.3890 H   0  0  0  0  0  0  0  0  0  0  0  0
   -0.1948    2.6717   -1.2008 H   0  0  0  0  0  0  0  0  0  0  0  0
   -0.4786    1.4835   -2.4947 H   0  0  0  0  0  0  0  0  0  0  0  0
   -3.7061    2.9486    0.3302 H   0  0  0  0  0  0  0  0  0  0  0  0
   -2.4798    3.8289    1.2856 H   0  0  0  0  0  0  0  0  0  0  0  0
   -2.2941    3.8143   -0.4893 H   0  0  0  0  0  0  0  0  0  0  0  0
   -3.0002    0.7767    1.6941 H   0  0  0  0  0  0  0  0  0  0  0  0
   -2.0294    2.0329    2.5351 H   0  0  0  0  0  0  0  0  0  0  0  0
   -1.2215   -0.2929    2.8145 H   0  0  0  0  0  0  0  0  0  0  0  0
    0.0124    0.8650    2.2776 H   0  0  0  0  0  0  0  0  0  0  0  0
  1  2  1  0
  2  3  1  0
  3  4  2  0
  4  5  1  0
  5  6  2  0
  6  7  1  0
  7  8  2  0
  7  9  1  0
  9 10  1  1
 10 11  1  0
 11 12  1  0
 12 13  1  0
 13 14  1  0
 14 15  1  0
 15 16  1  0
 15 17  1  0
 17 18  1  0
 17 19  1  0
 19 20  1  0
  8  3  1  0
 14  9  1  0
 16  6  1  0
 20  9  1  0
  1 21  1  0
  1 22  1  0
  1 23  1  0
  4 24  1  0
  5 25  1  0
  8 26  1  0
 10 27  1  0
 10 28  1  0
 11 29  1  0
 11 30  1  0
 12 31  1  0
 12 32  1  0
 13 33  1  0
 13 34  1  0
 14 35  1  1
 15 36  1  6
 16 37  1  0
 16 38  1  0
 18 39  1  0
 18 40  1  0
 18 41  1  0
 19 42  1  0
 19 43  1  0
 20 44  1  0
 20 45  1  0
M  END
$$$$
