@<TRIPOS>MOLECULE
*****
 45 48 0 0 0
SMALL
GASTEIGER

@<TRIPOS>ATOM
      1 C           5.4522   -0.7214   -0.0618 C.3     1  UNL1        0.0788
      2 O           4.1848   -1.0447    0.4617 O.3     1  UNL1       -0.4951
      3 C           3.0555   -0.3857   -0.0068 C.ar    1  UNL1        0.1204
      4 C           3.1634    0.5758   -0.9734 C.ar    1  UNL1       -0.0197
      5 C           1.9964    1.1801   -1.3819 C.ar    1  UNL1       -0.0548
      6 C           0.7506    0.8327   -0.8380 C.ar    1  UNL1       -0.0419
      7 C           0.6698   -0.1375    0.1329 C.ar    1  UNL1       -0.0342
      8 C           1.8424   -0.7390    0.5376 C.ar    1  UNL1       -0.0160
      9 C          -0.6488   -0.5029    0.7071 C.3     1  UNL1        0.0015
     10 C          -0.7359   -1.9614    1.0836 C.3     1  UNL1       -0.0430
     11 C          -0.6486   -2.8693   -0.1130 C.3     1  UNL1       -0.0522
     12 C          -1.6858   -2.5205   -1.1589 C.3     1  UNL1       -0.0527
     13 C          -1.4936   -1.0733   -1.5478 C.3     1  UNL1       -0.0480
     14 C          -1.7127   -0.2271   -0.3214 C.3     1  UNL1       -0.0154
     15 C          -1.6954    1.2623   -0.6909 C.3     1  UNL1        0.0177
     16 C          -0.3989    1.5828   -1.3940 C.3     1  UNL1       -0.0115
     17 N          -1.7776    2.0556    0.4904 N.3     1  UNL1       -0.3018
     18 C          -2.6204    3.2218    0.3637 C.3     1  UNL1       -0.0125
     19 C          -2.0465    1.3064    1.6902 C.3     1  UNL1       -0.0003
     20 C          -0.9142    0.3291    1.9417 C.3     1  UNL1       -0.0302
     21 H           5.6451    0.3495    0.2259 H       1  UNL1        0.0660
     22 H           5.3928   -0.7300   -1.1712 H       1  UNL1        0.0660
     23 H           6.2279   -1.3913    0.3267 H       1  UNL1        0.0660
     24 H           4.1203    0.8491   -1.3974 H       1  UNL1        0.0654
     25 H           2.0747    1.9493   -2.1538 H       1  UNL1        0.0622
     26 H           1.7995   -1.4968    1.2927 H       1  UNL1        0.0657
     27 H          -0.0046   -2.2829    1.8235 H       1  UNL1        0.0274
     28 H          -1.7444   -2.1112    1.5289 H       1  UNL1        0.0274
     29 H           0.3387   -2.9135   -0.5762 H       1  UNL1        0.0266
     30 H          -0.8914   -3.9010    0.2532 H       1  UNL1        0.0266
     31 H          -2.6846   -2.5793   -0.6607 H       1  UNL1        0.0265
     32 H          -1.5849   -3.2188   -1.9902 H       1  UNL1        0.0265
     33 H          -0.5126   -0.9281   -2.0119 H       1  UNL1        0.0269
     34 H          -2.2826   -0.8292   -2.2901 H       1  UNL1        0.0269
     35 H          -2.6963   -0.4588    0.0991 H       1  UNL1        0.0324
     36 H          -2.5420    1.4003   -1.3890 H       1  UNL1        0.0469
     37 H          -0.1948    2.6717   -1.2008 H       1  UNL1        0.0328
     38 H          -0.4786    1.4835   -2.4947 H       1  UNL1        0.0328
     39 H          -3.7061    2.9486    0.3302 H       1  UNL1        0.0391
     40 H          -2.4798    3.8289    1.2856 H       1  UNL1        0.0391
     41 H          -2.2941    3.8143   -0.4893 H       1  UNL1        0.0391
     42 H          -3.0002    0.7767    1.6941 H       1  UNL1        0.0427
     43 H          -2.0294    2.0329    2.5351 H       1  UNL1        0.0427
     44 H          -1.2215   -0.2929    2.8145 H       1  UNL1        0.0286
     45 H           0.0124    0.8650    2.2776 H       1  UNL1        0.0286
@<TRIPOS>BOND
     1     1     2    1
     2     2     3    1
     3     3     4   ar
     4     4     5   ar
     5     5     6   ar
     6     6     7   ar
     7     7     8   ar
     8     7     9    1
     9     9    10    1
    10    10    11    1
    11    11    12    1
    12    12    13    1
    13    13    14    1
    14    14    15    1
    15    15    16    1
    16    15    17    1
    17    17    18    1
    18    17    19    1
    19    19    20    1
    20     8     3   ar
    21    14     9    1
    22    16     6    1
    23    20     9    1
    24     1    21    1
    25     1    22    1
    26     1    23    1
    27     4    24    1
    28     5    25    1
    29     8    26    1
    30    10    27    1
    31    10    28    1
    32    11    29    1
    33    11    30    1
    34    12    31    1
    35    12    32    1
    36    13    33    1
    37    13    34    1
    38    14    35    1
    39    15    36    1
    40    16    37    1
    41    16    38    1
    42    18    39    1
    43    18    40    1
    44    18    41    1
    45    19    42    1
    46    19    43    1
    47    20    44    1
    48    20    45    1
