@<TRIPOS>MOLECULE
*****
 12 12 0 0 0
SMALL
GASTEIGER

@<TRIPOS>ATOM
      1 S           2.9079   -0.3055   -0.1304 S.3     1  UNL1       -0.1234
      2 C           1.1265   -0.2392   -0.1096 C.ar    1  UNL1        0.0939
      3 C           0.4786    0.9921   -0.1765 C.ar    1  UNL1       -0.0300
      4 C          -0.9155    1.0265   -0.1591 C.ar    1  UNL1       -0.0578
      5 C          -1.6707   -0.1217   -0.0779 C.ar    1  UNL1       -0.0435
      6 C          -0.9898   -1.3161   -0.0137 C.ar    1  UNL1        0.0288
      7 N           0.3553   -1.3648   -0.0295 N.ar    1  UNL1       -0.2490
      8 H           3.4468   -0.2944    1.1651 H       1  UNL1        0.1086
      9 H           1.0157    1.9280   -0.2416 H       1  UNL1        0.0644
     10 H          -1.4151    1.9990   -0.2121 H       1  UNL1        0.0619
     11 H          -2.7544   -0.0691   -0.0660 H       1  UNL1        0.0633
     12 H          -1.5852   -2.2350    0.0512 H       1  UNL1        0.0830
@<TRIPOS>BOND
     1     1     2    1
     2     2     3   ar
     3     3     4   ar
     4     4     5   ar
     5     5     6   ar
     6     6     7   ar
     7     7     2   ar
     8     1     8    1
     9     3     9    1
    10     4    10    1
    11     5    11    1
    12     6    12    1
