
     RDKit          3D

 26 26  0  0  0  0  0  0  0  0999 V2000
    3.4594    1.4322    0.7916 N   0  0  0  0  0  0  0  0  0  0  0  0
    2.8985    0.1359    0.5830 C   0  0  0  0  0  0  0  0  0  0  0  0
    1.6070    0.1863   -0.2244 C   0  0  0  0  0  0  0  0  0  0  0  0
    1.1001   -1.2285   -0.3867 C   0  0  0  0  0  0  0  0  0  0  0  0
   -0.1929   -1.2874   -1.1834 C   0  0  0  0  0  0  0  0  0  0  0  0
   -1.2688   -0.5142   -0.5241 C   0  0  0  0  0  0  0  0  0  0  0  0
   -2.0869   -1.1554    0.3878 C   0  0  0  0  0  0  0  0  0  0  0  0
   -3.1253   -0.4947    1.0527 C   0  0  0  0  0  0  0  0  0  0  0  0
   -3.3194    0.8566    0.7668 C   0  0  0  0  0  0  0  0  0  0  0  0
   -2.5212    1.5306   -0.1390 C   0  0  0  0  0  0  0  0  0  0  0  0
   -1.5122    0.8233   -0.7633 C   0  0  0  0  0  0  0  0  0  0  0  0
    2.8443    2.2357    0.5907 H   0  0  0  0  0  0  0  0  0  0  0  0
    4.4421    1.5341    0.4593 H   0  0  0  0  0  0  0  0  0  0  0  0
    3.6145   -0.5395    0.0865 H   0  0  0  0  0  0  0  0  0  0  0  0
    2.6234   -0.2731    1.5890 H   0  0  0  0  0  0  0  0  0  0  0  0
    1.7241    0.6895   -1.1842 H   0  0  0  0  0  0  0  0  0  0  0  0
    0.8812    0.7731    0.3748 H   0  0  0  0  0  0  0  0  0  0  0  0
    0.8865   -1.6758    0.6059 H   0  0  0  0  0  0  0  0  0  0  0  0
    1.8687   -1.8638   -0.8688 H   0  0  0  0  0  0  0  0  0  0  0  0
   -0.0551   -0.9176   -2.2077 H   0  0  0  0  0  0  0  0  0  0  0  0
   -0.4923   -2.3524   -1.2139 H   0  0  0  0  0  0  0  0  0  0  0  0
   -1.9584   -2.2077    0.6297 H   0  0  0  0  0  0  0  0  0  0  0  0
   -3.7495   -1.0188    1.7601 H   0  0  0  0  0  0  0  0  0  0  0  0
   -4.1276    1.4071    1.2722 H   0  0  0  0  0  0  0  0  0  0  0  0
   -2.6590    2.5816   -0.3725 H   0  0  0  0  0  0  0  0  0  0  0  0
   -0.8810    1.3430   -1.4751 H   0  0  0  0  0  0  0  0  0  0  0  0
  1  2  1  0
  2  3  1  0
  3  4  1  0
  4  5  1  0
  5  6  1  0
  6  7  2  0
  7  8  1  0
  8  9  2  0
  9 10  1  0
 10 11  2  0
 11  6  1  0
  1 12  1  0
  1 13  1  0
  2 14  1  0
  2 15  1  0
  3 16  1  0
  3 17  1  0
  4 18  1  0
  4 19  1  0
  5 20  1  0
  5 21  1  0
  7 22  1  0
  8 23  1  0
  9 24  1  0
 10 25  1  0
 11 26  1  0
M  END
$$$$
