@<TRIPOS>MOLECULE
*****
 26 26 0 0 0
SMALL
GASTEIGER

@<TRIPOS>ATOM
      1 N           3.4594    1.4322    0.7916 N.3     1  UNL1       -0.3300
      2 C           2.8985    0.1359    0.5830 C.3     1  UNL1       -0.0069
      3 C           1.6070    0.1863   -0.2244 C.3     1  UNL1       -0.0404
      4 C           1.1001   -1.2285   -0.3867 C.3     1  UNL1       -0.0479
      5 C          -0.1929   -1.2874   -1.1834 C.3     1  UNL1       -0.0276
      6 C          -1.2688   -0.5142   -0.5241 C.ar    1  UNL1       -0.0474
      7 C          -2.0869   -1.1554    0.3878 C.ar    1  UNL1       -0.0586
      8 C          -3.1253   -0.4947    1.0527 C.ar    1  UNL1       -0.0615
      9 C          -3.3194    0.8566    0.7668 C.ar    1  UNL1       -0.0617
     10 C          -2.5212    1.5306   -0.1390 C.ar    1  UNL1       -0.0615
     11 C          -1.5122    0.8233   -0.7633 C.ar    1  UNL1       -0.0586
     12 H           2.8443    2.2357    0.5907 H       1  UNL1        0.1182
     13 H           4.4421    1.5341    0.4593 H       1  UNL1        0.1182
     14 H           3.6145   -0.5395    0.0865 H       1  UNL1        0.0422
     15 H           2.6234   -0.2731    1.5890 H       1  UNL1        0.0422
     16 H           1.7241    0.6895   -1.1842 H       1  UNL1        0.0278
     17 H           0.8812    0.7731    0.3748 H       1  UNL1        0.0278
     18 H           0.8865   -1.6758    0.6059 H       1  UNL1        0.0269
     19 H           1.8687   -1.8638   -0.8688 H       1  UNL1        0.0269
     20 H          -0.0551   -0.9176   -2.2077 H       1  UNL1        0.0313
     21 H          -0.4923   -2.3524   -1.2139 H       1  UNL1        0.0313
     22 H          -1.9584   -2.2077    0.6297 H       1  UNL1        0.0620
     23 H          -3.7495   -1.0188    1.7601 H       1  UNL1        0.0618
     24 H          -4.1276    1.4071    1.2722 H       1  UNL1        0.0618
     25 H          -2.6590    2.5816   -0.3725 H       1  UNL1        0.0618
     26 H          -0.8810    1.3430   -1.4751 H       1  UNL1        0.0620
@<TRIPOS>BOND
     1     1     2    1
     2     2     3    1
     3     3     4    1
     4     4     5    1
     5     5     6    1
     6     6     7   ar
     7     7     8   ar
     8     8     9   ar
     9     9    10   ar
    10    10    11   ar
    11    11     6   ar
    12     1    12    1
    13     1    13    1
    14     2    14    1
    15     2    15    1
    16     3    16    1
    17     3    17    1
    18     4    18    1
    19     4    19    1
    20     5    20    1
    21     5    21    1
    22     7    22    1
    23     8    23    1
    24     9    24    1
    25    10    25    1
    26    11    26    1
