
     RDKit          3D

 69 71  0  0  0  0  0  0  0  0999 V2000
    6.7877    2.2690   -1.3618 C   0  0  0  0  0  0  0  0  0  0  0  0
    6.8428    1.3360   -0.2770 N   0  0  0  0  0  0  0  0  0  0  0  0
    7.8080    0.2929   -0.4461 C   0  0  0  0  0  0  0  0  0  0  0  0
    5.5691    0.9008    0.2054 C   0  0  0  0  0  0  0  0  0  0  0  0
    4.8098    0.0387   -0.7851 C   0  0  0  0  0  0  0  0  0  0  0  0
    3.5616   -0.3293   -0.1803 N   0  0  0  0  0  0  0  0  0  0  0  0
    2.3967    0.5360   -0.3687 C   0  0  0  0  0  0  0  0  0  0  0  0
    1.6322    0.5499    0.9215 C   0  0  0  0  0  0  0  0  0  0  0  0
    0.6682   -0.5949    0.9742 N   0  0  0  0  0  0  0  0  0  0  0  0
   -0.6515   -0.1670    0.8735 C   0  0  0  0  0  0  0  0  0  0  0  0
   -0.7857    1.1233    0.7845 O   0  0  0  0  0  0  0  0  0  0  0  0
   -1.8988   -0.9606    0.8560 C   0  0  0  0  0  0  0  0  0  0  0  0
   -1.9330   -2.2850    0.7371 C   0  0  0  0  0  0  0  0  0  0  0  0
   -3.1675   -2.9088    0.7048 C   0  0  0  0  0  0  0  0  0  0  0  0
   -3.5037   -4.3707    0.5806 C   0  0  0  0  0  0  0  0  0  0  0  0
   -5.0324   -4.5089    0.5952 C   0  0  0  0  0  0  0  0  0  0  0  0
   -2.9211   -4.9484   -0.6830 C   0  0  0  0  0  0  0  0  0  0  0  0
   -3.0073   -5.1192    1.8039 C   0  0  0  0  0  0  0  0  0  0  0  0
   -4.3020   -1.5529    0.8481 S   0  0  0  0  0  0  0  0  0  0  0  0
   -3.1010   -0.2919    0.9387 C   0  0  0  0  0  0  0  0  0  0  0  0
   -3.3680    1.1176    1.0737 N   0  0  0  0  0  0  0  0  0  0  0  0
   -3.5241    1.9260   -0.1106 C   0  0  0  0  0  0  0  0  0  0  0  0
   -3.4200    1.3629   -1.1990 O   0  0  0  0  0  0  0  0  0  0  0  0
   -3.7859    3.3088   -0.0348 N   0  0  0  0  0  0  0  0  0  0  0  0
   -3.9570    4.1966   -1.1159 C   0  0  0  0  0  0  0  0  0  0  0  0
   -3.9030    3.8861   -2.4500 C   0  0  0  0  0  0  0  0  0  0  0  0
   -4.0880    4.8491   -3.4518 C   0  0  0  0  0  0  0  0  0  0  0  0
   -4.3314    6.1462   -3.1223 C   0  0  0  0  0  0  0  0  0  0  0  0
   -4.3910    6.4857   -1.8061 C   0  0  0  0  0  0  0  0  0  0  0  0
   -4.7024    8.1463   -1.3724 Cl  0  0  0  0  0  0  0  0  0  0  0  0
   -4.2095    5.5404   -0.8360 C   0  0  0  0  0  0  0  0  0  0  0  0
   -4.3030    6.0711    0.8475 Cl  0  0  0  0  0  0  0  0  0  0  0  0
    1.1150   -1.9367    1.1367 C   0  0  0  0  0  0  0  0  0  0  0  0
    2.5751   -1.9512    1.6197 C   0  0  0  0  0  0  0  0  0  0  0  0
    3.5239   -1.5403    0.5870 C   0  0  0  0  0  0  0  0  0  0  0  0
    4.4661   -2.3542    0.3041 O   0  0  0  0  0  0  0  0  0  0  0  0
    6.7875    3.2977   -0.9299 H   0  0  0  0  0  0  0  0  0  0  0  0
    5.8481    2.1845   -1.9390 H   0  0  0  0  0  0  0  0  0  0  0  0
    7.6804    2.2242   -2.0219 H   0  0  0  0  0  0  0  0  0  0  0  0
    8.1618   -0.1475    0.4981 H   0  0  0  0  0  0  0  0  0  0  0  0
    7.4375   -0.5058   -1.1304 H   0  0  0  0  0  0  0  0  0  0  0  0
    8.7111    0.7693   -0.9283 H   0  0  0  0  0  0  0  0  0  0  0  0
    4.9638    1.8089    0.4141 H   0  0  0  0  0  0  0  0  0  0  0  0
    5.6774    0.3646    1.1503 H   0  0  0  0  0  0  0  0  0  0  0  0
    5.4036   -0.8864   -0.9369 H   0  0  0  0  0  0  0  0  0  0  0  0
    4.6776    0.5253   -1.7528 H   0  0  0  0  0  0  0  0  0  0  0  0
    2.6748    1.5244   -0.7392 H   0  0  0  0  0  0  0  0  0  0  0  0
    1.7708    0.0244   -1.1299 H   0  0  0  0  0  0  0  0  0  0  0  0
    1.1035    1.5050    0.9953 H   0  0  0  0  0  0  0  0  0  0  0  0
    2.2719    0.4275    1.7949 H   0  0  0  0  0  0  0  0  0  0  0  0
   -1.0604   -2.9670    0.6425 H   0  0  0  0  0  0  0  0  0  0  0  0
   -5.3698   -3.8770    1.4618 H   0  0  0  0  0  0  0  0  0  0  0  0
   -5.2285   -5.5721    0.7895 H   0  0  0  0  0  0  0  0  0  0  0  0
   -5.4768   -4.1218   -0.3320 H   0  0  0  0  0  0  0  0  0  0  0  0
   -1.8264   -5.0323   -0.5360 H   0  0  0  0  0  0  0  0  0  0  0  0
   -3.1653   -4.2648   -1.5075 H   0  0  0  0  0  0  0  0  0  0  0  0
   -3.4007   -5.9227   -0.8629 H   0  0  0  0  0  0  0  0  0  0  0  0
   -2.6910   -6.1621    1.5546 H   0  0  0  0  0  0  0  0  0  0  0  0
   -2.1423   -4.6357    2.2840 H   0  0  0  0  0  0  0  0  0  0  0  0
   -3.8121   -5.1554    2.5880 H   0  0  0  0  0  0  0  0  0  0  0  0
   -3.4589    1.6083    1.9819 H   0  0  0  0  0  0  0  0  0  0  0  0
   -3.8598    3.7118    0.9555 H   0  0  0  0  0  0  0  0  0  0  0  0
   -3.7154    2.8870   -2.7483 H   0  0  0  0  0  0  0  0  0  0  0  0
   -4.0419    4.5840   -4.4966 H   0  0  0  0  0  0  0  0  0  0  0  0
   -4.4795    6.9178   -3.8864 H   0  0  0  0  0  0  0  0  0  0  0  0
    1.1126   -2.5608    0.2465 H   0  0  0  0  0  0  0  0  0  0  0  0
    0.5745   -2.3689    2.0310 H   0  0  0  0  0  0  0  0  0  0  0  0
    2.6218   -1.4161    2.5687 H   0  0  0  0  0  0  0  0  0  0  0  0
    2.7810   -3.0320    1.8641 H   0  0  0  0  0  0  0  0  0  0  0  0
  1  2  1  0
  2  3  1  0
  2  4  1  0
  4  5  1  0
  5  6  1  0
  6  7  1  0
  7  8  1  0
  8  9  1  0
  9 10  1  0
 10 11  2  0
 10 12  1  0
 12 13  1  0
 13 14  2  0
 14 15  1  0
 15 16  1  0
 15 17  1  0
 15 18  1  0
 14 19  1  0
 19 20  1  0
 20 21  1  0
 21 22  1  0
 22 23  2  0
 22 24  1  0
 24 25  1  0
 25 26  2  0
 26 27  1  0
 27 28  2  0
 28 29  1  0
 29 30  1  0
 29 31  2  0
 31 32  1  0
  9 33  1  0
 33 34  1  0
 34 35  1  0
 35 36  2  0
 35  6  1  0
 20 12  2  0
 31 25  1  0
  1 37  1  0
  1 38  1  0
  1 39  1  0
  3 40  1  0
  3 41  1  0
  3 42  1  0
  4 43  1  0
  4 44  1  0
  5 45  1  0
  5 46  1  0
  7 47  1  0
  7 48  1  0
  8 49  1  0
  8 50  1  0
 13 51  1  0
 16 52  1  0
 16 53  1  0
 16 54  1  0
 17 55  1  0
 17 56  1  0
 17 57  1  0
 18 58  1  0
 18 59  1  0
 18 60  1  0
 21 61  1  0
 24 62  1  0
 26 63  1  0
 27 64  1  0
 28 65  1  0
 33 66  1  0
 33 67  1  0
 34 68  1  0
 34 69  1  0
M  END
$$$$
