@<TRIPOS>MOLECULE
*****
 69 71 0 0 0
SMALL
GASTEIGER

@<TRIPOS>ATOM
      1 C           6.7877    2.2690   -1.3618 C.3     1  UNL1       -0.0130
      2 N           6.8428    1.3360   -0.2770 N.3     1  UNL1       -0.3069
      3 C           7.8080    0.2929   -0.4461 C.3     1  UNL1       -0.0130
      4 C           5.5691    0.9008    0.2054 C.3     1  UNL1        0.0141
      5 C           4.8098    0.0387   -0.7851 C.3     1  UNL1        0.0275
      6 N           3.5616   -0.3293   -0.1803 N.am    1  UNL1       -0.2987
      7 C           2.3967    0.5360   -0.3687 C.3     1  UNL1        0.0305
      8 C           1.6322    0.5499    0.9215 C.3     1  UNL1        0.0308
      9 N           0.6682   -0.5949    0.9742 N.am    1  UNL1       -0.2955
     10 C          -0.6515   -0.1670    0.8735 C.2     1  UNL1        0.2490
     11 O          -0.7857    1.1233    0.7845 O.2     1  UNL1       -0.2699
     12 C          -1.8988   -0.9606    0.8560 C.ar    1  UNL1        0.0657
     13 C          -1.9330   -2.2850    0.7371 C.ar    1  UNL1       -0.0370
     14 C          -3.1675   -2.9088    0.7048 C.ar    1  UNL1       -0.0023
     15 C          -3.5037   -4.3707    0.5806 C.3     1  UNL1       -0.0064
     16 C          -5.0324   -4.5089    0.5952 C.3     1  UNL1       -0.0556
     17 C          -2.9211   -4.9484   -0.6830 C.3     1  UNL1       -0.0556
     18 C          -3.0073   -5.1192    1.8039 C.3     1  UNL1       -0.0556
     19 S          -4.3020   -1.5529    0.8481 S.2     1  UNL1       -0.0771
     20 C          -3.1010   -0.2919    0.9387 C.ar    1  UNL1        0.0853
     21 N          -3.3680    1.1176    1.0737 N.am    1  UNL1       -0.2629
     22 C          -3.5241    1.9260   -0.1106 C.2     1  UNL1        0.3085
     23 O          -3.4200    1.3629   -1.1990 O.2     1  UNL1       -0.2521
     24 N          -3.7859    3.3088   -0.0348 N.am    1  UNL1       -0.2678
     25 C          -3.9570    4.1966   -1.1159 C.ar    1  UNL1        0.0546
     26 C          -3.9030    3.8861   -2.4500 C.ar    1  UNL1       -0.0389
     27 C          -4.0880    4.8491   -3.4518 C.ar    1  UNL1       -0.0585
     28 C          -4.3314    6.1462   -3.1223 C.ar    1  UNL1       -0.0419
     29 C          -4.3910    6.4857   -1.8061 C.ar    1  UNL1        0.0610
     30 CL         -4.7024    8.1463   -1.3724 Cl      1  UNL1       -0.0820
     31 C          -4.2095    5.5404   -0.8360 C.ar    1  UNL1        0.0804
     32 CL         -4.3030    6.0711    0.8475 Cl      1  UNL1       -0.0801
     33 C           1.1150   -1.9367    1.1367 C.3     1  UNL1        0.0233
     34 C           2.5751   -1.9512    1.6197 C.3     1  UNL1        0.0399
     35 C           3.5239   -1.5403    0.5870 C.2     1  UNL1        0.2171
     36 O           4.4661   -2.3542    0.3041 O.2     1  UNL1       -0.2755
     37 H           6.7875    3.2977   -0.9299 H       1  UNL1        0.0391
     38 H           5.8481    2.1845   -1.9390 H       1  UNL1        0.0391
     39 H           7.6804    2.2242   -2.0219 H       1  UNL1        0.0391
     40 H           8.1618   -0.1475    0.4981 H       1  UNL1        0.0391
     41 H           7.4375   -0.5058   -1.1304 H       1  UNL1        0.0391
     42 H           8.7111    0.7693   -0.9283 H       1  UNL1        0.0391
     43 H           4.9638    1.8089    0.4141 H       1  UNL1        0.0442
     44 H           5.6774    0.3646    1.1503 H       1  UNL1        0.0442
     45 H           5.4036   -0.8864   -0.9369 H       1  UNL1        0.0477
     46 H           4.6776    0.5253   -1.7528 H       1  UNL1        0.0477
     47 H           2.6748    1.5244   -0.7392 H       1  UNL1        0.0480
     48 H           1.7708    0.0244   -1.1299 H       1  UNL1        0.0480
     49 H           1.1035    1.5050    0.9953 H       1  UNL1        0.0480
     50 H           2.2719    0.4275    1.7949 H       1  UNL1        0.0480
     51 H          -1.0604   -2.9670    0.6425 H       1  UNL1        0.0634
     52 H          -5.3698   -3.8770    1.4618 H       1  UNL1        0.0238
     53 H          -5.2285   -5.5721    0.7895 H       1  UNL1        0.0238
     54 H          -5.4768   -4.1218   -0.3320 H       1  UNL1        0.0238
     55 H          -1.8264   -5.0323   -0.5360 H       1  UNL1        0.0238
     56 H          -3.1653   -4.2648   -1.5075 H       1  UNL1        0.0238
     57 H          -3.4007   -5.9227   -0.8629 H       1  UNL1        0.0238
     58 H          -2.6910   -6.1621    1.5546 H       1  UNL1        0.0238
     59 H          -2.1423   -4.6357    2.2840 H       1  UNL1        0.0238
     60 H          -3.8121   -5.1554    2.5880 H       1  UNL1        0.0238
     61 H          -3.4589    1.6083    1.9819 H       1  UNL1        0.1569
     62 H          -3.8598    3.7118    0.9555 H       1  UNL1        0.1564
     63 H          -3.7154    2.8870   -2.7483 H       1  UNL1        0.0637
     64 H          -4.0419    4.5840   -4.4966 H       1  UNL1        0.0619
     65 H          -4.4795    6.9178   -3.8864 H       1  UNL1        0.0633
     66 H           1.1126   -2.5608    0.2465 H       1  UNL1        0.0469
     67 H           0.5745   -2.3689    2.0310 H       1  UNL1        0.0469
     68 H           2.6218   -1.4161    2.5687 H       1  UNL1        0.0374
     69 H           2.7810   -3.0320    1.8641 H       1  UNL1        0.0374
@<TRIPOS>BOND
     1     1     2    1
     2     2     3    1
     3     2     4    1
     4     4     5    1
     5     5     6    1
     6     6     7    1
     7     7     8    1
     8     8     9    1
     9     9    10   am
    10    10    11    2
    11    10    12    1
    12    12    13   ar
    13    13    14   ar
    14    14    15    1
    15    15    16    1
    16    15    17    1
    17    15    18    1
    18    14    19   ar
    19    19    20   ar
    20    20    21    1
    21    21    22   am
    22    22    23    2
    23    22    24   am
    24    24    25    1
    25    25    26   ar
    26    26    27   ar
    27    27    28   ar
    28    28    29   ar
    29    29    30    1
    30    29    31   ar
    31    31    32    1
    32     9    33    1
    33    33    34    1
    34    34    35    1
    35    35    36    2
    36    35     6   am
    37    20    12   ar
    38    31    25   ar
    39     1    37    1
    40     1    38    1
    41     1    39    1
    42     3    40    1
    43     3    41    1
    44     3    42    1
    45     4    43    1
    46     4    44    1
    47     5    45    1
    48     5    46    1
    49     7    47    1
    50     7    48    1
    51     8    49    1
    52     8    50    1
    53    13    51    1
    54    16    52    1
    55    16    53    1
    56    16    54    1
    57    17    55    1
    58    17    56    1
    59    17    57    1
    60    18    58    1
    61    18    59    1
    62    18    60    1
    63    21    61    1
    64    24    62    1
    65    26    63    1
    66    27    64    1
    67    28    65    1
    68    33    66    1
    69    33    67    1
    70    34    68    1
    71    34    69    1
