@<TRIPOS>MOLECULE
*****
 48 50 0 0 0
SMALL
GASTEIGER

@<TRIPOS>ATOM
      1 C           4.4597    1.9293    2.5453 C.3     1  UNL1       -0.0195
      2 C           4.7203    1.0969    1.3347 C.ar    1  UNL1        0.0754
      3 N           3.8096    0.2767    0.8214 N.ar    1  UNL1       -0.2342
      4 C           4.0321   -0.5176   -0.2773 C.ar    1  UNL1        0.1234
      5 N           2.9969   -1.3699   -0.7178 N.pl3   1  UNL1       -0.2975
      6 C           1.6600   -0.9591   -0.9407 C.ar    1  UNL1        0.0683
      7 C           0.6496   -1.3806   -0.0416 C.ar    1  UNL1        0.0034
      8 C          -0.6536   -1.0368   -0.1777 C.ar    1  UNL1        0.1433
      9 N          -1.6451   -1.4573    0.7195 N.pl3   1  UNL1       -0.3233
     10 C          -3.0239   -1.1112    0.7449 C.3     1  UNL1        0.0371
     11 C          -3.8012   -1.2646   -0.5102 C.3     1  UNL1       -0.0331
     12 C          -5.2610   -1.3311   -0.1609 C.3     1  UNL1       -0.0513
     13 C          -5.7573   -0.4540    0.9000 C.3     1  UNL1       -0.0515
     14 C          -4.7884    0.0555    1.9145 C.3     1  UNL1       -0.0360
     15 C          -3.3768    0.2008    1.3616 C.3     1  UNL1        0.0234
     16 N          -3.3766    1.3396    0.5293 N.3     1  UNL1       -0.3257
     17 N          -0.9938   -0.2589   -1.2246 N.ar    1  UNL1       -0.1336
     18 N          -0.0834    0.1372   -2.0625 N.ar    1  UNL1       -0.1409
     19 C           1.2469   -0.1834   -1.9667 C.ar    1  UNL1        0.1685
     20 C           2.1403    0.2615   -3.0264 C.2     1  UNL1        0.2635
     21 N           1.6448    1.1918   -4.0029 N.am    1  UNL1       -0.3240
     22 O           3.3093   -0.1420   -3.1009 O.2     1  UNL1       -0.2686
     23 C           5.2638   -0.4245   -0.8348 C.ar    1  UNL1       -0.0188
     24 C           6.2644    0.4212   -0.3426 C.ar    1  UNL1       -0.0214
     25 C           5.9682    1.1853    0.7596 C.ar    1  UNL1        0.1444
     26 F           6.9167    2.0112    1.2603 F       1  UNL1       -0.2036
     27 H           4.4015    2.9998    2.2616 H       1  UNL1        0.0293
     28 H           5.3285    1.8660    3.2625 H       1  UNL1        0.0293
     29 H           3.5808    1.6378    3.1209 H       1  UNL1        0.0293
     30 H           3.2442   -2.3668   -0.8835 H       1  UNL1        0.1536
     31 H           1.0222   -2.0118    0.7795 H       1  UNL1        0.0672
     32 H          -1.2796   -2.1302    1.4805 H       1  UNL1        0.1478
     33 H          -3.5043   -1.8836    1.4585 H       1  UNL1        0.0513
     34 H          -3.5738   -2.1389   -1.1284 H       1  UNL1        0.0284
     35 H          -3.6736   -0.3424   -1.1362 H       1  UNL1        0.0284
     36 H          -5.4978   -2.4183    0.0376 H       1  UNL1        0.0266
     37 H          -5.8121   -1.1285   -1.1105 H       1  UNL1        0.0266
     38 H          -6.5431   -1.0198    1.4929 H       1  UNL1        0.0266
     39 H          -6.3324    0.4349    0.5024 H       1  UNL1        0.0266
     40 H          -5.0703    1.0701    2.2721 H       1  UNL1        0.0281
     41 H          -4.7249   -0.5967    2.8063 H       1  UNL1        0.0281
     42 H          -2.7156    0.4007    2.2426 H       1  UNL1        0.0476
     43 H          -4.2777    1.7754    0.3106 H       1  UNL1        0.1185
     44 H          -2.5923    1.5643   -0.0571 H       1  UNL1        0.1185
     45 H           0.6727    1.0799   -4.3121 H       1  UNL1        0.1453
     46 H           2.2662    1.9321   -4.3597 H       1  UNL1        0.1453
     47 H           5.5314   -1.0082   -1.7072 H       1  UNL1        0.0653
     48 H           7.2286    0.4574   -0.8367 H       1  UNL1        0.0648
@<TRIPOS>BOND
     1     1     2    1
     2     2     3   ar
     3     3     4   ar
     4     4     5    1
     5     5     6    1
     6     6     7   ar
     7     7     8   ar
     8     8     9    1
     9     9    10    1
    10    10    11    1
    11    11    12    1
    12    12    13    1
    13    13    14    1
    14    14    15    1
    15    15    16    1
    16     8    17   ar
    17    17    18   ar
    18    18    19   ar
    19    19    20    1
    20    20    21   am
    21    20    22    2
    22     4    23   ar
    23    23    24   ar
    24    24    25   ar
    25    25    26    1
    26    25     2   ar
    27    19     6   ar
    28    15    10    1
    29     1    27    1
    30     1    28    1
    31     1    29    1
    32     5    30    1
    33     7    31    1
    34     9    32    1
    35    10    33    1
    36    11    34    1
    37    11    35    1
    38    12    36    1
    39    12    37    1
    40    13    38    1
    41    13    39    1
    42    14    40    1
    43    14    41    1
    44    15    42    1
    45    16    43    1
    46    16    44    1
    47    21    45    1
    48    21    46    1
    49    23    47    1
    50    24    48    1
