
     RDKit          3D

 39 42  0  0  0  0  0  0  0  0999 V2000
   -1.2808    3.4068   -1.4286 N   0  0  0  0  0  0  0  0  0  0  0  0
   -0.9909    2.3960   -0.4934 C   0  0  0  0  0  0  0  0  0  0  0  0
   -1.0062    1.1992   -0.7847 N   0  0  0  0  0  0  0  0  0  0  0  0
   -0.7512   -0.0004   -0.0227 C   0  0  1  0  0  0  0  0  0  0  0  0
   -2.0139   -0.7537    0.0370 C   0  0  0  0  0  0  0  0  0  0  0  0
   -2.1297   -2.0521   -0.4602 C   0  0  0  0  0  0  0  0  0  0  0  0
   -3.2999   -2.7862   -0.4123 C   0  0  0  0  0  0  0  0  0  0  0  0
   -4.4303   -2.2535    0.1421 C   0  0  0  0  0  0  0  0  0  0  0  0
   -5.5657   -2.9868    0.1803 F   0  0  0  0  0  0  0  0  0  0  0  0
   -4.3622   -0.9708    0.6464 C   0  0  0  0  0  0  0  0  0  0  0  0
   -3.1855   -0.2590    0.5873 C   0  0  0  0  0  0  0  0  0  0  0  0
   -3.1910    0.9783    1.0749 F   0  0  0  0  0  0  0  0  0  0  0  0
    0.1216   -0.8011   -1.0406 C   0  0  0  0  0  0  0  0  0  0  0  0
    1.3387   -0.1464   -1.2257 O   0  0  0  0  0  0  0  0  0  0  0  0
    2.0752   -0.4961   -0.0675 C   0  0  1  0  0  0  0  0  0  0  0  0
    3.5075   -0.1999   -0.2372 C   0  0  0  0  0  0  0  0  0  0  0  0
    4.3361    0.3958    0.6340 N   0  0  0  0  0  0  0  0  0  0  0  0
    5.5466    0.4567    0.0579 C   0  0  0  0  0  0  0  0  0  0  0  0
    5.4313   -0.1173   -1.1850 C   0  0  0  0  0  0  0  0  0  0  0  0
    4.1923   -0.4886   -1.3011 O   0  0  0  0  0  0  0  0  0  0  0  0
    1.5179    0.3615    0.9993 C   0  0  0  0  0  0  0  0  0  0  0  0
    0.0128    0.1765    1.2336 C   0  0  1  0  0  0  0  0  0  0  0  0
   -0.3206    1.3680    2.0884 C   0  0  0  0  0  0  0  0  0  0  0  0
   -0.5905    2.8831    1.1639 S   0  0  0  0  0  0  0  0  0  0  0  0
   -0.6135    4.2134   -1.4861 H   0  0  0  0  0  0  0  0  0  0  0  0
   -2.1214    3.3907   -2.0617 H   0  0  0  0  0  0  0  0  0  0  0  0
   -1.3087   -2.5613   -0.9215 H   0  0  0  0  0  0  0  0  0  0  0  0
   -3.3508   -3.8047   -0.8139 H   0  0  0  0  0  0  0  0  0  0  0  0
   -5.2758   -0.5777    1.0790 H   0  0  0  0  0  0  0  0  0  0  0  0
    0.3728   -1.7615   -0.5747 H   0  0  0  0  0  0  0  0  0  0  0  0
   -0.3534   -0.8404   -2.0286 H   0  0  0  0  0  0  0  0  0  0  0  0
    1.9039   -1.5854    0.1211 H   0  0  0  0  0  0  0  0  0  0  0  0
    6.4730    0.8689    0.4522 H   0  0  0  0  0  0  0  0  0  0  0  0
    6.2426   -0.2246   -1.9095 H   0  0  0  0  0  0  0  0  0  0  0  0
    2.0357    0.1762    1.9737 H   0  0  0  0  0  0  0  0  0  0  0  0
    1.6822    1.4305    0.6993 H   0  0  0  0  0  0  0  0  0  0  0  0
   -0.0114   -0.7704    1.8040 H   0  0  0  0  0  0  0  0  0  0  0  0
   -1.1622    1.1238    2.7460 H   0  0  0  0  0  0  0  0  0  0  0  0
    0.5257    1.6122    2.7995 H   0  0  0  0  0  0  0  0  0  0  0  0
  1  2  1  0
  2  3  2  0
  3  4  1  0
  4  5  1  1
  5  6  2  0
  6  7  1  0
  7  8  2  0
  8  9  1  0
  8 10  1  0
 10 11  2  0
 11 12  1  0
  4 13  1  0
 13 14  1  0
 14 15  1  0
 15 16  1  0
 16 17  2  0
 17 18  1  0
 18 19  2  0
 19 20  1  0
 15 21  1  0
 21 22  1  0
 22 23  1  0
 23 24  1  0
 24  2  1  0
 22  4  1  0
 11  5  1  0
 20 16  1  0
  1 25  1  0
  1 26  1  0
  6 27  1  0
  7 28  1  0
 10 29  1  0
 13 30  1  0
 13 31  1  0
 15 32  1  1
 18 33  1  0
 19 34  1  0
 21 35  1  0
 21 36  1  0
 22 37  1  1
 23 38  1  0
 23 39  1  0
M  END
$$$$
