@<TRIPOS>MOLECULE
*****
 39 42 0 0 0
SMALL
GASTEIGER

@<TRIPOS>ATOM
      1 N          -1.2808    3.4068   -1.4286 N.pl3   1  UNL1       -0.3380
      2 C          -0.9909    2.3960   -0.4934 C.2     1  UNL1        0.1476
      3 N          -1.0062    1.1992   -0.7847 N.2     1  UNL1       -0.2495
      4 C          -0.7512   -0.0004   -0.0227 C.3     1  UNL1        0.1185
      5 C          -2.0139   -0.7537    0.0370 C.ar    1  UNL1        0.0178
      6 C          -2.1297   -2.0521   -0.4602 C.ar    1  UNL1       -0.0507
      7 C          -3.2999   -2.7862   -0.4123 C.ar    1  UNL1       -0.0259
      8 C          -4.4303   -2.2535    0.1421 C.ar    1  UNL1        0.1261
      9 F          -5.5657   -2.9868    0.1803 F       1  UNL1       -0.2054
     10 C          -4.3622   -0.9708    0.6464 C.ar    1  UNL1        0.0091
     11 C          -3.1855   -0.2590    0.5873 C.ar    1  UNL1        0.1317
     12 F          -3.1910    0.9783    1.0749 F       1  UNL1       -0.2050
     13 C           0.1216   -0.8011   -1.0406 C.3     1  UNL1        0.0783
     14 O           1.3387   -0.1464   -1.2257 O.3     1  UNL1       -0.3645
     15 C           2.0752   -0.4961   -0.0675 C.3     1  UNL1        0.1347
     16 C           3.5075   -0.1999   -0.2372 C.ar    1  UNL1        0.2243
     17 N           4.3361    0.3958    0.6340 N.ar    1  UNL1       -0.2196
     18 C           5.5466    0.4567    0.0579 C.ar    1  UNL1        0.0660
     19 C           5.4313   -0.1173   -1.1850 C.ar    1  UNL1        0.1122
     20 O           4.1923   -0.4886   -1.3011 O.2     1  UNL1       -0.4452
     21 C           1.5179    0.3615    0.9993 C.3     1  UNL1       -0.0117
     22 C           0.0128    0.1765    1.2336 C.3     1  UNL1        0.0029
     23 C          -0.3206    1.3680    2.0884 C.3     1  UNL1        0.0064
     24 S          -0.5905    2.8831    1.1639 S.3     1  UNL1       -0.0907
     25 H          -0.6135    4.2134   -1.4861 H       1  UNL1        0.1442
     26 H          -2.1214    3.3907   -2.0617 H       1  UNL1        0.1442
     27 H          -1.3087   -2.5613   -0.9215 H       1  UNL1        0.0623
     28 H          -3.3508   -3.8047   -0.8139 H       1  UNL1        0.0646
     29 H          -5.2758   -0.5777    1.0790 H       1  UNL1        0.0675
     30 H           0.3728   -1.7615   -0.5747 H       1  UNL1        0.0588
     31 H          -0.3534   -0.8404   -2.0286 H       1  UNL1        0.0588
     32 H           1.9039   -1.5854    0.1211 H       1  UNL1        0.0694
     33 H           6.4730    0.8689    0.4522 H       1  UNL1        0.0862
     34 H           6.2426   -0.2246   -1.9095 H       1  UNL1        0.1046
     35 H           2.0357    0.1762    1.9737 H       1  UNL1        0.0299
     36 H           1.6822    1.4305    0.6993 H       1  UNL1        0.0299
     37 H          -0.0114   -0.7704    1.8040 H       1  UNL1        0.0337
     38 H          -1.1622    1.1238    2.7460 H       1  UNL1        0.0384
     39 H           0.5257    1.6122    2.7995 H       1  UNL1        0.0384
@<TRIPOS>BOND
     1     1     2    1
     2     2     3    2
     3     3     4    1
     4     4     5    1
     5     5     6   ar
     6     6     7   ar
     7     7     8   ar
     8     8     9    1
     9     8    10   ar
    10    10    11   ar
    11    11    12    1
    12     4    13    1
    13    13    14    1
    14    14    15    1
    15    15    16    1
    16    16    17   ar
    17    17    18   ar
    18    18    19   ar
    19    19    20   ar
    20    15    21    1
    21    21    22    1
    22    22    23    1
    23    23    24    1
    24    24     2    1
    25    22     4    1
    26    11     5   ar
    27    20    16   ar
    28     1    25    1
    29     1    26    1
    30     6    27    1
    31     7    28    1
    32    10    29    1
    33    13    30    1
    34    13    31    1
    35    15    32    1
    36    18    33    1
    37    19    34    1
    38    21    35    1
    39    21    36    1
    40    22    37    1
    41    23    38    1
    42    23    39    1
