
     RDKit          3D

 67 71  0  0  0  0  0  0  0  0999 V2000
   -7.9031    3.1263   -2.7713 N   0  0  0  0  0  0  0  0  0  0  0  0
   -7.2069    3.2224   -1.6989 C   0  0  0  0  0  0  0  0  0  0  0  0
   -6.9112    4.5041   -1.1831 N   0  0  0  0  0  0  0  0  0  0  0  0
   -6.7603    1.9845   -1.0647 C   0  0  0  0  0  0  0  0  0  0  0  0
   -7.5671    0.8534   -1.1595 C   0  0  0  0  0  0  0  0  0  0  0  0
   -7.1517   -0.3386   -0.5553 C   0  0  0  0  0  0  0  0  0  0  0  0
   -5.9642   -0.4246    0.1320 C   0  0  0  0  0  0  0  0  0  0  0  0
   -5.1521    0.7010    0.2310 C   0  0  0  0  0  0  0  0  0  0  0  0
   -3.8932    0.6403    0.9536 C   0  0  0  0  0  0  0  0  0  0  0  0
   -3.7390    1.3646    1.9907 O   0  0  0  0  0  0  0  0  0  0  0  0
   -2.7914   -0.1848    0.5877 N   0  0  0  0  0  0  0  0  0  0  0  0
   -2.8419   -1.0486   -0.5810 C   0  0  0  0  0  0  0  0  0  0  0  0
   -2.5442   -2.4310   -0.0711 C   0  0  0  0  0  0  0  0  0  0  0  0
   -2.9541   -3.4841   -0.8591 C   0  0  0  0  0  0  0  0  0  0  0  0
   -2.7232   -4.8063   -0.4589 C   0  0  0  0  0  0  0  0  0  0  0  0
   -2.0830   -5.0196    0.7298 C   0  0  0  0  0  0  0  0  0  0  0  0
   -1.6760   -3.9415    1.5124 C   0  0  0  0  0  0  0  0  0  0  0  0
   -1.9020   -2.6389    1.1211 C   0  0  0  0  0  0  0  0  0  0  0  0
   -1.4360   -1.5563    2.0205 C   0  0  0  0  0  0  0  0  0  0  0  0
   -1.6042   -0.1893    1.3908 C   0  0  1  0  0  0  0  0  0  0  0  0
   -0.3512    0.0980    0.6703 C   0  0  0  0  0  0  0  0  0  0  0  0
   -0.3590    0.2753   -0.5514 O   0  0  0  0  0  0  0  0  0  0  0  0
    0.8617    0.1703    1.3878 N   0  0  0  0  0  0  0  0  0  0  0  0
    2.1391    0.4241    0.8864 C   0  0  0  0  0  0  0  0  0  0  0  0
    2.5256    0.6019   -0.4119 C   0  0  0  0  0  0  0  0  0  0  0  0
    3.8172    0.8619   -0.8283 C   0  0  0  0  0  0  0  0  0  0  0  0
    4.8224    0.9546    0.1422 C   0  0  0  0  0  0  0  0  0  0  0  0
    6.1505    1.2689   -0.3309 C   0  0  0  0  0  0  0  0  0  0  0  0
    6.3620    2.5415   -0.8676 C   0  0  0  0  0  0  0  0  0  0  0  0
    7.6128    2.9163   -1.3151 C   0  0  0  0  0  0  0  0  0  0  0  0
    8.6662    2.0206   -1.2304 C   0  0  0  0  0  0  0  0  0  0  0  0
    8.4700    0.7730   -0.7080 C   0  0  0  0  0  0  0  0  0  0  0  0
    7.1847    0.3893   -0.2491 C   0  0  0  0  0  0  0  0  0  0  0  0
    7.0314   -1.2268    0.3565 S   0  0  0  0  0  6  0  0  0  0  0  0
    8.5405   -2.0824    0.2482 N   0  0  0  0  0  0  0  0  0  0  0  0
    6.6278   -1.2678    1.7929 O   0  0  0  0  0  0  0  0  0  0  0  0
    6.0407   -2.0501   -0.4430 O   0  0  0  0  0  0  0  0  0  0  0  0
    4.4717    0.7820    1.4621 C   0  0  0  0  0  0  0  0  0  0  0  0
    3.1749    0.5244    1.8276 C   0  0  0  0  0  0  0  0  0  0  0  0
   -5.5797    1.8568   -0.3684 C   0  0  0  0  0  0  0  0  0  0  0  0
   -8.2474    3.9692   -3.2590 H   0  0  0  0  0  0  0  0  0  0  0  0
   -6.3650    4.6133   -0.3037 H   0  0  0  0  0  0  0  0  0  0  0  0
   -7.2316    5.3497   -1.6701 H   0  0  0  0  0  0  0  0  0  0  0  0
   -8.5080    0.9138   -1.7014 H   0  0  0  0  0  0  0  0  0  0  0  0
   -7.7776   -1.2336   -0.6233 H   0  0  0  0  0  0  0  0  0  0  0  0
   -5.6988   -1.3780    0.5763 H   0  0  0  0  0  0  0  0  0  0  0  0
   -2.2001   -0.7518   -1.4051 H   0  0  0  0  0  0  0  0  0  0  0  0
   -3.8838   -0.9998   -0.9705 H   0  0  0  0  0  0  0  0  0  0  0  0
   -3.4624   -3.3256   -1.8026 H   0  0  0  0  0  0  0  0  0  0  0  0
   -3.0462   -5.6472   -1.0765 H   0  0  0  0  0  0  0  0  0  0  0  0
   -1.9000   -6.0507    1.0451 H   0  0  0  0  0  0  0  0  0  0  0  0
   -1.1746   -4.2019    2.4412 H   0  0  0  0  0  0  0  0  0  0  0  0
   -0.3671   -1.6764    2.2912 H   0  0  0  0  0  0  0  0  0  0  0  0
   -1.9959   -1.5452    2.9816 H   0  0  0  0  0  0  0  0  0  0  0  0
   -1.7352    0.5418    2.2365 H   0  0  0  0  0  0  0  0  0  0  0  0
    0.7464    0.0066    2.4428 H   0  0  0  0  0  0  0  0  0  0  0  0
    1.7228    0.5253   -1.1646 H   0  0  0  0  0  0  0  0  0  0  0  0
    4.0467    0.9898   -1.8572 H   0  0  0  0  0  0  0  0  0  0  0  0
    5.5244    3.2395   -0.9288 H   0  0  0  0  0  0  0  0  0  0  0  0
    7.8007    3.9020   -1.7376 H   0  0  0  0  0  0  0  0  0  0  0  0
    9.6232    2.3297   -1.5818 H   0  0  0  0  0  0  0  0  0  0  0  0
    9.2988    0.0842   -0.6473 H   0  0  0  0  0  0  0  0  0  0  0  0
    9.1378   -1.9302    1.0918 H   0  0  0  0  0  0  0  0  0  0  0  0
    9.0266   -1.9342   -0.6483 H   0  0  0  0  0  0  0  0  0  0  0  0
    5.2335    0.8810    2.2125 H   0  0  0  0  0  0  0  0  0  0  0  0
    2.9920    0.4015    2.8984 H   0  0  0  0  0  0  0  0  0  0  0  0
   -4.9637    2.7621   -0.3105 H   0  0  0  0  0  0  0  0  0  0  0  0
  1  2  2  3
  2  3  1  0
  2  4  1  0
  4  5  2  0
  5  6  1  0
  6  7  2  0
  7  8  1  0
  8  9  1  0
  9 10  2  0
  9 11  1  0
 11 12  1  0
 12 13  1  0
 13 14  2  0
 14 15  1  0
 15 16  2  0
 16 17  1  0
 17 18  2  0
 18 19  1  0
 19 20  1  0
 20 21  1  0
 21 22  2  0
 21 23  1  0
 23 24  1  0
 24 25  2  0
 25 26  1  0
 26 27  2  0
 27 28  1  0
 28 29  2  0
 29 30  1  0
 30 31  2  0
 31 32  1  0
 32 33  2  0
 33 34  1  0
 34 35  1  0
 34 36  2  0
 34 37  2  0
 27 38  1  0
 38 39  2  0
  8 40  2  0
 40  4  1  0
 20 11  1  0
 39 24  1  0
 18 13  1  0
 33 28  1  0
  1 41  1  0
  3 42  1  0
  3 43  1  0
  5 44  1  0
  6 45  1  0
  7 46  1  0
 12 47  1  0
 12 48  1  0
 14 49  1  0
 15 50  1  0
 16 51  1  0
 17 52  1  0
 19 53  1  0
 19 54  1  0
 20 55  1  1
 23 56  1  0
 25 57  1  0
 26 58  1  0
 29 59  1  0
 30 60  1  0
 31 61  1  0
 32 62  1  0
 35 63  1  0
 35 64  1  0
 38 65  1  0
 39 66  1  0
 40 67  1  0
M  END
$$$$
