@<TRIPOS>MOLECULE
*****
 67 71 0 0 0
SMALL
GASTEIGER

@<TRIPOS>ATOM
      1 N          -7.9031    3.1263   -2.7713 N.2     1  UNL1       -0.0994
      2 C          -7.2069    3.2224   -1.6989 C.2     1  UNL1        0.3081
      3 N          -6.9112    4.5041   -1.1831 N.pl3   1  UNL1       -0.2466
      4 C          -6.7603    1.9845   -1.0647 C.ar    1  UNL1        0.0654
      5 C          -7.5671    0.8534   -1.1595 C.ar    1  UNL1       -0.0469
      6 C          -7.1517   -0.3386   -0.5553 C.ar    1  UNL1       -0.0602
      7 C          -5.9642   -0.4246    0.1320 C.ar    1  UNL1       -0.0496
      8 C          -5.1521    0.7010    0.2310 C.ar    1  UNL1        0.0377
      9 C          -3.8932    0.6403    0.9536 C.2     1  UNL1        0.2476
     10 O          -3.7390    1.3646    1.9907 O.2     1  UNL1       -0.2700
     11 N          -2.7914   -0.1848    0.5877 N.am    1  UNL1       -0.2813
     12 C          -2.8419   -1.0486   -0.5810 C.3     1  UNL1        0.0411
     13 C          -2.5442   -2.4310   -0.0711 C.ar    1  UNL1       -0.0268
     14 C          -2.9541   -3.4841   -0.8591 C.ar    1  UNL1       -0.0568
     15 C          -2.7232   -4.8063   -0.4589 C.ar    1  UNL1       -0.0614
     16 C          -2.0830   -5.0196    0.7298 C.ar    1  UNL1       -0.0615
     17 C          -1.6760   -3.9415    1.5124 C.ar    1  UNL1       -0.0582
     18 C          -1.9020   -2.6389    1.1211 C.ar    1  UNL1       -0.0405
     19 C          -1.4360   -1.5563    2.0205 C.3     1  UNL1       -0.0001
     20 C          -1.6042   -0.1893    1.3908 C.3     1  UNL1        0.1071
     21 C          -0.3512    0.0980    0.6703 C.2     1  UNL1        0.2381
     22 O          -0.3590    0.2753   -0.5514 O.2     1  UNL1       -0.2734
     23 N           0.8617    0.1703    1.3878 N.am    1  UNL1       -0.2840
     24 C           2.1391    0.4241    0.8864 C.ar    1  UNL1        0.0335
     25 C           2.5256    0.6019   -0.4119 C.ar    1  UNL1       -0.0399
     26 C           3.8172    0.8619   -0.8283 C.ar    1  UNL1       -0.0522
     27 C           4.8224    0.9546    0.1422 C.ar    1  UNL1       -0.0159
     28 C           6.1505    1.2689   -0.3309 C.ar    1  UNL1        0.0084
     29 C           6.3620    2.5415   -0.8676 C.ar    1  UNL1       -0.0522
     30 C           7.6128    2.9163   -1.3151 C.ar    1  UNL1       -0.0611
     31 C           8.6662    2.0206   -1.2304 C.ar    1  UNL1       -0.0599
     32 C           8.4700    0.7730   -0.7080 C.ar    1  UNL1       -0.0348
     33 C           7.1847    0.3893   -0.2491 C.ar    1  UNL1        0.1127
     34 S           7.0314   -1.2268    0.3565 S.O2    1  UNL1        0.0565
     35 N           8.5405   -2.0824    0.2482 N.3     1  UNL1       -0.2035
     36 O           6.6278   -1.2678    1.7929 O.2     1  UNL1       -0.1532
     37 O           6.0407   -2.0501   -0.4430 O.2     1  UNL1       -0.1532
     38 C           4.4717    0.7820    1.4621 C.ar    1  UNL1       -0.0522
     39 C           3.1749    0.5244    1.8276 C.ar    1  UNL1       -0.0399
     40 C          -5.5797    1.8568   -0.3684 C.ar    1  UNL1       -0.0348
     41 H          -8.2474    3.9692   -3.2590 H       1  UNL1        0.3633
     42 H          -6.3650    4.6133   -0.3037 H       1  UNL1        0.2884
     43 H          -7.2316    5.3497   -1.6701 H       1  UNL1        0.2884
     44 H          -8.5080    0.9138   -1.7014 H       1  UNL1        0.0626
     45 H          -7.7776   -1.2336   -0.6233 H       1  UNL1        0.0618
     46 H          -5.6988   -1.3780    0.5763 H       1  UNL1        0.0625
     47 H          -2.2001   -0.7518   -1.4051 H       1  UNL1        0.0514
     48 H          -3.8838   -0.9998   -0.9705 H       1  UNL1        0.0514
     49 H          -3.4624   -3.3256   -1.8026 H       1  UNL1        0.0621
     50 H          -3.0462   -5.6472   -1.0765 H       1  UNL1        0.0618
     51 H          -1.9000   -6.0507    1.0451 H       1  UNL1        0.0618
     52 H          -1.1746   -4.2019    2.4412 H       1  UNL1        0.0620
     53 H          -0.3671   -1.6764    2.2912 H       1  UNL1        0.0336
     54 H          -1.9959   -1.5452    2.9816 H       1  UNL1        0.0336
     55 H          -1.7352    0.5418    2.2365 H       1  UNL1        0.0600
     56 H           0.7464    0.0066    2.4428 H       1  UNL1        0.1549
     57 H           1.7228    0.5253   -1.1646 H       1  UNL1        0.0636
     58 H           4.0467    0.9898   -1.8572 H       1  UNL1        0.0624
     59 H           5.5244    3.2395   -0.9288 H       1  UNL1        0.0624
     60 H           7.8007    3.9020   -1.7376 H       1  UNL1        0.0618
     61 H           9.6232    2.3297   -1.5818 H       1  UNL1        0.0618
     62 H           9.2988    0.0842   -0.6473 H       1  UNL1        0.0637
     63 H           9.1378   -1.9302    1.0918 H       1  UNL1        0.1442
     64 H           9.0266   -1.9342   -0.6483 H       1  UNL1        0.1442
     65 H           5.2335    0.8810    2.2125 H       1  UNL1        0.0624
     66 H           2.9920    0.4015    2.8984 H       1  UNL1        0.0636
     67 H          -4.9637    2.7621   -0.3105 H       1  UNL1        0.0633
@<TRIPOS>BOND
     1     1     2    2
     2     2     3    1
     3     2     4    1
     4     4     5   ar
     5     5     6   ar
     6     6     7   ar
     7     7     8   ar
     8     8     9    1
     9     9    10    2
    10     9    11   am
    11    11    12    1
    12    12    13    1
    13    13    14   ar
    14    14    15   ar
    15    15    16   ar
    16    16    17   ar
    17    17    18   ar
    18    18    19    1
    19    19    20    1
    20    20    21    1
    21    21    22    2
    22    21    23   am
    23    23    24    1
    24    24    25   ar
    25    25    26   ar
    26    26    27   ar
    27    27    28    1
    28    28    29   ar
    29    29    30   ar
    30    30    31   ar
    31    31    32   ar
    32    32    33   ar
    33    33    34    1
    34    34    35    1
    35    34    36    2
    36    34    37    2
    37    27    38   ar
    38    38    39   ar
    39     8    40   ar
    40    40     4   ar
    41    20    11    1
    42    39    24   ar
    43    18    13   ar
    44    33    28   ar
    45     1    41    1
    46     3    42    1
    47     3    43    1
    48     5    44    1
    49     6    45    1
    50     7    46    1
    51    12    47    1
    52    12    48    1
    53    14    49    1
    54    15    50    1
    55    16    51    1
    56    17    52    1
    57    19    53    1
    58    19    54    1
    59    20    55    1
    60    23    56    1
    61    25    57    1
    62    26    58    1
    63    29    59    1
    64    30    60    1
    65    31    61    1
    66    32    62    1
    67    35    63    1
    68    35    64    1
    69    38    65    1
    70    39    66    1
    71    40    67    1
