@<TRIPOS>MOLECULE
*****
 44 46 0 0 0
SMALL
GASTEIGER

@<TRIPOS>ATOM
      1 C          -7.0517    0.4407    0.5512 C.3     1  UNL1        0.0004
      2 N          -5.6279    0.2843    0.2689 N.am    1  UNL1       -0.3131
      3 C          -5.0919   -0.9562   -0.1694 C.2     1  UNL1        0.2656
      4 O          -5.8151   -1.9618   -0.3310 O.2     1  UNL1       -0.2684
      5 C          -3.6458   -1.0633   -0.4415 C.ar    1  UNL1        0.1653
      6 N          -2.8436   -0.0119   -0.2803 N.ar    1  UNL1       -0.2371
      7 C          -1.5212   -0.1356   -0.5364 C.ar    1  UNL1        0.0901
      8 C          -0.7160    1.0652   -0.3338 C.ar    1  UNL1        0.0038
      9 C          -1.3027    2.2345    0.0929 C.ar    1  UNL1       -0.0510
     10 C          -0.5416    3.3550    0.2803 C.ar    1  UNL1       -0.0409
     11 C           0.8407    3.3242    0.0403 C.ar    1  UNL1        0.0676
     12 CL          1.7824    4.7739    0.2900 Cl      1  UNL1       -0.0815
     13 C           1.4320    2.1584   -0.3862 C.ar    1  UNL1        0.1273
     14 S           3.1498    2.0953   -0.6913 S.O2    1  UNL1        0.0738
     15 O           3.8852    2.4480    0.5759 O.2     1  UNL1       -0.1499
     16 O           3.4644    3.1399   -1.7539 O.2     1  UNL1       -0.1499
     17 N           3.6530    0.5472   -1.2104 N.pl3   1  UNL1       -0.2133
     18 C           4.5055   -0.2445   -0.4183 C.ar    1  UNL1        0.0860
     19 C           5.5946    0.2465    0.2676 C.ar    1  UNL1       -0.0363
     20 C           6.4180   -0.5657    1.0213 C.ar    1  UNL1       -0.0571
     21 C           6.1619   -1.9113    1.1037 C.ar    1  UNL1       -0.0235
     22 C           5.0670   -2.4418    0.4208 C.ar    1  UNL1        0.1603
     23 F           4.8418   -3.7800    0.5236 F       1  UNL1       -0.2024
     24 C           4.2530   -1.6249   -0.3268 C.ar    1  UNL1        0.1806
     25 F           3.2128   -2.1647   -0.9687 F       1  UNL1       -0.2005
     26 C           0.6498    1.0371   -0.5703 C.ar    1  UNL1       -0.0244
     27 C          -0.9715   -1.3238   -0.9623 C.ar    1  UNL1        0.0557
     28 N          -1.8204   -2.3816   -1.1174 N.ar    1  UNL1       -0.2363
     29 C          -3.1121   -2.2570   -0.8662 C.ar    1  UNL1        0.1470
     30 N          -3.9999   -3.3603   -1.0276 N.pl3   1  UNL1       -0.3413
     31 H          -7.1894    0.5173    1.6583 H       1  UNL1        0.0426
     32 H          -7.6168   -0.4283    0.2169 H       1  UNL1        0.0426
     33 H          -7.4212    1.3834    0.1120 H       1  UNL1        0.0426
     34 H          -4.9820    1.0934    0.3883 H       1  UNL1        0.1487
     35 H          -2.3782    2.2884    0.2880 H       1  UNL1        0.0625
     36 H          -1.0278    4.2642    0.6171 H       1  UNL1        0.0633
     37 H           3.3276    0.1752   -2.1281 H       1  UNL1        0.1738
     38 H           5.7937    1.3137    0.1836 H       1  UNL1        0.0637
     39 H           7.2583   -0.1602    1.5459 H       1  UNL1        0.0619
     40 H           6.7919   -2.5661    1.6871 H       1  UNL1        0.0647
     41 H           1.1835    0.1554   -0.9073 H       1  UNL1        0.0644
     42 H           0.0819   -1.4442   -1.1724 H       1  UNL1        0.0852
     43 H          -4.3177   -3.6898   -1.9635 H       1  UNL1        0.1438
     44 H          -4.3543   -3.8680   -0.1875 H       1  UNL1        0.1438
@<TRIPOS>BOND
     1     1     2    1
     2     2     3   am
     3     3     4    2
     4     3     5    1
     5     5     6   ar
     6     6     7   ar
     7     7     8    1
     8     8     9   ar
     9     9    10   ar
    10    10    11   ar
    11    11    12    1
    12    11    13   ar
    13    13    14    1
    14    14    15    2
    15    14    16    2
    16    14    17    1
    17    17    18    1
    18    18    19   ar
    19    19    20   ar
    20    20    21   ar
    21    21    22   ar
    22    22    23    1
    23    22    24   ar
    24    24    25    1
    25    13    26   ar
    26     7    27   ar
    27    27    28   ar
    28    28    29   ar
    29    29    30    1
    30    29     5   ar
    31    26     8   ar
    32    24    18   ar
    33     1    31    1
    34     1    32    1
    35     1    33    1
    36     2    34    1
    37     9    35    1
    38    10    36    1
    39    17    37    1
    40    19    38    1
    41    20    39    1
    42    21    40    1
    43    26    41    1
    44    27    42    1
    45    30    43    1
    46    30    44    1
