
     RDKit          3D

 44 46  0  0  0  0  0  0  0  0999 V2000
   -7.0517    0.4407    0.5512 C   0  0  0  0  0  0  0  0  0  0  0  0
   -5.6279    0.2843    0.2689 N   0  0  0  0  0  0  0  0  0  0  0  0
   -5.0919   -0.9562   -0.1694 C   0  0  0  0  0  0  0  0  0  0  0  0
   -5.8151   -1.9618   -0.3310 O   0  0  0  0  0  0  0  0  0  0  0  0
   -3.6458   -1.0633   -0.4415 C   0  0  0  0  0  0  0  0  0  0  0  0
   -2.8436   -0.0119   -0.2803 N   0  0  0  0  0  0  0  0  0  0  0  0
   -1.5212   -0.1356   -0.5364 C   0  0  0  0  0  0  0  0  0  0  0  0
   -0.7160    1.0652   -0.3338 C   0  0  0  0  0  0  0  0  0  0  0  0
   -1.3027    2.2345    0.0929 C   0  0  0  0  0  0  0  0  0  0  0  0
   -0.5416    3.3550    0.2803 C   0  0  0  0  0  0  0  0  0  0  0  0
    0.8407    3.3242    0.0403 C   0  0  0  0  0  0  0  0  0  0  0  0
    1.7824    4.7739    0.2900 Cl  0  0  0  0  0  0  0  0  0  0  0  0
    1.4320    2.1584   -0.3862 C   0  0  0  0  0  0  0  0  0  0  0  0
    3.1498    2.0953   -0.6913 S   0  0  0  0  0  6  0  0  0  0  0  0
    3.8852    2.4480    0.5759 O   0  0  0  0  0  0  0  0  0  0  0  0
    3.4644    3.1399   -1.7539 O   0  0  0  0  0  0  0  0  0  0  0  0
    3.6530    0.5472   -1.2104 N   0  0  0  0  0  0  0  0  0  0  0  0
    4.5055   -0.2445   -0.4183 C   0  0  0  0  0  0  0  0  0  0  0  0
    5.5946    0.2465    0.2676 C   0  0  0  0  0  0  0  0  0  0  0  0
    6.4180   -0.5657    1.0213 C   0  0  0  0  0  0  0  0  0  0  0  0
    6.1619   -1.9113    1.1037 C   0  0  0  0  0  0  0  0  0  0  0  0
    5.0670   -2.4418    0.4208 C   0  0  0  0  0  0  0  0  0  0  0  0
    4.8418   -3.7800    0.5236 F   0  0  0  0  0  0  0  0  0  0  0  0
    4.2530   -1.6249   -0.3268 C   0  0  0  0  0  0  0  0  0  0  0  0
    3.2128   -2.1647   -0.9687 F   0  0  0  0  0  0  0  0  0  0  0  0
    0.6498    1.0371   -0.5703 C   0  0  0  0  0  0  0  0  0  0  0  0
   -0.9715   -1.3238   -0.9623 C   0  0  0  0  0  0  0  0  0  0  0  0
   -1.8204   -2.3816   -1.1174 N   0  0  0  0  0  0  0  0  0  0  0  0
   -3.1121   -2.2570   -0.8662 C   0  0  0  0  0  0  0  0  0  0  0  0
   -3.9999   -3.3603   -1.0276 N   0  0  0  0  0  0  0  0  0  0  0  0
   -7.1894    0.5173    1.6583 H   0  0  0  0  0  0  0  0  0  0  0  0
   -7.6168   -0.4283    0.2169 H   0  0  0  0  0  0  0  0  0  0  0  0
   -7.4212    1.3834    0.1120 H   0  0  0  0  0  0  0  0  0  0  0  0
   -4.9820    1.0934    0.3883 H   0  0  0  0  0  0  0  0  0  0  0  0
   -2.3782    2.2884    0.2880 H   0  0  0  0  0  0  0  0  0  0  0  0
   -1.0278    4.2642    0.6171 H   0  0  0  0  0  0  0  0  0  0  0  0
    3.3276    0.1752   -2.1281 H   0  0  0  0  0  0  0  0  0  0  0  0
    5.7937    1.3137    0.1836 H   0  0  0  0  0  0  0  0  0  0  0  0
    7.2583   -0.1602    1.5459 H   0  0  0  0  0  0  0  0  0  0  0  0
    6.7919   -2.5661    1.6871 H   0  0  0  0  0  0  0  0  0  0  0  0
    1.1835    0.1554   -0.9073 H   0  0  0  0  0  0  0  0  0  0  0  0
    0.0819   -1.4442   -1.1724 H   0  0  0  0  0  0  0  0  0  0  0  0
   -4.3177   -3.6898   -1.9635 H   0  0  0  0  0  0  0  0  0  0  0  0
   -4.3543   -3.8680   -0.1875 H   0  0  0  0  0  0  0  0  0  0  0  0
  1  2  1  0
  2  3  1  0
  3  4  2  0
  3  5  1  0
  5  6  2  0
  6  7  1  0
  7  8  1  0
  8  9  2  0
  9 10  1  0
 10 11  2  0
 11 12  1  0
 11 13  1  0
 13 14  1  0
 14 15  2  0
 14 16  2  0
 14 17  1  0
 17 18  1  0
 18 19  2  0
 19 20  1  0
 20 21  2  0
 21 22  1  0
 22 23  1  0
 22 24  2  0
 24 25  1  0
 13 26  2  0
  7 27  2  0
 27 28  1  0
 28 29  2  0
 29 30  1  0
 29  5  1  0
 26  8  1  0
 24 18  1  0
  1 31  1  0
  1 32  1  0
  1 33  1  0
  2 34  1  0
  9 35  1  0
 10 36  1  0
 17 37  1  0
 19 38  1  0
 20 39  1  0
 21 40  1  0
 26 41  1  0
 27 42  1  0
 30 43  1  0
 30 44  1  0
M  END
$$$$
