
     RDKit          3D

 45 49  0  0  0  0  0  0  0  0999 V2000
   -4.9072   -2.7982    1.7299 N   0  0  0  0  0  0  0  0  0  0  0  0
   -5.5813   -2.0281    1.2134 C   0  0  0  0  0  0  0  0  0  0  0  0
   -6.4816   -0.9842    0.4897 C   0  0  0  0  0  0  0  0  0  0  0  0
   -7.7604   -0.8481    0.8526 C   0  0  0  0  0  0  0  0  0  0  0  0
   -8.3223    0.4342    0.4649 C   0  0  0  0  0  0  0  0  0  0  0  0
   -7.6136    1.3477   -0.1767 C   0  0  0  0  0  0  0  0  0  0  0  0
   -6.2634    1.1629   -0.5587 C   0  0  0  0  0  0  0  0  0  0  0  0
   -5.7050   -0.0422   -0.2054 C   0  0  0  0  0  0  0  0  0  0  0  0
   -4.2630   -0.3108   -0.4862 C   0  0  0  0  0  0  0  0  0  0  0  0
   -3.4165    0.7938   -0.4161 C   0  0  0  0  0  0  0  0  0  0  0  0
   -2.0708    0.4955   -0.1635 C   0  0  0  0  0  0  0  0  0  0  0  0
   -1.6818   -0.8075   -0.0094 C   0  0  0  0  0  0  0  0  0  0  0  0
   -0.3319   -1.0494    0.6793 C   0  0  0  0  0  0  0  0  0  0  0  0
   -0.0578    0.6441    1.6139 S   0  0  0  0  0  0  0  0  0  0  0  0
    1.7494    0.7630    1.3927 C   0  0  0  0  0  0  0  0  0  0  0  0
    2.5454    0.2494    2.4015 N   0  0  0  0  0  0  0  0  0  0  0  0
    3.7567    0.3894    2.0010 N   0  0  0  0  0  0  0  0  0  0  0  0
    3.6970    1.0305    0.6883 C   0  0  0  0  0  0  0  0  0  0  0  0
    5.0198    1.1959    0.1630 C   0  0  0  0  0  0  0  0  0  0  0  0
    5.8857    2.2029    0.0850 C   0  0  0  0  0  0  0  0  0  0  0  0
    7.2098    2.0038   -0.3506 C   0  0  0  0  0  0  0  0  0  0  0  0
    7.6264    0.7692   -0.7047 C   0  0  0  0  0  0  0  0  0  0  0  0
    6.7711   -0.2767   -0.6470 C   0  0  0  0  0  0  0  0  0  0  0  0
    5.5063   -0.1322   -0.2367 C   0  0  0  0  0  0  0  0  0  0  0  0
    7.4680   -1.4576   -1.0721 O   0  0  0  0  0  0  0  0  0  0  0  0
    8.8428   -1.1508   -0.6792 C   0  0  0  0  0  0  0  0  0  0  0  0
    8.8612    0.2329   -1.1659 O   0  0  0  0  0  0  0  0  0  0  0  0
    2.4864    1.1946    0.4567 O   0  0  0  0  0  0  0  0  0  0  0  0
   -2.5318   -1.8689   -0.1168 C   0  0  0  0  0  0  0  0  0  0  0  0
   -3.8631   -1.5954   -0.3678 C   0  0  0  0  0  0  0  0  0  0  0  0
   -8.3382   -1.5843    1.3570 H   0  0  0  0  0  0  0  0  0  0  0  0
   -9.3442    0.6258    0.8128 H   0  0  0  0  0  0  0  0  0  0  0  0
   -8.0251    2.3494   -0.4036 H   0  0  0  0  0  0  0  0  0  0  0  0
   -5.7623    1.9447   -1.0554 H   0  0  0  0  0  0  0  0  0  0  0  0
   -3.7734    1.7698   -0.5903 H   0  0  0  0  0  0  0  0  0  0  0  0
   -1.3430    1.2979   -0.0712 H   0  0  0  0  0  0  0  0  0  0  0  0
   -0.4386   -1.6715    1.5920 H   0  0  0  0  0  0  0  0  0  0  0  0
    0.5084   -1.2435    0.1052 H   0  0  0  0  0  0  0  0  0  0  0  0
    5.5265    3.2282    0.3422 H   0  0  0  0  0  0  0  0  0  0  0  0
    7.8799    2.9059   -0.3938 H   0  0  0  0  0  0  0  0  0  0  0  0
    4.7668   -0.8834   -0.1480 H   0  0  0  0  0  0  0  0  0  0  0  0
    9.5663   -1.7685   -1.1082 H   0  0  0  0  0  0  0  0  0  0  0  0
    8.9280   -1.1539    0.4480 H   0  0  0  0  0  0  0  0  0  0  0  0
   -2.1864   -2.9294   -0.0097 H   0  0  0  0  0  0  0  0  0  0  0  0
   -4.5389   -2.4470   -0.5893 H   0  0  0  0  0  0  0  0  0  0  0  0
  1  2  3  0
  2  3  1  0
  3  4  2  0
  4  5  1  0
  5  6  2  0
  6  7  1  0
  7  8  2  0
  8  9  1  0
  9 10  2  0
 10 11  1  0
 11 12  2  0
 12 13  1  0
 13 14  1  0
 14 15  1  0
 15 16  2  0
 16 17  1  0
 17 18  2  0
 18 19  1  0
 19 20  2  0
 20 21  1  0
 21 22  2  0
 22 23  1  0
 23 24  2  0
 23 25  1  0
 25 26  1  0
 26 27  1  0
 18 28  1  0
 12 29  1  0
 29 30  2  0
  8  3  1  0
 30  9  1  0
 28 15  1  0
 24 19  1  0
 27 22  1  0
  4 31  1  0
  5 32  1  0
  6 33  1  0
  7 34  1  0
 10 35  1  0
 11 36  1  0
 13 37  1  0
 13 38  1  0
 20 39  1  0
 21 40  1  0
 24 41  1  0
 26 42  1  0
 26 43  1  0
 29 44  1  0
 30 45  1  0
M  END
$$$$
