@<TRIPOS>MOLECULE
*****
 45 49 0 0 0
SMALL
GASTEIGER

@<TRIPOS>ATOM
      1 N          -4.9072   -2.7982    1.7299 N.1     1  UNL1       -0.1909
      2 C          -5.5813   -2.0281    1.2134 C.1     1  UNL1        0.0998
      3 C          -6.4816   -0.9842    0.4897 C.ar    1  UNL1        0.0595
      4 C          -7.7604   -0.8481    0.8526 C.ar    1  UNL1       -0.0438
      5 C          -8.3223    0.4342    0.4649 C.ar    1  UNL1       -0.0605
      6 C          -7.6136    1.3477   -0.1767 C.ar    1  UNL1       -0.0611
      7 C          -6.2634    1.1629   -0.5587 C.ar    1  UNL1       -0.0528
      8 C          -5.7050   -0.0422   -0.2054 C.ar    1  UNL1       -0.0005
      9 C          -4.2630   -0.3108   -0.4862 C.ar    1  UNL1       -0.0166
     10 C          -3.4165    0.7938   -0.4161 C.ar    1  UNL1       -0.0537
     11 C          -2.0708    0.4955   -0.1635 C.ar    1  UNL1       -0.0572
     12 C          -1.6818   -0.8075   -0.0094 C.ar    1  UNL1       -0.0370
     13 C          -0.3319   -1.0494    0.6793 C.3     1  UNL1        0.0278
     14 S          -0.0578    0.6441    1.6139 S.3     1  UNL1       -0.0609
     15 C           1.7494    0.7630    1.3927 C.ar    1  UNL1        0.2779
     16 N           2.5454    0.2494    2.4015 N.ar    1  UNL1       -0.1006
     17 N           3.7567    0.3894    2.0010 N.ar    1  UNL1       -0.1065
     18 C           3.6970    1.0305    0.6883 C.ar    1  UNL1        0.2493
     19 C           5.0198    1.1959    0.1630 C.ar    1  UNL1        0.0422
     20 C           5.8857    2.2029    0.0850 C.ar    1  UNL1       -0.0458
     21 C           7.2098    2.0038   -0.3506 C.ar    1  UNL1       -0.0154
     22 C           7.6264    0.7692   -0.7047 C.ar    1  UNL1        0.1663
     23 C           6.7711   -0.2767   -0.6470 C.ar    1  UNL1        0.1670
     24 C           5.5063   -0.1322   -0.2367 C.ar    1  UNL1       -0.0039
     25 O           7.4680   -1.4576   -1.0721 O.3     1  UNL1       -0.4526
     26 C           8.8428   -1.1508   -0.6792 C.3     1  UNL1        0.2332
     27 O           8.8612    0.2329   -1.1659 O.3     1  UNL1       -0.4526
     28 O           2.4864    1.1946    0.4567 O.2     1  UNL1       -0.4110
     29 C          -2.5318   -1.8689   -0.1168 C.ar    1  UNL1       -0.0572
     30 C          -3.8631   -1.5954   -0.3678 C.ar    1  UNL1       -0.0537
     31 H          -8.3382   -1.5843    1.3570 H       1  UNL1        0.0631
     32 H          -9.3442    0.6258    0.8128 H       1  UNL1        0.0618
     33 H          -8.0251    2.3494   -0.4036 H       1  UNL1        0.0618
     34 H          -5.7623    1.9447   -1.0554 H       1  UNL1        0.0624
     35 H          -3.7734    1.7698   -0.5903 H       1  UNL1        0.0624
     36 H          -1.3430    1.2979   -0.0712 H       1  UNL1        0.0621
     37 H          -0.4386   -1.6715    1.5920 H       1  UNL1        0.0430
     38 H           0.5084   -1.2435    0.1052 H       1  UNL1        0.0430
     39 H           5.5265    3.2282    0.3422 H       1  UNL1        0.0626
     40 H           7.8799    2.9059   -0.3938 H       1  UNL1        0.0655
     41 H           4.7668   -0.8834   -0.1480 H       1  UNL1        0.0663
     42 H           9.5663   -1.7685   -1.1082 H       1  UNL1        0.1166
     43 H           8.9280   -1.1539    0.4480 H       1  UNL1        0.1166
     44 H          -2.1864   -2.9294   -0.0097 H       1  UNL1        0.0621
     45 H          -4.5389   -2.4470   -0.5893 H       1  UNL1        0.0624
@<TRIPOS>BOND
     1     1     2    3
     2     2     3    1
     3     3     4   ar
     4     4     5   ar
     5     5     6   ar
     6     6     7   ar
     7     7     8   ar
     8     8     9    1
     9     9    10   ar
    10    10    11   ar
    11    11    12   ar
    12    12    13    1
    13    13    14    1
    14    14    15    1
    15    15    16   ar
    16    16    17   ar
    17    17    18   ar
    18    18    19    1
    19    19    20   ar
    20    20    21   ar
    21    21    22   ar
    22    22    23   ar
    23    23    24   ar
    24    23    25    1
    25    25    26    1
    26    26    27    1
    27    18    28   ar
    28    12    29   ar
    29    29    30   ar
    30     8     3   ar
    31    30     9   ar
    32    28    15   ar
    33    24    19   ar
    34    27    22    1
    35     4    31    1
    36     5    32    1
    37     6    33    1
    38     7    34    1
    39    10    35    1
    40    11    36    1
    41    13    37    1
    42    13    38    1
    43    20    39    1
    44    21    40    1
    45    24    41    1
    46    26    42    1
    47    26    43    1
    48    29    44    1
    49    30    45    1
