@<TRIPOS>MOLECULE
*****
 10 9 0 0 0
SMALL
GASTEIGER

@<TRIPOS>ATOM
      1 O          -2.5520   -0.0414   -0.2311 O.3     1  UNL1       -0.4747
      2 C          -1.2192    0.1311    0.1059 C.2     1  UNL1        0.3843
      3 O          -1.3153    1.1199    0.9099 O.2     1  UNL1       -0.2412
      4 C          -0.0126   -0.5796   -0.3060 C.2     1  UNL1        0.3448
      5 O          -0.0213   -1.5505   -1.1104 O.2     1  UNL1       -0.2726
      6 C           1.1980   -0.0241    0.3300 C.2     1  UNL1        0.3843
      7 O           2.4097   -0.5900    0.0386 O.3     1  UNL1       -0.4747
      8 O           1.3468    0.9385    1.1479 O.2     1  UNL1       -0.2412
      9 H          -3.1023    0.6442   -0.7439 H       1  UNL1        0.2955
     10 H           3.2682   -0.0481   -0.1409 H       1  UNL1        0.2955
@<TRIPOS>BOND
     1     1     2    1
     2     2     3    2
     3     2     4    1
     4     4     5    2
     5     4     6    1
     6     6     7    1
     7     6     8    2
     8     1     9    1
     9     7    10    1
