@<TRIPOS>MOLECULE
*****
 50 53 0 0 0
SMALL
GASTEIGER

@<TRIPOS>ATOM
      1 C          -7.9417   -1.2104   -1.6987 C.3     1  UNL1        0.0004
      2 N          -6.9036   -0.7026   -0.7873 N.am    1  UNL1       -0.3144
      3 C          -5.5772   -1.1630   -0.8387 C.2     1  UNL1        0.2439
      4 O          -5.3237   -2.0453   -1.7192 O.2     1  UNL1       -0.2702
      5 C          -4.5225   -0.6878    0.0427 C.ar    1  UNL1        0.0385
      6 C          -4.7348    0.2578    1.0044 C.ar    1  UNL1       -0.0493
      7 C          -3.7062    0.6814    1.8204 C.ar    1  UNL1       -0.0564
      8 C          -2.4493    0.1315    1.6496 C.ar    1  UNL1       -0.0292
      9 C          -1.3533    0.5917    2.5410 C.3     1  UNL1       -0.0380
     10 C          -2.1960   -0.8257    0.6888 C.ar    1  UNL1        0.0361
     11 N          -0.8873   -1.3614    0.5583 N.pl3   1  UNL1       -0.2985
     12 C           0.2498   -0.5740    0.2313 C.ar    1  UNL1        0.1388
     13 N           0.1906    0.7420   -0.0057 N.ar    1  UNL1       -0.1987
     14 C           1.2483    1.5111   -0.3171 C.ar    1  UNL1        0.2186
     15 N           1.1303    2.9123   -0.5607 N.pl3   1  UNL1       -0.3164
     16 C           1.2615    3.8695    0.5179 C.3     1  UNL1        0.0003
     17 N           2.4608    0.9143   -0.3971 N.ar    1  UNL1       -0.1946
     18 C           2.5947   -0.4029   -0.1717 C.ar    1  UNL1        0.1700
     19 C           1.4941   -1.1627    0.1447 C.ar    1  UNL1        0.0790
     20 C           1.9789   -2.4601    0.3110 C.ar    1  UNL1        0.0624
     21 N           3.3044   -2.4248    0.0947 N.ar    1  UNL1       -0.1721
     22 N           3.6820   -1.1918   -0.1960 N.ar    1  UNL1       -0.2138
     23 C           4.9990   -0.7436   -0.4885 C.ar    1  UNL1        0.0677
     24 C           5.8057   -0.2434    0.5144 C.ar    1  UNL1       -0.0362
     25 C           7.0870    0.1989    0.2581 C.ar    1  UNL1       -0.0598
     26 C           7.6064    0.1546   -1.0191 C.ar    1  UNL1       -0.0616
     27 C           6.8092   -0.3435   -2.0303 C.ar    1  UNL1       -0.0598
     28 C           5.5141   -0.7898   -1.7673 C.ar    1  UNL1       -0.0362
     29 C          -3.2427   -1.2267   -0.1083 C.ar    1  UNL1       -0.0281
     30 H          -8.2745   -0.3809   -2.3718 H       1  UNL1        0.0426
     31 H          -8.7845   -1.5309   -1.0483 H       1  UNL1        0.0426
     32 H          -7.5290   -2.0134   -2.3083 H       1  UNL1        0.0426
     33 H          -7.1811    0.0164   -0.0943 H       1  UNL1        0.1487
     34 H          -5.7402    0.6920    1.1349 H       1  UNL1        0.0625
     35 H          -3.9018    1.4297    2.5718 H       1  UNL1        0.0621
     36 H          -1.0543    1.6312    2.3255 H       1  UNL1        0.0278
     37 H          -0.5088   -0.1279    2.5496 H       1  UNL1        0.0278
     38 H          -1.7809    0.5869    3.5875 H       1  UNL1        0.0278
     39 H          -0.7673   -2.3892    0.7129 H       1  UNL1        0.1536
     40 H           0.9466    3.2296   -1.5380 H       1  UNL1        0.1486
     41 H           0.9002    3.4580    1.4954 H       1  UNL1        0.0426
     42 H           0.6647    4.7636    0.2175 H       1  UNL1        0.0426
     43 H           2.3137    4.1650    0.5890 H       1  UNL1        0.0426
     44 H           1.3385   -3.2849    0.5666 H       1  UNL1        0.0856
     45 H           5.3958   -0.2098    1.5150 H       1  UNL1        0.0639
     46 H           7.7224    0.5951    1.0588 H       1  UNL1        0.0618
     47 H           8.6116    0.4943   -1.2586 H       1  UNL1        0.0618
     48 H           7.2206   -0.3753   -3.0252 H       1  UNL1        0.0618
     49 H           4.9092   -1.1749   -2.5726 H       1  UNL1        0.0639
     50 H          -3.0793   -1.9805   -0.8769 H       1  UNL1        0.0644
@<TRIPOS>BOND
     1     1     2    1
     2     2     3   am
     3     3     4    2
     4     3     5    1
     5     5     6   ar
     6     6     7   ar
     7     7     8   ar
     8     8     9    1
     9     8    10   ar
    10    10    11    1
    11    11    12    1
    12    12    13   ar
    13    13    14   ar
    14    14    15    1
    15    15    16    1
    16    14    17   ar
    17    17    18   ar
    18    18    19   ar
    19    19    20   ar
    20    20    21   ar
    21    21    22   ar
    22    22    23    1
    23    23    24   ar
    24    24    25   ar
    25    25    26   ar
    26    26    27   ar
    27    27    28   ar
    28    10    29   ar
    29    29     5   ar
    30    19    12   ar
    31    28    23   ar
    32    22    18   ar
    33     1    30    1
    34     1    31    1
    35     1    32    1
    36     2    33    1
    37     6    34    1
    38     7    35    1
    39     9    36    1
    40     9    37    1
    41     9    38    1
    42    11    39    1
    43    15    40    1
    44    16    41    1
    45    16    42    1
    46    16    43    1
    47    20    44    1
    48    24    45    1
    49    25    46    1
    50    26    47    1
    51    27    48    1
    52    28    49    1
    53    29    50    1
