
     RDKit          3D

 50 53  0  0  0  0  0  0  0  0999 V2000
   -7.9417   -1.2104   -1.6987 C   0  0  0  0  0  0  0  0  0  0  0  0
   -6.9036   -0.7026   -0.7873 N   0  0  0  0  0  0  0  0  0  0  0  0
   -5.5772   -1.1630   -0.8387 C   0  0  0  0  0  0  0  0  0  0  0  0
   -5.3237   -2.0453   -1.7192 O   0  0  0  0  0  0  0  0  0  0  0  0
   -4.5225   -0.6878    0.0427 C   0  0  0  0  0  0  0  0  0  0  0  0
   -4.7348    0.2578    1.0044 C   0  0  0  0  0  0  0  0  0  0  0  0
   -3.7062    0.6814    1.8204 C   0  0  0  0  0  0  0  0  0  0  0  0
   -2.4493    0.1315    1.6496 C   0  0  0  0  0  0  0  0  0  0  0  0
   -1.3533    0.5917    2.5410 C   0  0  0  0  0  0  0  0  0  0  0  0
   -2.1960   -0.8257    0.6888 C   0  0  0  0  0  0  0  0  0  0  0  0
   -0.8873   -1.3614    0.5583 N   0  0  0  0  0  0  0  0  0  0  0  0
    0.2498   -0.5740    0.2313 C   0  0  0  0  0  0  0  0  0  0  0  0
    0.1906    0.7420   -0.0057 N   0  0  0  0  0  0  0  0  0  0  0  0
    1.2483    1.5111   -0.3171 C   0  0  0  0  0  0  0  0  0  0  0  0
    1.1303    2.9123   -0.5607 N   0  0  0  0  0  0  0  0  0  0  0  0
    1.2615    3.8695    0.5179 C   0  0  0  0  0  0  0  0  0  0  0  0
    2.4608    0.9143   -0.3971 N   0  0  0  0  0  0  0  0  0  0  0  0
    2.5947   -0.4029   -0.1717 C   0  0  0  0  0  0  0  0  0  0  0  0
    1.4941   -1.1627    0.1447 C   0  0  0  0  0  0  0  0  0  0  0  0
    1.9789   -2.4601    0.3110 C   0  0  0  0  0  0  0  0  0  0  0  0
    3.3044   -2.4248    0.0947 N   0  0  0  0  0  0  0  0  0  0  0  0
    3.6820   -1.1918   -0.1960 N   0  0  0  0  0  0  0  0  0  0  0  0
    4.9990   -0.7436   -0.4885 C   0  0  0  0  0  0  0  0  0  0  0  0
    5.8057   -0.2434    0.5144 C   0  0  0  0  0  0  0  0  0  0  0  0
    7.0870    0.1989    0.2581 C   0  0  0  0  0  0  0  0  0  0  0  0
    7.6064    0.1546   -1.0191 C   0  0  0  0  0  0  0  0  0  0  0  0
    6.8092   -0.3435   -2.0303 C   0  0  0  0  0  0  0  0  0  0  0  0
    5.5141   -0.7898   -1.7673 C   0  0  0  0  0  0  0  0  0  0  0  0
   -3.2427   -1.2267   -0.1083 C   0  0  0  0  0  0  0  0  0  0  0  0
   -8.2745   -0.3809   -2.3718 H   0  0  0  0  0  0  0  0  0  0  0  0
   -8.7845   -1.5309   -1.0483 H   0  0  0  0  0  0  0  0  0  0  0  0
   -7.5290   -2.0134   -2.3083 H   0  0  0  0  0  0  0  0  0  0  0  0
   -7.1811    0.0164   -0.0943 H   0  0  0  0  0  0  0  0  0  0  0  0
   -5.7402    0.6920    1.1349 H   0  0  0  0  0  0  0  0  0  0  0  0
   -3.9018    1.4297    2.5718 H   0  0  0  0  0  0  0  0  0  0  0  0
   -1.0543    1.6312    2.3255 H   0  0  0  0  0  0  0  0  0  0  0  0
   -0.5088   -0.1279    2.5496 H   0  0  0  0  0  0  0  0  0  0  0  0
   -1.7809    0.5869    3.5875 H   0  0  0  0  0  0  0  0  0  0  0  0
   -0.7673   -2.3892    0.7129 H   0  0  0  0  0  0  0  0  0  0  0  0
    0.9466    3.2296   -1.5380 H   0  0  0  0  0  0  0  0  0  0  0  0
    0.9002    3.4580    1.4954 H   0  0  0  0  0  0  0  0  0  0  0  0
    0.6647    4.7636    0.2175 H   0  0  0  0  0  0  0  0  0  0  0  0
    2.3137    4.1650    0.5890 H   0  0  0  0  0  0  0  0  0  0  0  0
    1.3385   -3.2849    0.5666 H   0  0  0  0  0  0  0  0  0  0  0  0
    5.3958   -0.2098    1.5150 H   0  0  0  0  0  0  0  0  0  0  0  0
    7.7224    0.5951    1.0588 H   0  0  0  0  0  0  0  0  0  0  0  0
    8.6116    0.4943   -1.2586 H   0  0  0  0  0  0  0  0  0  0  0  0
    7.2206   -0.3753   -3.0252 H   0  0  0  0  0  0  0  0  0  0  0  0
    4.9092   -1.1749   -2.5726 H   0  0  0  0  0  0  0  0  0  0  0  0
   -3.0793   -1.9805   -0.8769 H   0  0  0  0  0  0  0  0  0  0  0  0
  1  2  1  0
  2  3  1  0
  3  4  2  0
  3  5  1  0
  5  6  2  0
  6  7  1  0
  7  8  2  0
  8  9  1  0
  8 10  1  0
 10 11  1  0
 11 12  1  0
 12 13  2  0
 13 14  1  0
 14 15  1  0
 15 16  1  0
 14 17  2  0
 17 18  1  0
 18 19  2  0
 19 20  1  0
 20 21  2  0
 21 22  1  0
 22 23  1  0
 23 24  2  0
 24 25  1  0
 25 26  2  0
 26 27  1  0
 27 28  2  0
 10 29  2  0
 29  5  1  0
 19 12  1  0
 28 23  1  0
 22 18  1  0
  1 30  1  0
  1 31  1  0
  1 32  1  0
  2 33  1  0
  6 34  1  0
  7 35  1  0
  9 36  1  0
  9 37  1  0
  9 38  1  0
 11 39  1  0
 15 40  1  0
 16 41  1  0
 16 42  1  0
 16 43  1  0
 20 44  1  0
 24 45  1  0
 25 46  1  0
 26 47  1  0
 27 48  1  0
 28 49  1  0
 29 50  1  0
M  END
$$$$
