@<TRIPOS>MOLECULE
*****
 39 40 0 0 0
SMALL
GASTEIGER

@<TRIPOS>ATOM
      1 C          -7.6993    0.7035   -0.6677 C.3     1  UNL1       -0.0397
      2 C          -6.3309    0.1592   -0.3628 C.ar    1  UNL1       -0.0503
      3 C          -5.8474    0.0442    0.9307 C.ar    1  UNL1       -0.0570
      4 C          -4.5871   -0.4586    1.1904 C.ar    1  UNL1       -0.0348
      5 C          -3.7796   -0.8589    0.1592 C.ar    1  UNL1        0.1086
      6 C          -4.2536   -0.7485   -1.1451 C.ar    1  UNL1       -0.0348
      7 C          -5.5262   -0.2417   -1.4213 C.ar    1  UNL1       -0.0570
      8 S          -2.1662   -1.5157    0.2884 S.O2    1  UNL1        0.0756
      9 O          -2.0311   -2.2171    1.6059 O.2     1  UNL1       -0.1499
     10 O          -1.8991   -2.5162   -0.7929 O.2     1  UNL1       -0.1499
     11 N          -1.0013   -0.2191    0.2326 N.am    1  UNL1       -0.1691
     12 C           0.3632   -0.5681    0.3243 C.2     1  UNL1        0.3231
     13 O           0.7624   -1.7430    0.4415 O.2     1  UNL1       -0.2509
     14 N           1.2487    0.5498    0.2707 N.am    1  UNL1       -0.2683
     15 C           2.6696    0.5837    0.3328 C.ar    1  UNL1        0.0349
     16 C           3.5115    0.6933    1.4205 C.ar    1  UNL1       -0.0386
     17 C           4.8721    0.7031    1.2124 C.ar    1  UNL1       -0.0336
     18 C           5.4337    0.6076   -0.0435 C.ar    1  UNL1        0.1051
     19 C           4.5903    0.4966   -1.1481 C.ar    1  UNL1       -0.0336
     20 C           3.2053    0.4853   -0.9519 C.ar    1  UNL1       -0.0386
     21 S           7.1709    0.6258   -0.2424 S.O2    1  UNL1        0.0559
     22 N           7.7700   -0.9846   -0.1695 N.3     1  UNL1       -0.2035
     23 O           7.7509    1.4200    0.8731 O.2     1  UNL1       -0.1533
     24 O           7.5677    1.3050   -1.5220 O.2     1  UNL1       -0.1533
     25 H          -8.0685    1.3038    0.1931 H       1  UNL1        0.0278
     26 H          -8.4128   -0.0648   -0.9614 H       1  UNL1        0.0278
     27 H          -7.5658    1.3660   -1.5715 H       1  UNL1        0.0278
     28 H          -6.4695    0.3549    1.7617 H       1  UNL1        0.0621
     29 H          -4.1774   -0.5636    2.1694 H       1  UNL1        0.0637
     30 H          -3.6812   -1.0411   -2.0117 H       1  UNL1        0.0637
     31 H          -5.8922   -0.1579   -2.4480 H       1  UNL1        0.0621
     32 H          -1.3527    0.7788    0.1325 H       1  UNL1        0.1781
     33 H           0.9378    1.5471    0.1726 H       1  UNL1        0.1564
     34 H           2.9776    0.7608    2.3418 H       1  UNL1        0.0637
     35 H           5.4778    0.7918    2.1124 H       1  UNL1        0.0638
     36 H           5.0763    0.4254   -2.1009 H       1  UNL1        0.0638
     37 H           2.6683    0.3949   -1.8878 H       1  UNL1        0.0637
     38 H           8.7221   -1.0176   -0.6348 H       1  UNL1        0.1442
     39 H           7.9660   -1.1842    0.8496 H       1  UNL1        0.1442
@<TRIPOS>BOND
     1     1     2    1
     2     2     3   ar
     3     3     4   ar
     4     4     5   ar
     5     5     6   ar
     6     6     7   ar
     7     5     8    1
     8     8     9    2
     9     8    10    2
    10     8    11    1
    11    11    12   am
    12    12    13    2
    13    12    14   am
    14    14    15    1
    15    15    16   ar
    16    16    17   ar
    17    17    18   ar
    18    18    19   ar
    19    19    20   ar
    20    18    21    1
    21    21    22    1
    22    21    23    2
    23    21    24    2
    24     7     2   ar
    25    20    15   ar
    26     1    25    1
    27     1    26    1
    28     1    27    1
    29     3    28    1
    30     4    29    1
    31     6    30    1
    32     7    31    1
    33    11    32    1
    34    14    33    1
    35    16    34    1
    36    17    35    1
    37    19    36    1
    38    20    37    1
    39    22    38    1
    40    22    39    1
