@<TRIPOS>MOLECULE
*****
 111 110 0 0 0
SMALL
GASTEIGER

@<TRIPOS>ATOM
      1 C          -6.1466    6.6012   -1.1195 C.3     1  UNL1       -0.0622
      2 C          -5.8731    5.5339   -0.1126 C.3     1  UNL1       -0.0385
      3 C          -4.3507    5.4932    0.1105 C.3     1  UNL1       -0.0622
      4 C          -6.3178    4.1960   -0.6779 C.3     1  UNL1        0.0263
      5 C          -6.0843    3.1030    0.3036 C.2     1  UNL1        0.2139
      6 O          -5.6351    3.3623    1.4507 O.2     1  UNL1       -0.2758
      7 N          -6.3664    1.7785   -0.0397 N.am    1  UNL1       -0.3037
      8 C          -6.1801    0.6554    0.8924 C.3     1  UNL1        0.1017
      9 C          -5.1230   -0.2549    0.4124 C.2     1  UNL1        0.2342
     10 O          -4.5425   -0.0633   -0.7136 O.2     1  UNL1       -0.2738
     11 N          -4.6889   -1.3788    1.1550 N.am    1  UNL1       -0.3022
     12 C          -3.6837   -2.3263    0.8131 C.3     1  UNL1        0.1017
     13 C          -2.3857   -1.7686    0.3832 C.2     1  UNL1        0.2339
     14 O          -2.2072   -0.5536    0.2598 O.2     1  UNL1       -0.2738
     15 N          -1.3413   -2.6745    0.1211 N.am    1  UNL1       -0.3084
     16 C           0.0233   -2.2561   -0.3003 C.3     1  UNL1        0.0498
     17 C           0.8830   -2.3095    0.8889 C.3     1  UNL1       -0.0297
     18 C           1.0123   -3.5860    1.6428 C.3     1  UNL1       -0.0450
     19 C           2.0139   -3.2848    2.7852 C.3     1  UNL1       -0.0626
     20 C          -0.2580   -4.0021    2.3752 C.3     1  UNL1       -0.0626
     21 C           0.3641   -2.8448   -1.5879 C.3     1  UNL1        0.0817
     22 O          -0.7046   -2.4482   -2.5050 O.3     1  UNL1       -0.3895
     23 C           1.6186   -2.4234   -2.2733 C.3     1  UNL1        0.0517
     24 C           2.8566   -2.7526   -1.6179 C.2     1  UNL1        0.2161
     25 O           2.9804   -3.6255   -0.7506 O.2     1  UNL1       -0.2757
     26 N           4.1077   -2.0668   -1.9302 N.am    1  UNL1       -0.3042
     27 C           5.3165   -2.4071   -1.2667 C.3     1  UNL1        0.0966
     28 C           6.2029   -3.3052   -2.1578 C.3     1  UNL1       -0.0381
     29 C           6.1426   -1.3210   -0.7664 C.2     1  UNL1        0.2334
     30 O           7.1693   -1.6673   -0.0799 O.2     1  UNL1       -0.2738
     31 N           5.9665    0.0659   -0.9376 N.am    1  UNL1       -0.3085
     32 C           6.9304    1.0272   -0.3378 C.3     1  UNL1        0.0498
     33 C           7.7811    1.4771   -1.4699 C.3     1  UNL1       -0.0297
     34 C           8.8824    2.4213   -1.2070 C.3     1  UNL1       -0.0450
     35 C           8.5728    3.7560   -0.6528 C.3     1  UNL1       -0.0626
     36 C           9.6253    2.6135   -2.5422 C.3     1  UNL1       -0.0626
     37 C           6.0906    2.1342    0.1948 C.3     1  UNL1        0.0836
     38 O           5.3508    2.7393   -0.8403 O.3     1  UNL1       -0.3894
     39 C           5.0042    1.5972    1.1522 C.3     1  UNL1        0.0724
     40 C           4.2646    2.8324    1.5913 C.2     1  UNL1        0.3072
     41 O           3.3006    2.6827    2.3692 O.2     1  UNL1       -0.2509
     42 O           4.5941    4.1046    1.1830 O.3     1  UNL1       -0.4806
     43 C          -4.1743   -3.4584   -0.0322 C.3     1  UNL1       -0.0197
     44 C          -5.2658   -4.1926    0.7516 C.3     1  UNL1       -0.0605
     45 C          -4.8376   -3.0003   -1.3114 C.3     1  UNL1       -0.0605
     46 C          -7.5352    0.0632    1.0529 C.3     1  UNL1       -0.0197
     47 C          -7.7013   -1.0933    1.9561 C.3     1  UNL1       -0.0605
     48 C          -8.5276    1.1853    1.4125 C.3     1  UNL1       -0.0605
     49 H          -5.2410    7.2261   -1.2411 H       1  UNL1        0.0232
     50 H          -6.3306    6.1288   -2.1252 H       1  UNL1        0.0232
     51 H          -7.0200    7.2390   -0.8523 H       1  UNL1        0.0232
     52 H          -6.3805    5.7079    0.8426 H       1  UNL1        0.0300
     53 H          -4.0777    5.0646    1.0808 H       1  UNL1        0.0232
     54 H          -3.8643    4.9897   -0.7555 H       1  UNL1        0.0232
     55 H          -3.9943    6.5486    0.0949 H       1  UNL1        0.0232
     56 H          -7.3849    4.2588   -0.9772 H       1  UNL1        0.0361
     57 H          -5.7237    4.0073   -1.5874 H       1  UNL1        0.0361
     58 H          -6.7273    1.5068   -0.9796 H       1  UNL1        0.1495
     59 H          -5.8545    1.1020    1.8487 H       1  UNL1        0.0597
     60 H          -5.2003   -1.4840    2.0933 H       1  UNL1        0.1495
     61 H          -3.4049   -2.8314    1.8172 H       1  UNL1        0.0597
     62 H          -1.4718   -3.7013    0.1959 H       1  UNL1        0.1491
     63 H          -0.1512   -1.1305   -0.4859 H       1  UNL1        0.0524
     64 H           1.8882   -1.8470    0.7740 H       1  UNL1        0.0286
     65 H           0.4024   -1.5872    1.6483 H       1  UNL1        0.0286
     66 H           1.3946   -4.4543    1.1198 H       1  UNL1        0.0296
     67 H           2.1545   -4.2211    3.3637 H       1  UNL1        0.0232
     68 H           3.0113   -3.0390    2.3279 H       1  UNL1        0.0232
     69 H           1.6530   -2.5055    3.4529 H       1  UNL1        0.0232
     70 H          -0.6520   -4.9676    1.9875 H       1  UNL1        0.0232
     71 H          -0.9658   -3.1835    2.4400 H       1  UNL1        0.0232
     72 H           0.0188   -4.2360    3.4461 H       1  UNL1        0.0232
     73 H           0.2323   -3.9580   -1.5832 H       1  UNL1        0.0616
     74 H          -0.4346   -1.5514   -2.8535 H       1  UNL1        0.2099
     75 H           1.5651   -1.3199   -2.5393 H       1  UNL1        0.0384
     76 H           1.6547   -2.8956   -3.3045 H       1  UNL1        0.0384
     77 H           4.0498   -1.3354   -2.6528 H       1  UNL1        0.1494
     78 H           5.0729   -3.0926   -0.3984 H       1  UNL1        0.0592
     79 H           5.5738   -4.1297   -2.5496 H       1  UNL1        0.0252
     80 H           6.9636   -3.7974   -1.5008 H       1  UNL1        0.0252
     81 H           6.7349   -2.7284   -2.9180 H       1  UNL1        0.0252
     82 H           5.1512    0.3845   -1.4879 H       1  UNL1        0.1491
     83 H           7.4896    0.4387    0.4166 H       1  UNL1        0.0524
     84 H           8.2379    0.5674   -1.9652 H       1  UNL1        0.0286
     85 H           7.0746    1.8543   -2.2751 H       1  UNL1        0.0286
     86 H           9.6699    1.9582   -0.5411 H       1  UNL1        0.0296
     87 H           7.6077    4.1960   -0.9594 H       1  UNL1        0.0232
     88 H           9.3294    4.4806   -1.1130 H       1  UNL1        0.0232
     89 H           8.7818    3.8700    0.4366 H       1  UNL1        0.0232
     90 H          10.3359    3.4455   -2.4108 H       1  UNL1        0.0232
     91 H          10.2072    1.7060   -2.7878 H       1  UNL1        0.0232
     92 H           8.9251    2.8969   -3.3485 H       1  UNL1        0.0232
     93 H           6.7101    2.8417    0.7618 H       1  UNL1        0.0617
     94 H           4.4048    2.4867   -0.8472 H       1  UNL1        0.2099
     95 H           5.4292    1.0344    1.9782 H       1  UNL1        0.0404
     96 H           4.2946    1.0357    0.5126 H       1  UNL1        0.0404
     97 H           4.2754    4.9555    1.6078 H       1  UNL1        0.2951
     98 H          -3.3745   -4.1580   -0.2573 H       1  UNL1        0.0318
     99 H          -5.1467   -5.2887    0.5818 H       1  UNL1        0.0233
    100 H          -5.0913   -3.9833    1.8213 H       1  UNL1        0.0233
    101 H          -6.2778   -3.8938    0.4160 H       1  UNL1        0.0233
    102 H          -4.1820   -2.4632   -1.9975 H       1  UNL1        0.0233
    103 H          -5.1606   -3.9447   -1.8322 H       1  UNL1        0.0233
    104 H          -5.7926   -2.4781   -1.0872 H       1  UNL1        0.0233
    105 H          -7.9099   -0.2753    0.0335 H       1  UNL1        0.0318
    106 H          -7.2806   -0.9444    2.9758 H       1  UNL1        0.0233
    107 H          -8.8254   -1.1575    2.1712 H       1  UNL1        0.0233
    108 H          -7.4069   -2.0776    1.5721 H       1  UNL1        0.0233
    109 H          -8.6262    1.8651    0.5432 H       1  UNL1        0.0233
    110 H          -8.0061    1.7473    2.2400 H       1  UNL1        0.0233
    111 H          -9.4578    0.7587    1.7810 H       1  UNL1        0.0233
@<TRIPOS>BOND
     1     1     2    1
     2     2     3    1
     3     2     4    1
     4     4     5    1
     5     5     6    2
     6     5     7   am
     7     7     8    1
     8     8     9    1
     9     9    10    2
    10     9    11   am
    11    11    12    1
    12    12    13    1
    13    13    14    2
    14    13    15   am
    15    15    16    1
    16    16    17    1
    17    17    18    1
    18    18    19    1
    19    18    20    1
    20    16    21    1
    21    21    22    1
    22    21    23    1
    23    23    24    1
    24    24    25    2
    25    24    26   am
    26    26    27    1
    27    27    28    1
    28    27    29    1
    29    29    30    2
    30    29    31   am
    31    31    32    1
    32    32    33    1
    33    33    34    1
    34    34    35    1
    35    34    36    1
    36    32    37    1
    37    37    38    1
    38    37    39    1
    39    39    40    1
    40    40    41    2
    41    40    42    1
    42    12    43    1
    43    43    44    1
    44    43    45    1
    45     8    46    1
    46    46    47    1
    47    46    48    1
    48     1    49    1
    49     1    50    1
    50     1    51    1
    51     2    52    1
    52     3    53    1
    53     3    54    1
    54     3    55    1
    55     4    56    1
    56     4    57    1
    57     7    58    1
    58     8    59    1
    59    11    60    1
    60    12    61    1
    61    15    62    1
    62    16    63    1
    63    17    64    1
    64    17    65    1
    65    18    66    1
    66    19    67    1
    67    19    68    1
    68    19    69    1
    69    20    70    1
    70    20    71    1
    71    20    72    1
    72    21    73    1
    73    22    74    1
    74    23    75    1
    75    23    76    1
    76    26    77    1
    77    27    78    1
    78    28    79    1
    79    28    80    1
    80    28    81    1
    81    31    82    1
    82    32    83    1
    83    33    84    1
    84    33    85    1
    85    34    86    1
    86    35    87    1
    87    35    88    1
    88    35    89    1
    89    36    90    1
    90    36    91    1
    91    36    92    1
    92    37    93    1
    93    38    94    1
    94    39    95    1
    95    39    96    1
    96    42    97    1
    97    43    98    1
    98    44    99    1
    99    44   100    1
   100    44   101    1
   101    45   102    1
   102    45   103    1
   103    45   104    1
   104    46   105    1
   105    47   106    1
   106    47   107    1
   107    47   108    1
   108    48   109    1
   109    48   110    1
   110    48   111    1
