
     RDKit          3D

111110  0  0  0  0  0  0  0  0999 V2000
   -6.1466    6.6012   -1.1195 C   0  0  0  0  0  0  0  0  0  0  0  0
   -5.8731    5.5339   -0.1126 C   0  0  0  0  0  0  0  0  0  0  0  0
   -4.3507    5.4932    0.1105 C   0  0  0  0  0  0  0  0  0  0  0  0
   -6.3178    4.1960   -0.6779 C   0  0  0  0  0  0  0  0  0  0  0  0
   -6.0843    3.1030    0.3036 C   0  0  0  0  0  0  0  0  0  0  0  0
   -5.6351    3.3623    1.4507 O   0  0  0  0  0  0  0  0  0  0  0  0
   -6.3664    1.7785   -0.0397 N   0  0  0  0  0  0  0  0  0  0  0  0
   -6.1801    0.6554    0.8924 C   0  0  2  0  0  0  0  0  0  0  0  0
   -5.1230   -0.2549    0.4124 C   0  0  0  0  0  0  0  0  0  0  0  0
   -4.5425   -0.0633   -0.7136 O   0  0  0  0  0  0  0  0  0  0  0  0
   -4.6889   -1.3788    1.1550 N   0  0  0  0  0  0  0  0  0  0  0  0
   -3.6837   -2.3263    0.8131 C   0  0  2  0  0  0  0  0  0  0  0  0
   -2.3857   -1.7686    0.3832 C   0  0  0  0  0  0  0  0  0  0  0  0
   -2.2072   -0.5536    0.2598 O   0  0  0  0  0  0  0  0  0  0  0  0
   -1.3413   -2.6745    0.1211 N   0  0  0  0  0  0  0  0  0  0  0  0
    0.0233   -2.2561   -0.3003 C   0  0  1  0  0  0  0  0  0  0  0  0
    0.8830   -2.3095    0.8889 C   0  0  0  0  0  0  0  0  0  0  0  0
    1.0123   -3.5860    1.6428 C   0  0  0  0  0  0  0  0  0  0  0  0
    2.0139   -3.2848    2.7852 C   0  0  0  0  0  0  0  0  0  0  0  0
   -0.2580   -4.0021    2.3752 C   0  0  0  0  0  0  0  0  0  0  0  0
    0.3641   -2.8448   -1.5879 C   0  0  1  0  0  0  0  0  0  0  0  0
   -0.7046   -2.4482   -2.5050 O   0  0  0  0  0  0  0  0  0  0  0  0
    1.6186   -2.4234   -2.2733 C   0  0  0  0  0  0  0  0  0  0  0  0
    2.8566   -2.7526   -1.6179 C   0  0  0  0  0  0  0  0  0  0  0  0
    2.9804   -3.6255   -0.7506 O   0  0  0  0  0  0  0  0  0  0  0  0
    4.1077   -2.0668   -1.9302 N   0  0  0  0  0  0  0  0  0  0  0  0
    5.3165   -2.4071   -1.2667 C   0  0  1  0  0  0  0  0  0  0  0  0
    6.2029   -3.3052   -2.1578 C   0  0  0  0  0  0  0  0  0  0  0  0
    6.1426   -1.3210   -0.7664 C   0  0  0  0  0  0  0  0  0  0  0  0
    7.1693   -1.6673   -0.0799 O   0  0  0  0  0  0  0  0  0  0  0  0
    5.9665    0.0659   -0.9376 N   0  0  0  0  0  0  0  0  0  0  0  0
    6.9304    1.0272   -0.3378 C   0  0  1  0  0  0  0  0  0  0  0  0
    7.7811    1.4771   -1.4699 C   0  0  0  0  0  0  0  0  0  0  0  0
    8.8824    2.4213   -1.2070 C   0  0  0  0  0  0  0  0  0  0  0  0
    8.5728    3.7560   -0.6528 C   0  0  0  0  0  0  0  0  0  0  0  0
    9.6253    2.6135   -2.5422 C   0  0  0  0  0  0  0  0  0  0  0  0
    6.0906    2.1342    0.1948 C   0  0  1  0  0  0  0  0  0  0  0  0
    5.3508    2.7393   -0.8403 O   0  0  0  0  0  0  0  0  0  0  0  0
    5.0042    1.5972    1.1522 C   0  0  0  0  0  0  0  0  0  0  0  0
    4.2646    2.8324    1.5913 C   0  0  0  0  0  0  0  0  0  0  0  0
    3.3006    2.6827    2.3692 O   0  0  0  0  0  0  0  0  0  0  0  0
    4.5941    4.1046    1.1830 O   0  0  0  0  0  0  0  0  0  0  0  0
   -4.1743   -3.4584   -0.0322 C   0  0  0  0  0  0  0  0  0  0  0  0
   -5.2658   -4.1926    0.7516 C   0  0  0  0  0  0  0  0  0  0  0  0
   -4.8376   -3.0003   -1.3114 C   0  0  0  0  0  0  0  0  0  0  0  0
   -7.5352    0.0632    1.0529 C   0  0  0  0  0  0  0  0  0  0  0  0
   -7.7013   -1.0933    1.9561 C   0  0  0  0  0  0  0  0  0  0  0  0
   -8.5276    1.1853    1.4125 C   0  0  0  0  0  0  0  0  0  0  0  0
   -5.2410    7.2261   -1.2411 H   0  0  0  0  0  0  0  0  0  0  0  0
   -6.3306    6.1288   -2.1252 H   0  0  0  0  0  0  0  0  0  0  0  0
   -7.0200    7.2390   -0.8523 H   0  0  0  0  0  0  0  0  0  0  0  0
   -6.3805    5.7079    0.8426 H   0  0  0  0  0  0  0  0  0  0  0  0
   -4.0777    5.0646    1.0808 H   0  0  0  0  0  0  0  0  0  0  0  0
   -3.8643    4.9897   -0.7555 H   0  0  0  0  0  0  0  0  0  0  0  0
   -3.9943    6.5486    0.0949 H   0  0  0  0  0  0  0  0  0  0  0  0
   -7.3849    4.2588   -0.9772 H   0  0  0  0  0  0  0  0  0  0  0  0
   -5.7237    4.0073   -1.5874 H   0  0  0  0  0  0  0  0  0  0  0  0
   -6.7273    1.5068   -0.9796 H   0  0  0  0  0  0  0  0  0  0  0  0
   -5.8545    1.1020    1.8487 H   0  0  0  0  0  0  0  0  0  0  0  0
   -5.2003   -1.4840    2.0933 H   0  0  0  0  0  0  0  0  0  0  0  0
   -3.4049   -2.8314    1.8172 H   0  0  0  0  0  0  0  0  0  0  0  0
   -1.4718   -3.7013    0.1959 H   0  0  0  0  0  0  0  0  0  0  0  0
   -0.1512   -1.1305   -0.4859 H   0  0  0  0  0  0  0  0  0  0  0  0
    1.8882   -1.8470    0.7740 H   0  0  0  0  0  0  0  0  0  0  0  0
    0.4024   -1.5872    1.6483 H   0  0  0  0  0  0  0  0  0  0  0  0
    1.3946   -4.4543    1.1198 H   0  0  0  0  0  0  0  0  0  0  0  0
    2.1545   -4.2211    3.3637 H   0  0  0  0  0  0  0  0  0  0  0  0
    3.0113   -3.0390    2.3279 H   0  0  0  0  0  0  0  0  0  0  0  0
    1.6530   -2.5055    3.4529 H   0  0  0  0  0  0  0  0  0  0  0  0
   -0.6520   -4.9676    1.9875 H   0  0  0  0  0  0  0  0  0  0  0  0
   -0.9658   -3.1835    2.4400 H   0  0  0  0  0  0  0  0  0  0  0  0
    0.0188   -4.2360    3.4461 H   0  0  0  0  0  0  0  0  0  0  0  0
    0.2323   -3.9580   -1.5832 H   0  0  0  0  0  0  0  0  0  0  0  0
   -0.4346   -1.5514   -2.8535 H   0  0  0  0  0  0  0  0  0  0  0  0
    1.5651   -1.3199   -2.5393 H   0  0  0  0  0  0  0  0  0  0  0  0
    1.6547   -2.8956   -3.3045 H   0  0  0  0  0  0  0  0  0  0  0  0
    4.0498   -1.3354   -2.6528 H   0  0  0  0  0  0  0  0  0  0  0  0
    5.0729   -3.0926   -0.3984 H   0  0  0  0  0  0  0  0  0  0  0  0
    5.5738   -4.1297   -2.5496 H   0  0  0  0  0  0  0  0  0  0  0  0
    6.9636   -3.7974   -1.5008 H   0  0  0  0  0  0  0  0  0  0  0  0
    6.7349   -2.7284   -2.9180 H   0  0  0  0  0  0  0  0  0  0  0  0
    5.1512    0.3845   -1.4879 H   0  0  0  0  0  0  0  0  0  0  0  0
    7.4896    0.4387    0.4166 H   0  0  0  0  0  0  0  0  0  0  0  0
    8.2379    0.5674   -1.9652 H   0  0  0  0  0  0  0  0  0  0  0  0
    7.0746    1.8543   -2.2751 H   0  0  0  0  0  0  0  0  0  0  0  0
    9.6699    1.9582   -0.5411 H   0  0  0  0  0  0  0  0  0  0  0  0
    7.6077    4.1960   -0.9594 H   0  0  0  0  0  0  0  0  0  0  0  0
    9.3294    4.4806   -1.1130 H   0  0  0  0  0  0  0  0  0  0  0  0
    8.7818    3.8700    0.4366 H   0  0  0  0  0  0  0  0  0  0  0  0
   10.3359    3.4455   -2.4108 H   0  0  0  0  0  0  0  0  0  0  0  0
   10.2072    1.7060   -2.7878 H   0  0  0  0  0  0  0  0  0  0  0  0
    8.9251    2.8969   -3.3485 H   0  0  0  0  0  0  0  0  0  0  0  0
    6.7101    2.8417    0.7618 H   0  0  0  0  0  0  0  0  0  0  0  0
    4.4048    2.4867   -0.8472 H   0  0  0  0  0  0  0  0  0  0  0  0
    5.4292    1.0344    1.9782 H   0  0  0  0  0  0  0  0  0  0  0  0
    4.2946    1.0357    0.5126 H   0  0  0  0  0  0  0  0  0  0  0  0
    4.2754    4.9555    1.6078 H   0  0  0  0  0  0  0  0  0  0  0  0
   -3.3745   -4.1580   -0.2573 H   0  0  0  0  0  0  0  0  0  0  0  0
   -5.1467   -5.2887    0.5818 H   0  0  0  0  0  0  0  0  0  0  0  0
   -5.0913   -3.9833    1.8213 H   0  0  0  0  0  0  0  0  0  0  0  0
   -6.2778   -3.8938    0.4160 H   0  0  0  0  0  0  0  0  0  0  0  0
   -4.1820   -2.4632   -1.9975 H   0  0  0  0  0  0  0  0  0  0  0  0
   -5.1606   -3.9447   -1.8322 H   0  0  0  0  0  0  0  0  0  0  0  0
   -5.7926   -2.4781   -1.0872 H   0  0  0  0  0  0  0  0  0  0  0  0
   -7.9099   -0.2753    0.0335 H   0  0  0  0  0  0  0  0  0  0  0  0
   -7.2806   -0.9444    2.9758 H   0  0  0  0  0  0  0  0  0  0  0  0
   -8.8254   -1.1575    2.1712 H   0  0  0  0  0  0  0  0  0  0  0  0
   -7.4069   -2.0776    1.5721 H   0  0  0  0  0  0  0  0  0  0  0  0
   -8.6262    1.8651    0.5432 H   0  0  0  0  0  0  0  0  0  0  0  0
   -8.0061    1.7473    2.2400 H   0  0  0  0  0  0  0  0  0  0  0  0
   -9.4578    0.7587    1.7810 H   0  0  0  0  0  0  0  0  0  0  0  0
  1  2  1  0
  2  3  1  0
  2  4  1  0
  4  5  1  0
  5  6  2  0
  5  7  1  0
  7  8  1  0
  8  9  1  0
  9 10  2  0
  9 11  1  0
 11 12  1  0
 12 13  1  0
 13 14  2  0
 13 15  1  0
 15 16  1  0
 16 17  1  0
 17 18  1  0
 18 19  1  0
 18 20  1  0
 16 21  1  0
 21 22  1  0
 21 23  1  0
 23 24  1  0
 24 25  2  0
 24 26  1  0
 26 27  1  0
 27 28  1  0
 27 29  1  0
 29 30  2  0
 29 31  1  0
 31 32  1  0
 32 33  1  0
 33 34  1  0
 34 35  1  0
 34 36  1  0
 32 37  1  0
 37 38  1  0
 37 39  1  0
 39 40  1  0
 40 41  2  0
 40 42  1  0
 12 43  1  0
 43 44  1  0
 43 45  1  0
  8 46  1  0
 46 47  1  0
 46 48  1  0
  1 49  1  0
  1 50  1  0
  1 51  1  0
  2 52  1  0
  3 53  1  0
  3 54  1  0
  3 55  1  0
  4 56  1  0
  4 57  1  0
  7 58  1  0
  8 59  1  1
 11 60  1  0
 12 61  1  1
 15 62  1  0
 16 63  1  6
 17 64  1  0
 17 65  1  0
 18 66  1  0
 19 67  1  0
 19 68  1  0
 19 69  1  0
 20 70  1  0
 20 71  1  0
 20 72  1  0
 21 73  1  1
 22 74  1  0
 23 75  1  0
 23 76  1  0
 26 77  1  0
 27 78  1  1
 28 79  1  0
 28 80  1  0
 28 81  1  0
 31 82  1  0
 32 83  1  1
 33 84  1  0
 33 85  1  0
 34 86  1  0
 35 87  1  0
 35 88  1  0
 35 89  1  0
 36 90  1  0
 36 91  1  0
 36 92  1  0
 37 93  1  1
 38 94  1  0
 39 95  1  0
 39 96  1  0
 42 97  1  0
 43 98  1  0
 44 99  1  0
 44100  1  0
 44101  1  0
 45102  1  0
 45103  1  0
 45104  1  0
 46105  1  0
 47106  1  0
 47107  1  0
 47108  1  0
 48109  1  0
 48110  1  0
 48111  1  0
M  END
$$$$
