@<TRIPOS>MOLECULE
*****
 55 59 0 0 0
SMALL
GASTEIGER

@<TRIPOS>ATOM
      1 C          -5.8846   -3.3032    0.4263 C.3     1  UNL1       -0.0370
      2 C          -5.2850   -1.9670    0.1180 C.ar    1  UNL1       -0.0144
      3 C          -6.0284   -0.8235    0.1702 C.ar    1  UNL1       -0.0540
      4 C          -5.4970    0.3941   -0.1181 C.ar    1  UNL1       -0.0334
      5 C          -4.1402    0.4410   -0.4769 C.ar    1  UNL1        0.1010
      6 N          -3.5531    1.6896   -0.7973 N.ar    1  UNL1       -0.1495
      7 N          -2.7215    2.0408   -1.7466 N.ar    1  UNL1       -0.1556
      8 C          -2.4650    3.3680   -1.6326 C.ar    1  UNL1        0.0697
      9 C          -3.1752    3.8425   -0.5620 C.ar    1  UNL1        0.0697
     10 N          -3.8365    2.7816   -0.0688 N.ar    1  UNL1       -0.1556
     11 C          -3.3738   -0.6912   -0.5351 C.ar    1  UNL1        0.0993
     12 C          -1.9613   -0.7270   -0.8881 C.2     1  UNL1        0.2519
     13 O          -1.7212   -1.2424   -2.0371 O.2     1  UNL1       -0.2698
     14 N          -0.9014   -0.2636   -0.0978 N.am    1  UNL1       -0.2897
     15 C          -1.1543    0.3295    1.1809 C.3     1  UNL1        0.0388
     16 C          -0.3608    1.6420    1.2016 C.3     1  UNL1        0.0635
     17 O           0.9093    1.5170    0.7076 O.3     1  UNL1       -0.3764
     18 C           0.9945    1.0462   -0.5852 C.3     1  UNL1        0.0666
     19 C           0.4636   -0.3916   -0.5498 C.3     1  UNL1        0.0537
     20 C           1.2962   -1.0775    0.5486 C.3     1  UNL1       -0.0068
     21 C           2.6842   -1.2433    0.1189 C.ar    1  UNL1       -0.0435
     22 C           3.0407   -2.4026   -0.5795 C.ar    1  UNL1       -0.0584
     23 C           4.3279   -2.6384   -1.0194 C.ar    1  UNL1       -0.0594
     24 C           5.3153   -1.7003   -0.7679 C.ar    1  UNL1       -0.0345
     25 C           4.9745   -0.5569   -0.0822 C.ar    1  UNL1        0.0864
     26 N           5.9546    0.4455    0.1950 N.ar    1  UNL1       -0.1503
     27 N           5.8048    1.6323    0.7133 N.ar    1  UNL1       -0.1556
     28 C           6.9566    2.3007    0.8149 C.ar    1  UNL1        0.0697
     29 C           7.9149    1.4504    0.3135 C.ar    1  UNL1        0.0697
     30 N           7.2638    0.3211   -0.0582 N.ar    1  UNL1       -0.1556
     31 C           3.6844   -0.3339    0.3522 C.ar    1  UNL1       -0.0313
     32 C          -3.9529   -1.9197   -0.2332 C.ar    1  UNL1        0.1405
     33 F          -3.2004   -3.0575   -0.2877 F       1  UNL1       -0.2044
     34 H          -6.4990   -3.5961   -0.4786 H       1  UNL1        0.0278
     35 H          -5.1041   -4.0618    0.5360 H       1  UNL1        0.0278
     36 H          -6.5057   -3.2801    1.3354 H       1  UNL1        0.0278
     37 H          -7.0667   -0.9135    0.4555 H       1  UNL1        0.0622
     38 H          -6.0244    1.3192   -0.0952 H       1  UNL1        0.0640
     39 H          -1.8296    3.9582   -2.2512 H       1  UNL1        0.0864
     40 H          -3.2272    4.8441   -0.1592 H       1  UNL1        0.0864
     41 H          -0.8483   -0.3222    2.0294 H       1  UNL1        0.0487
     42 H          -2.2059    0.5909    1.3750 H       1  UNL1        0.0487
     43 H          -0.9668    2.3767    0.6307 H       1  UNL1        0.0575
     44 H          -0.2621    1.9748    2.2630 H       1  UNL1        0.0575
     45 H           0.4424    1.6599   -1.3258 H       1  UNL1        0.0578
     46 H           2.0317    1.0009   -0.9053 H       1  UNL1        0.0578
     47 H           0.6075   -0.9154   -1.4842 H       1  UNL1        0.0526
     48 H           0.8804   -2.0550    0.8342 H       1  UNL1        0.0332
     49 H           1.3021   -0.4511    1.4756 H       1  UNL1        0.0332
     50 H           2.3162   -3.1884   -0.8117 H       1  UNL1        0.0620
     51 H           4.6371   -3.5161   -1.5578 H       1  UNL1        0.0618
     52 H           6.3487   -1.8673   -1.1099 H       1  UNL1        0.0639
     53 H           7.1567    3.3058    1.2004 H       1  UNL1        0.0864
     54 H           8.9660    1.6278    0.2241 H       1  UNL1        0.0864
     55 H           3.4782    0.6062    0.9051 H       1  UNL1        0.0642
@<TRIPOS>BOND
     1     1     2    1
     2     2     3   ar
     3     3     4   ar
     4     4     5   ar
     5     5     6    1
     6     6     7   ar
     7     7     8   ar
     8     8     9   ar
     9     9    10   ar
    10     5    11   ar
    11    11    12    1
    12    12    13    2
    13    12    14   am
    14    14    15    1
    15    15    16    1
    16    16    17    1
    17    17    18    1
    18    18    19    1
    19    19    20    1
    20    20    21    1
    21    21    22   ar
    22    22    23   ar
    23    23    24   ar
    24    24    25   ar
    25    25    26    1
    26    26    27   ar
    27    27    28   ar
    28    28    29   ar
    29    29    30   ar
    30    25    31   ar
    31    11    32   ar
    32    32    33    1
    33    32     2   ar
    34    10     6   ar
    35    19    14    1
    36    31    21   ar
    37    30    26   ar
    38     1    34    1
    39     1    35    1
    40     1    36    1
    41     3    37    1
    42     4    38    1
    43     8    39    1
    44     9    40    1
    45    15    41    1
    46    15    42    1
    47    16    43    1
    48    16    44    1
    49    18    45    1
    50    18    46    1
    51    19    47    1
    52    20    48    1
    53    20    49    1
    54    22    50    1
    55    23    51    1
    56    24    52    1
    57    28    53    1
    58    29    54    1
    59    31    55    1
