
     RDKit          3D

 61 64  0  0  0  0  0  0  0  0999 V2000
   -4.1200   -0.3115   -4.4422 C   0  0  0  0  0  0  0  0  0  0  0  0
   -4.4259   -0.1629   -3.0423 N   0  0  0  0  0  0  0  0  0  0  0  0
   -5.7094   -0.6179   -2.5674 C   0  0  0  0  0  0  0  0  0  0  0  0
   -3.4888    0.4123   -2.1637 C   0  0  0  0  0  0  0  0  0  0  0  0
   -2.3833    0.7975   -2.6064 O   0  0  0  0  0  0  0  0  0  0  0  0
   -3.7987    0.5603   -0.7431 C   0  0  0  0  0  0  0  0  0  0  0  0
   -2.7504    1.1770    0.1024 C   0  0  0  0  0  0  0  0  0  0  0  0
   -1.4896    0.4955    0.1514 N   0  0  0  0  0  0  0  0  0  0  0  0
   -0.2885    1.1974   -0.0044 C   0  0  0  0  0  0  0  0  0  0  0  0
   -0.3381    2.4398   -0.1898 O   0  0  0  0  0  0  0  0  0  0  0  0
    1.0591    0.5867    0.0348 C   0  0  0  0  0  0  0  0  0  0  0  0
    2.1051    1.5904    0.0214 N   0  0  0  0  0  0  0  0  0  0  0  0
    1.2588   -0.3744    1.1443 C   0  0  0  0  0  0  0  0  0  0  0  0
    2.5662   -1.0839    0.9881 C   0  0  0  0  0  0  0  0  0  0  0  0
    3.3191   -0.6926   -0.1555 N   0  0  0  0  0  0  0  0  0  0  0  0
    4.7248   -0.6217   -0.0790 C   0  0  0  0  0  0  0  0  0  0  0  0
    5.2532    0.6214   -0.3127 N   0  0  0  0  0  0  0  0  0  0  0  0
    6.5891    0.8021   -0.2592 C   0  0  0  0  0  0  0  0  0  0  0  0
    7.4182   -0.2447    0.0271 N   0  0  0  0  0  0  0  0  0  0  0  0
    6.9054   -1.4818    0.2606 C   0  0  0  0  0  0  0  0  0  0  0  0
    7.4667   -2.6771    0.5615 N   0  0  0  0  0  0  0  0  0  0  0  0
    6.5182   -3.6257    0.7023 C   0  0  0  0  0  0  0  0  0  0  0  0
    5.3024   -2.9864    0.4770 C   0  0  0  0  0  0  0  0  0  0  0  0
    5.5482   -1.6708    0.2070 C   0  0  0  0  0  0  0  0  0  0  0  0
    2.7180   -0.3431   -1.4388 C   0  0  0  0  0  0  0  0  0  0  0  0
    1.2148   -0.1862   -1.2819 C   0  0  0  0  0  0  0  0  0  0  0  0
   -3.3268    1.3462    1.4782 C   0  0  0  0  0  0  0  0  0  0  0  0
   -3.8907    2.5625    1.8453 C   0  0  0  0  0  0  0  0  0  0  0  0
   -4.4174    2.7545    3.1068 C   0  0  0  0  0  0  0  0  0  0  0  0
   -4.4105    1.7536    4.0599 C   0  0  0  0  0  0  0  0  0  0  0  0
   -5.0748    1.9931    5.6667 Cl  0  0  0  0  0  0  0  0  0  0  0  0
   -3.8386    0.5322    3.6742 C   0  0  0  0  0  0  0  0  0  0  0  0
   -3.3157    0.3445    2.4211 C   0  0  0  0  0  0  0  0  0  0  0  0
   -5.0745   -0.2461   -5.0155 H   0  0  0  0  0  0  0  0  0  0  0  0
   -3.4565    0.4914   -4.8369 H   0  0  0  0  0  0  0  0  0  0  0  0
   -3.6052   -1.2912   -4.6570 H   0  0  0  0  0  0  0  0  0  0  0  0
   -6.3217    0.2780   -2.3137 H   0  0  0  0  0  0  0  0  0  0  0  0
   -5.5573   -1.2378   -1.6504 H   0  0  0  0  0  0  0  0  0  0  0  0
   -6.2446   -1.1882   -3.3480 H   0  0  0  0  0  0  0  0  0  0  0  0
   -4.7034    1.2305   -0.6801 H   0  0  0  0  0  0  0  0  0  0  0  0
   -4.1351   -0.4263   -0.3597 H   0  0  0  0  0  0  0  0  0  0  0  0
   -2.5610    2.2288   -0.2734 H   0  0  0  0  0  0  0  0  0  0  0  0
   -1.4726   -0.5301    0.3018 H   0  0  0  0  0  0  0  0  0  0  0  0
    1.6662    2.5246    0.0196 H   0  0  0  0  0  0  0  0  0  0  0  0
    2.7315    1.4109    0.8457 H   0  0  0  0  0  0  0  0  0  0  0  0
    1.2492    0.1585    2.1242 H   0  0  0  0  0  0  0  0  0  0  0  0
    0.3858   -1.0899    1.1541 H   0  0  0  0  0  0  0  0  0  0  0  0
    3.1744   -0.9135    1.8985 H   0  0  0  0  0  0  0  0  0  0  0  0
    2.3757   -2.1941    0.9086 H   0  0  0  0  0  0  0  0  0  0  0  0
    6.9705    1.8000   -0.4508 H   0  0  0  0  0  0  0  0  0  0  0  0
    8.4833   -2.8757    0.6764 H   0  0  0  0  0  0  0  0  0  0  0  0
    6.6466   -4.6726    0.9399 H   0  0  0  0  0  0  0  0  0  0  0  0
    4.3483   -3.4468    0.5106 H   0  0  0  0  0  0  0  0  0  0  0  0
    3.1116    0.6572   -1.6990 H   0  0  0  0  0  0  0  0  0  0  0  0
    3.0100   -1.0540   -2.2119 H   0  0  0  0  0  0  0  0  0  0  0  0
    0.7765   -1.1939   -1.2208 H   0  0  0  0  0  0  0  0  0  0  0  0
    0.8207    0.4418   -2.0948 H   0  0  0  0  0  0  0  0  0  0  0  0
   -3.9233    3.3834    1.1415 H   0  0  0  0  0  0  0  0  0  0  0  0
   -4.8616    3.7032    3.4045 H   0  0  0  0  0  0  0  0  0  0  0  0
   -3.8449   -0.2335    4.4392 H   0  0  0  0  0  0  0  0  0  0  0  0
   -2.8888   -0.6009    2.1661 H   0  0  0  0  0  0  0  0  0  0  0  0
  1  2  1  0
  2  3  1  0
  2  4  1  0
  4  5  2  0
  4  6  1  0
  6  7  1  0
  7  8  1  0
  8  9  1  0
  9 10  2  0
  9 11  1  0
 11 12  1  0
 11 13  1  0
 13 14  1  0
 14 15  1  0
 15 16  1  0
 16 17  2  0
 17 18  1  0
 18 19  2  0
 19 20  1  0
 20 21  1  0
 21 22  1  0
 22 23  2  0
 23 24  1  0
 15 25  1  0
 25 26  1  0
  7 27  1  0
 27 28  2  0
 28 29  1  0
 29 30  2  0
 30 31  1  0
 30 32  1  0
 32 33  2  0
 26 11  1  0
 33 27  1  0
 24 16  1  0
 24 20  2  0
  1 34  1  0
  1 35  1  0
  1 36  1  0
  3 37  1  0
  3 38  1  0
  3 39  1  0
  6 40  1  0
  6 41  1  0
  7 42  1  0
  8 43  1  0
 12 44  1  0
 12 45  1  0
 13 46  1  0
 13 47  1  0
 14 48  1  0
 14 49  1  0
 18 50  1  0
 21 51  1  0
 22 52  1  0
 23 53  1  0
 25 54  1  0
 25 55  1  0
 26 56  1  0
 26 57  1  0
 28 58  1  0
 29 59  1  0
 32 60  1  0
 33 61  1  0
M  END
$$$$
