@<TRIPOS>MOLECULE
*****
 61 64 0 0 0
SMALL
GASTEIGER

@<TRIPOS>ATOM
      1 C          -4.1200   -0.3115   -4.4422 C.3     1  UNL1        0.0028
      2 N          -4.4259   -0.1629   -3.0423 N.am    1  UNL1       -0.3075
      3 C          -5.7094   -0.6179   -2.5674 C.3     1  UNL1        0.0028
      4 C          -3.4888    0.4123   -2.1637 C.2     1  UNL1        0.2172
      5 O          -2.3833    0.7975   -2.6064 O.2     1  UNL1       -0.2755
      6 C          -3.7987    0.5603   -0.7431 C.3     1  UNL1        0.0467
      7 C          -2.7504    1.1770    0.1024 C.3     1  UNL1        0.0566
      8 N          -1.4896    0.4955    0.1514 N.am    1  UNL1       -0.3065
      9 C          -0.2885    1.1974   -0.0044 C.2     1  UNL1        0.2336
     10 O          -0.3381    2.4398   -0.1898 O.2     1  UNL1       -0.2738
     11 C           1.0591    0.5867    0.0348 C.3     1  UNL1        0.0965
     12 N           2.1051    1.5904    0.0214 N.3     1  UNL1       -0.3173
     13 C           1.2588   -0.3744    1.1443 C.3     1  UNL1       -0.0104
     14 C           2.5662   -1.0839    0.9881 C.3     1  UNL1        0.0156
     15 N           3.3191   -0.6926   -0.1555 N.pl3   1  UNL1       -0.3144
     16 C           4.7248   -0.6217   -0.0790 C.ar    1  UNL1        0.1337
     17 N           5.2532    0.6214   -0.3127 N.ar    1  UNL1       -0.2200
     18 C           6.5891    0.8021   -0.2592 C.ar    1  UNL1        0.1204
     19 N           7.4182   -0.2447    0.0271 N.ar    1  UNL1       -0.2178
     20 C           6.9054   -1.4818    0.2606 C.ar    1  UNL1        0.1432
     21 N           7.4667   -2.6771    0.5615 N.ar    1  UNL1       -0.3457
     22 C           6.5182   -3.6257    0.7023 C.ar    1  UNL1        0.0042
     23 C           5.3024   -2.9864    0.4770 C.ar    1  UNL1       -0.0318
     24 C           5.5482   -1.6708    0.2070 C.ar    1  UNL1        0.0585
     25 C           2.7180   -0.3431   -1.4388 C.3     1  UNL1        0.0156
     26 C           1.2148   -0.1862   -1.2819 C.3     1  UNL1       -0.0104
     27 C          -3.3268    1.3462    1.4782 C.ar    1  UNL1       -0.0267
     28 C          -3.8907    2.5625    1.8453 C.ar    1  UNL1       -0.0554
     29 C          -4.4174    2.7545    3.1068 C.ar    1  UNL1       -0.0431
     30 C          -4.4105    1.7536    4.0599 C.ar    1  UNL1        0.0410
     31 CL         -5.0748    1.9931    5.6667 Cl      1  UNL1       -0.0835
     32 C          -3.8386    0.5322    3.6742 C.ar    1  UNL1       -0.0431
     33 C          -3.3157    0.3445    2.4211 C.ar    1  UNL1       -0.0554
     34 H          -5.0745   -0.2461   -5.0155 H       1  UNL1        0.0428
     35 H          -3.4565    0.4914   -4.8369 H       1  UNL1        0.0428
     36 H          -3.6052   -1.2912   -4.6570 H       1  UNL1        0.0428
     37 H          -6.3217    0.2780   -2.3137 H       1  UNL1        0.0428
     38 H          -5.5573   -1.2378   -1.6504 H       1  UNL1        0.0428
     39 H          -6.2446   -1.1882   -3.3480 H       1  UNL1        0.0428
     40 H          -4.7034    1.2305   -0.6801 H       1  UNL1        0.0380
     41 H          -4.1351   -0.4263   -0.3597 H       1  UNL1        0.0380
     42 H          -2.5610    2.2288   -0.2734 H       1  UNL1        0.0553
     43 H          -1.4726   -0.5301    0.3018 H       1  UNL1        0.1494
     44 H           1.6662    2.5246    0.0196 H       1  UNL1        0.1192
     45 H           2.7315    1.4109    0.8457 H       1  UNL1        0.1192
     46 H           1.2492    0.1585    2.1242 H       1  UNL1        0.0303
     47 H           0.3858   -1.0899    1.1541 H       1  UNL1        0.0303
     48 H           3.1744   -0.9135    1.8985 H       1  UNL1        0.0465
     49 H           2.3757   -2.1941    0.9086 H       1  UNL1        0.0465
     50 H           6.9705    1.8000   -0.4508 H       1  UNL1        0.1048
     51 H           8.4833   -2.8757    0.6764 H       1  UNL1        0.1668
     52 H           6.6466   -4.6726    0.9399 H       1  UNL1        0.0807
     53 H           4.3483   -3.4468    0.5106 H       1  UNL1        0.0640
     54 H           3.1116    0.6572   -1.6990 H       1  UNL1        0.0465
     55 H           3.0100   -1.0540   -2.2119 H       1  UNL1        0.0465
     56 H           0.7765   -1.1939   -1.2208 H       1  UNL1        0.0303
     57 H           0.8207    0.4418   -2.0948 H       1  UNL1        0.0303
     58 H          -3.9233    3.3834    1.1415 H       1  UNL1        0.0621
     59 H          -4.8616    3.7032    3.4045 H       1  UNL1        0.0632
     60 H          -3.8449   -0.2335    4.4392 H       1  UNL1        0.0632
     61 H          -2.8888   -0.6009    2.1661 H       1  UNL1        0.0621
@<TRIPOS>BOND
     1     1     2    1
     2     2     3    1
     3     2     4   am
     4     4     5    2
     5     4     6    1
     6     6     7    1
     7     7     8    1
     8     8     9   am
     9     9    10    2
    10     9    11    1
    11    11    12    1
    12    11    13    1
    13    13    14    1
    14    14    15    1
    15    15    16    1
    16    16    17   ar
    17    17    18   ar
    18    18    19   ar
    19    19    20   ar
    20    20    21   ar
    21    21    22   ar
    22    22    23   ar
    23    23    24   ar
    24    15    25    1
    25    25    26    1
    26     7    27    1
    27    27    28   ar
    28    28    29   ar
    29    29    30   ar
    30    30    31    1
    31    30    32   ar
    32    32    33   ar
    33    26    11    1
    34    33    27   ar
    35    24    16   ar
    36    24    20   ar
    37     1    34    1
    38     1    35    1
    39     1    36    1
    40     3    37    1
    41     3    38    1
    42     3    39    1
    43     6    40    1
    44     6    41    1
    45     7    42    1
    46     8    43    1
    47    12    44    1
    48    12    45    1
    49    13    46    1
    50    13    47    1
    51    14    48    1
    52    14    49    1
    53    18    50    1
    54    21    51    1
    55    22    52    1
    56    23    53    1
    57    25    54    1
    58    25    55    1
    59    26    56    1
    60    26    57    1
    61    28    58    1
    62    29    59    1
    63    32    60    1
    64    33    61    1
