@<TRIPOS>MOLECULE
*****
 48 51 0 0 0
SMALL
GASTEIGER

@<TRIPOS>ATOM
      1 C          -4.1253    1.6565   -1.9623 C.1     1  UNL1       -0.1163
      2 C          -3.8211    0.9781   -0.9993 C.1     1  UNL1       -0.0704
      3 C          -3.4467    0.1771    0.1445 C.3     1  UNL1        0.1317
      4 O          -4.3436   -0.8929    0.3234 O.3     1  UNL1       -0.3760
      5 C          -3.4039    0.9792    1.4309 C.3     1  UNL1       -0.0118
      6 C          -1.9449    1.0947    1.8280 C.3     1  UNL1       -0.0458
      7 C          -1.2274    0.7365    0.5912 C.3     1  UNL1       -0.0289
      8 C           0.1504    0.1607    0.7802 C.3     1  UNL1       -0.0339
      9 C           1.0500    0.9970    1.6201 C.3     1  UNL1       -0.0460
     10 C           2.2658    1.5279    0.9400 C.3     1  UNL1       -0.0308
     11 C           2.9222    0.5420    0.0516 C.2     1  UNL1       -0.0629
     12 C           4.1948    0.6813   -0.2278 C.2     1  UNL1       -0.0197
     13 C           4.8537   -0.2791   -1.0993 C.2     1  UNL1        0.1561
     14 O           6.0292   -0.0853   -1.4996 O.2     1  UNL1       -0.2927
     15 C           4.0967   -1.4918   -1.4998 C.3     1  UNL1        0.0104
     16 C           2.6658   -1.0378   -1.7966 C.3     1  UNL1       -0.0392
     17 C           2.0908   -0.5670   -0.4839 C.3     1  UNL1       -0.0160
     18 C           0.7006   -0.0327   -0.6192 C.3     1  UNL1       -0.0314
     19 C          -0.1605   -0.9275   -1.4410 C.3     1  UNL1       -0.0488
     20 C          -1.6130   -0.5779   -1.4092 C.3     1  UNL1       -0.0435
     21 C          -2.0778   -0.3902   -0.0082 C.3     1  UNL1        0.0111
     22 C          -1.9840   -1.6420    0.8254 C.3     1  UNL1       -0.0558
     23 H          -4.4055    2.2376   -2.8051 H       1  UNL1        0.1229
     24 H          -4.6099   -1.2764   -0.5504 H       1  UNL1        0.2114
     25 H          -3.8760    1.9771    1.3082 H       1  UNL1        0.0303
     26 H          -3.9265    0.4283    2.2409 H       1  UNL1        0.0303
     27 H          -1.7461    2.1740    2.0548 H       1  UNL1        0.0269
     28 H          -1.6899    0.4796    2.6979 H       1  UNL1        0.0269
     29 H          -1.1868    1.5310   -0.1477 H       1  UNL1        0.0310
     30 H           0.1162   -0.8642    1.2291 H       1  UNL1        0.0307
     31 H           0.5013    1.8895    2.0395 H       1  UNL1        0.0271
     32 H           1.4060    0.4381    2.5339 H       1  UNL1        0.0271
     33 H           1.9805    2.4561    0.4001 H       1  UNL1        0.0310
     34 H           3.0247    1.7818    1.7317 H       1  UNL1        0.0310
     35 H           4.7977    1.4918    0.1639 H       1  UNL1        0.0652
     36 H           4.1228   -2.1892   -0.6383 H       1  UNL1        0.0345
     37 H           4.5754   -1.9281   -2.3935 H       1  UNL1        0.0345
     38 H           2.1048   -1.8916   -2.1859 H       1  UNL1        0.0275
     39 H           2.7358   -0.1804   -2.4697 H       1  UNL1        0.0275
     40 H           2.1341   -1.3924    0.2708 H       1  UNL1        0.0349
     41 H           0.7608    0.9890   -1.0966 H       1  UNL1        0.0309
     42 H           0.1751   -0.8110   -2.5134 H       1  UNL1        0.0268
     43 H           0.0336   -1.9912   -1.1819 H       1  UNL1        0.0268
     44 H          -1.7520    0.3791   -1.9496 H       1  UNL1        0.0272
     45 H          -2.1637   -1.4146   -1.9130 H       1  UNL1        0.0272
     46 H          -1.2298   -2.3224    0.3843 H       1  UNL1        0.0236
     47 H          -1.7925   -1.4208    1.8931 H       1  UNL1        0.0236
     48 H          -2.9623   -2.1775    0.7941 H       1  UNL1        0.0236
@<TRIPOS>BOND
     1     1     2    3
     2     3     2    1
     3     3     4    1
     4     3     5    1
     5     5     6    1
     6     6     7    1
     7     7     8    1
     8     8     9    1
     9     9    10    1
    10    10    11    1
    11    11    12    2
    12    12    13    1
    13    13    14    2
    14    13    15    1
    15    15    16    1
    16    16    17    1
    17    17    18    1
    18    18    19    1
    19    19    20    1
    20    20    21    1
    21    21    22    1
    22    21     3    1
    23    21     7    1
    24    18     8    1
    25    17    11    1
    26     1    23    1
    27     4    24    1
    28     5    25    1
    29     5    26    1
    30     6    27    1
    31     6    28    1
    32     7    29    1
    33     8    30    1
    34     9    31    1
    35     9    32    1
    36    10    33    1
    37    10    34    1
    38    12    35    1
    39    15    36    1
    40    15    37    1
    41    16    38    1
    42    16    39    1
    43    17    40    1
    44    18    41    1
    45    19    42    1
    46    19    43    1
    47    20    44    1
    48    20    45    1
    49    22    46    1
    50    22    47    1
    51    22    48    1
