
     RDKit          3D

 28 28  0  0  0  0  0  0  0  0999 V2000
   -2.8167   -1.2519    0.2143 C   0  0  0  0  0  0  0  0  0  0  0  0
   -1.3041   -1.1342    0.2714 C   0  0  0  0  0  0  0  0  0  0  0  0
   -0.8488    0.2126    0.0840 N   0  0  0  0  0  4  0  0  0  0  0  0
   -1.5502    1.0950    0.9795 C   0  0  0  0  0  0  0  0  0  0  0  0
   -1.2830    0.5868   -1.2726 C   0  0  0  0  0  0  0  0  0  0  0  0
    0.5488    0.2485    0.2104 C   0  0  0  0  0  0  0  0  0  0  0  0
    1.3880   -0.8414    0.2375 C   0  0  0  0  0  0  0  0  0  0  0  0
    2.7547   -0.7901    0.3619 C   0  0  0  0  0  0  0  0  0  0  0  0
    3.5285   -1.9666    0.3793 O   0  0  0  0  0  0  0  0  0  0  0  0
    3.3400    0.4543    0.4689 C   0  0  0  0  0  0  0  0  0  0  0  0
    2.5512    1.6060    0.4490 C   0  0  0  0  0  0  0  0  0  0  0  0
    1.1691    1.4790    0.3200 C   0  0  0  0  0  0  0  0  0  0  0  0
   -3.3380   -0.8544    1.0841 H   0  0  0  0  0  0  0  0  0  0  0  0
   -3.0004   -2.3666    0.2147 H   0  0  0  0  0  0  0  0  0  0  0  0
   -3.1975   -0.9214   -0.7689 H   0  0  0  0  0  0  0  0  0  0  0  0
   -0.9715   -1.5214    1.2405 H   0  0  0  0  0  0  0  0  0  0  0  0
   -0.9500   -1.7163   -0.6123 H   0  0  0  0  0  0  0  0  0  0  0  0
   -1.3675    0.9074    2.0383 H   0  0  0  0  0  0  0  0  0  0  0  0
   -2.6257    1.0233    0.7255 H   0  0  0  0  0  0  0  0  0  0  0  0
   -1.2894    2.1645    0.7811 H   0  0  0  0  0  0  0  0  0  0  0  0
   -0.6811    1.4253   -1.6621 H   0  0  0  0  0  0  0  0  0  0  0  0
   -1.1994   -0.2946   -1.9542 H   0  0  0  0  0  0  0  0  0  0  0  0
   -2.3347    0.8770   -1.2084 H   0  0  0  0  0  0  0  0  0  0  0  0
    0.9376   -1.8216    0.1542 H   0  0  0  0  0  0  0  0  0  0  0  0
    4.3684   -2.0380   -0.1791 H   0  0  0  0  0  0  0  0  0  0  0  0
    4.4233    0.4530    0.5656 H   0  0  0  0  0  0  0  0  0  0  0  0
    3.0693    2.5494    0.5368 H   0  0  0  0  0  0  0  0  0  0  0  0
    0.6789    2.4361    0.3182 H   0  0  0  0  0  0  0  0  0  0  0  0
  1  2  1  0
  2  3  1  0
  3  4  1  0
  3  5  1  0
  3  6  1  0
  6  7  2  0
  7  8  1  0
  8  9  1  0
  8 10  2  0
 10 11  1  0
 11 12  2  0
 12  6  1  0
  1 13  1  0
  1 14  1  0
  1 15  1  0
  2 16  1  0
  2 17  1  0
  4 18  1  0
  4 19  1  0
  4 20  1  0
  5 21  1  0
  5 22  1  0
  5 23  1  0
  7 24  1  0
  9 25  1  0
 10 26  1  0
 11 27  1  0
 12 28  1  0
M  CHG  1   3   1
M  END
$$$$
