@<TRIPOS>MOLECULE
*****
 23 25 0 0 0
SMALL
GASTEIGER

@<TRIPOS>ATOM
      1 S           0.2078    0.0876   -1.7769 S.2     1  UNL1       -0.0169
      2 P           0.1900    0.0487   -0.0331 P.3     1  UNL1        0.1283
      3 N          -0.1444   -1.5741    0.4709 N.3     1  UNL1       -0.2514
      4 C          -1.2397   -2.2379   -0.2973 C.3     1  UNL1        0.0185
      5 C          -1.3509   -1.9109    1.1727 C.3     1  UNL1        0.0185
      6 N          -1.0290    1.1917    0.4553 N.3     1  UNL1       -0.2514
      7 C          -1.0845    2.4351   -0.2743 C.3     1  UNL1        0.0185
      8 C          -2.1464    1.4174   -0.4706 C.3     1  UNL1        0.0185
      9 N           1.7397    0.5786    0.5497 N.3     1  UNL1       -0.2514
     10 C           2.8047   -0.3882    0.7049 C.3     1  UNL1        0.0185
     11 C           2.8515    0.6641   -0.3629 C.3     1  UNL1        0.0185
     12 H          -1.8159   -1.6065   -1.0037 H       1  UNL1        0.0443
     13 H          -0.9552   -3.2524   -0.6163 H       1  UNL1        0.0443
     14 H          -2.0594   -1.1416    1.4935 H       1  UNL1        0.0443
     15 H          -1.3128   -2.7969    1.8480 H       1  UNL1        0.0443
     16 H          -0.3851    2.6070   -1.1126 H       1  UNL1        0.0443
     17 H          -1.4098    3.3675    0.2314 H       1  UNL1        0.0443
     18 H          -2.1099    0.8205   -1.4114 H       1  UNL1        0.0443
     19 H          -3.1128    1.4850    0.0869 H       1  UNL1        0.0443
     20 H           3.4699   -0.1982    1.5673 H       1  UNL1        0.0443
     21 H           2.6584   -1.4411    0.4161 H       1  UNL1        0.0443
     22 H           3.4592    1.5723   -0.2452 H       1  UNL1        0.0443
     23 H           2.7745    0.2723   -1.3921 H       1  UNL1        0.0443
@<TRIPOS>BOND
     1     1     2    2
     2     2     3    1
     3     3     4    1
     4     4     5    1
     5     2     6    1
     6     6     7    1
     7     7     8    1
     8     2     9    1
     9     9    10    1
    10    10    11    1
    11     5     3    1
    12     8     6    1
    13    11     9    1
    14     4    12    1
    15     4    13    1
    16     5    14    1
    17     5    15    1
    18     7    16    1
    19     7    17    1
    20     8    18    1
    21     8    19    1
    22    10    20    1
    23    10    21    1
    24    11    22    1
    25    11    23    1
