@<TRIPOS>MOLECULE
*****
 68 71 0 0 0
SMALL
GASTEIGER

@<TRIPOS>ATOM
      1 C         -10.4612   -1.9498    1.4040 C.3     1  UNL1        0.0804
      2 O          -9.9621   -1.8854    0.0836 O.3     1  UNL1       -0.4796
      3 C          -8.7035   -1.3219   -0.1052 C.ar    1  UNL1        0.2144
      4 C          -8.1753   -1.2394   -1.3893 C.ar    1  UNL1        0.0003
      5 C          -6.9334   -0.6875   -1.6075 C.ar    1  UNL1       -0.0494
      6 C          -6.2138   -0.2151   -0.5384 C.ar    1  UNL1        0.0022
      7 C          -4.8893    0.3733   -0.7635 C.3     1  UNL1        0.0924
      8 O          -4.8126    0.9421   -2.0517 O.3     1  UNL1       -0.3839
      9 C          -3.8741   -0.7659   -0.6545 C.3     1  UNL1       -0.0184
     10 C          -2.7432   -0.2782    0.1988 C.3     1  UNL1       -0.0344
     11 C          -2.1833    1.0099   -0.3536 C.3     1  UNL1        0.0107
     12 N          -0.9703    1.3178    0.3816 N.3     1  UNL1       -0.2976
     13 C          -0.3399    2.5395   -0.0638 C.3     1  UNL1        0.0009
     14 C           1.0374    2.4003    0.5996 C.3     1  UNL1       -0.0205
     15 C           1.3729    0.9737    0.2588 C.3     1  UNL1        0.0370
     16 N           2.1014    0.3064    1.3068 N.am    1  UNL1       -0.3099
     17 C           3.3622   -0.2665    1.0042 C.2     1  UNL1        0.2305
     18 O           3.7802   -0.1597   -0.1748 O.2     1  UNL1       -0.2741
     19 C           4.1919   -0.9720    1.9983 C.3     1  UNL1        0.0884
     20 N           5.4054   -1.4211    1.3752 N.am    1  UNL1       -0.3028
     21 C           6.2982   -0.4937    0.8140 C.2     1  UNL1        0.2445
     22 O           5.9790    0.7326    0.8914 O.2     1  UNL1       -0.2702
     23 C           7.5605   -0.8570    0.1530 C.ar    1  UNL1        0.0372
     24 C           7.9498   -2.1656    0.0408 C.ar    1  UNL1       -0.0496
     25 C           9.1541   -2.4452   -0.5949 C.ar    1  UNL1       -0.0605
     26 C           9.9724   -1.4659   -1.1165 C.ar    1  UNL1       -0.0501
     27 C           9.5460   -0.1626   -0.9837 C.ar    1  UNL1        0.0555
     28 C          10.3464    0.9916   -1.5088 C.3     1  UNL1        0.4174
     29 F           9.4516    1.8556   -2.1057 F       1  UNL1       -0.1659
     30 F          10.8465    1.6413   -0.3893 F       1  UNL1       -0.1659
     31 F          11.3412    0.5741   -2.3547 F       1  UNL1       -0.1659
     32 C           8.3550    0.1279   -0.3560 C.ar    1  UNL1       -0.0380
     33 C           0.0147    0.3087    0.1414 C.3     1  UNL1        0.0176
     34 C          -3.2309    2.0852   -0.1641 C.3     1  UNL1       -0.0344
     35 C          -4.5798    1.4829    0.1987 C.3     1  UNL1       -0.0184
     36 C          -6.7457   -0.3031    0.7170 C.ar    1  UNL1        0.0373
     37 N          -7.9695   -0.8496    0.9107 N.ar    1  UNL1       -0.2210
     38 H         -11.3162   -2.6243    1.5225 H       1  UNL1        0.0660
     39 H          -9.5940   -2.2479    2.0557 H       1  UNL1        0.0660
     40 H         -10.7255   -0.9165    1.7348 H       1  UNL1        0.0660
     41 H          -8.7814   -1.6255   -2.1974 H       1  UNL1        0.0671
     42 H          -6.5398   -0.6343   -2.6300 H       1  UNL1        0.0623
     43 H          -5.4577    1.7019   -2.0496 H       1  UNL1        0.2106
     44 H          -4.3190   -1.6458   -0.1450 H       1  UNL1        0.0297
     45 H          -3.4735   -1.0246   -1.6551 H       1  UNL1        0.0297
     46 H          -1.9850   -1.0871    0.2300 H       1  UNL1        0.0281
     47 H          -3.0739   -0.1005    1.2499 H       1  UNL1        0.0281
     48 H          -1.9672    0.8759   -1.4348 H       1  UNL1        0.0462
     49 H          -0.1758    2.4697   -1.1391 H       1  UNL1        0.0427
     50 H          -0.8561    3.4436    0.2723 H       1  UNL1        0.0427
     51 H           0.8678    2.5542    1.6842 H       1  UNL1        0.0296
     52 H           1.7526    3.1353    0.2179 H       1  UNL1        0.0296
     53 H           1.9280    0.9492   -0.6972 H       1  UNL1        0.0511
     54 H           1.7119    0.2459    2.2640 H       1  UNL1        0.1491
     55 H           4.4165   -0.3294    2.8848 H       1  UNL1        0.0558
     56 H           3.5750   -1.8576    2.3338 H       1  UNL1        0.0558
     57 H           5.6213   -2.4317    1.3403 H       1  UNL1        0.1495
     58 H           7.3344   -2.9763    0.4389 H       1  UNL1        0.0625
     59 H           9.4607   -3.4936   -0.6819 H       1  UNL1        0.0618
     60 H          10.9082   -1.6591   -1.6125 H       1  UNL1        0.0623
     61 H           8.0134    1.1655   -0.2490 H       1  UNL1        0.0631
     62 H          -0.0418   -0.1263   -0.8808 H       1  UNL1        0.0445
     63 H          -0.1231   -0.4773    0.9263 H       1  UNL1        0.0445
     64 H          -3.3104    2.7451   -1.0573 H       1  UNL1        0.0281
     65 H          -2.9142    2.6824    0.7261 H       1  UNL1        0.0281
     66 H          -4.6249    1.2152    1.2547 H       1  UNL1        0.0297
     67 H          -5.3429    2.2727    0.0324 H       1  UNL1        0.0297
     68 H          -6.2463    0.0436    1.6109 H       1  UNL1        0.0834
@<TRIPOS>BOND
     1     1     2    1
     2     2     3    1
     3     3     4   ar
     4     4     5   ar
     5     5     6   ar
     6     6     7    1
     7     7     8    1
     8     7     9    1
     9     9    10    1
    10    10    11    1
    11    11    12    1
    12    12    13    1
    13    13    14    1
    14    14    15    1
    15    15    16    1
    16    16    17   am
    17    17    18    2
    18    17    19    1
    19    19    20    1
    20    20    21   am
    21    21    22    2
    22    21    23    1
    23    23    24   ar
    24    24    25   ar
    25    25    26   ar
    26    26    27   ar
    27    27    28    1
    28    28    29    1
    29    28    30    1
    30    28    31    1
    31    27    32   ar
    32    15    33    1
    33    11    34    1
    34    34    35    1
    35     6    36   ar
    36    36    37   ar
    37    37     3   ar
    38    35     7    1
    39    33    12    1
    40    32    23   ar
    41     1    38    1
    42     1    39    1
    43     1    40    1
    44     4    41    1
    45     5    42    1
    46     8    43    1
    47     9    44    1
    48     9    45    1
    49    10    46    1
    50    10    47    1
    51    11    48    1
    52    13    49    1
    53    13    50    1
    54    14    51    1
    55    14    52    1
    56    15    53    1
    57    16    54    1
    58    19    55    1
    59    19    56    1
    60    20    57    1
    61    24    58    1
    62    25    59    1
    63    26    60    1
    64    32    61    1
    65    33    62    1
    66    33    63    1
    67    34    64    1
    68    34    65    1
    69    35    66    1
    70    35    67    1
    71    36    68    1
