@<TRIPOS>MOLECULE
*****
 53 55 0 0 0
SMALL
GASTEIGER

@<TRIPOS>ATOM
      1 C          -2.0678    0.9890    0.3578 C.3     1  UNL1       -0.0220
      2 C          -2.5513   -0.3634   -0.0602 C.ar    1  UNL1        0.0450
      3 C          -1.7999   -1.3654   -0.6402 C.ar    1  UNL1       -0.0059
      4 C          -0.3549   -1.2951   -0.9682 C.3     1  UNL1       -0.0136
      5 C           0.4445   -1.4669    0.2611 C.3     1  UNL1        0.0371
      6 C           0.1321   -2.8120    0.8616 C.3     1  UNL1       -0.0538
      7 C           1.9124   -1.3960    0.0560 C.2     1  UNL1        0.2201
      8 O           2.5955   -2.3974    0.3324 O.2     1  UNL1       -0.2752
      9 N           2.5430   -0.2250   -0.4426 N.am    1  UNL1       -0.2884
     10 C           3.9097   -0.0244   -0.6822 C.2     1  UNL1        0.0204
     11 C           4.3453    1.1499   -1.1616 C.2     1  UNL1        0.0534
     12 C           3.5301    2.2798   -1.4706 C.2     1  UNL1        0.3342
     13 O           4.1492    3.3162   -1.9233 O.2     1  UNL1       -0.2454
     14 O           2.1840    2.4410   -1.3621 O.3     1  UNL1       -0.4773
     15 C           5.8389    1.2171   -1.3841 C.3     1  UNL1       -0.0194
     16 C           6.4614    1.0026   -0.0262 C.3     1  UNL1       -0.0485
     17 C           6.1186   -0.4066    0.3864 C.3     1  UNL1       -0.0476
     18 C           5.0002   -1.0070   -0.4552 C.3     1  UNL1       -0.0140
     19 C          -2.6856   -2.4102   -0.8396 C.ar    1  UNL1        0.0532
     20 N          -3.8675   -2.0015   -0.3908 N.ar    1  UNL1       -0.1743
     21 N          -3.8215   -0.7760    0.0841 N.ar    1  UNL1       -0.2367
     22 C          -4.8806    0.0093    0.6420 C.ar    1  UNL1        0.0659
     23 C          -4.9898    0.2676    1.9888 C.ar    1  UNL1       -0.0328
     24 C          -6.0452    1.0431    2.4822 C.ar    1  UNL1       -0.0182
     25 C          -6.9955    1.5629    1.6294 C.ar    1  UNL1        0.1170
     26 O          -8.0274    2.3206    2.1140 O.3     1  UNL1       -0.5068
     27 C          -6.9061    1.3164    0.2698 C.ar    1  UNL1       -0.0182
     28 C          -5.8620    0.5542   -0.1832 C.ar    1  UNL1       -0.0328
     29 H          -1.5287    0.9538    1.3328 H       1  UNL1        0.0293
     30 H          -1.3355    1.4015   -0.3754 H       1  UNL1        0.0293
     31 H          -2.9148    1.7118    0.3983 H       1  UNL1        0.0293
     32 H          -0.2040   -0.3448   -1.5061 H       1  UNL1        0.0321
     33 H          -0.1661   -2.1016   -1.7163 H       1  UNL1        0.0321
     34 H           0.1767   -0.6904    1.0096 H       1  UNL1        0.0395
     35 H           0.4827   -2.8583    1.9292 H       1  UNL1        0.0237
     36 H           0.8030   -3.5480    0.3291 H       1  UNL1        0.0237
     37 H          -0.9228   -3.1127    0.7561 H       1  UNL1        0.0237
     38 H           1.8174    0.5362   -0.6269 H       1  UNL1        0.1545
     39 H           1.7501    3.3438   -1.1814 H       1  UNL1        0.2954
     40 H           6.1128    2.1842   -1.8459 H       1  UNL1        0.0316
     41 H           6.0926    0.3526   -2.0184 H       1  UNL1        0.0316
     42 H           7.5502    1.1304   -0.0296 H       1  UNL1        0.0269
     43 H           5.9855    1.7559    0.6582 H       1  UNL1        0.0269
     44 H           7.0100   -1.0624    0.1848 H       1  UNL1        0.0269
     45 H           5.8664   -0.4032    1.4550 H       1  UNL1        0.0269
     46 H           4.6236   -1.8593    0.1218 H       1  UNL1        0.0326
     47 H           5.3797   -1.4327   -1.4105 H       1  UNL1        0.0326
     48 H          -2.4011   -3.3536   -1.2820 H       1  UNL1        0.0851
     49 H          -4.2379   -0.1456    2.6525 H       1  UNL1        0.0640
     50 H          -6.0890    1.2193    3.5425 H       1  UNL1        0.0655
     51 H          -8.7264    2.7199    1.4894 H       1  UNL1        0.2921
     52 H          -7.6661    1.7338   -0.4010 H       1  UNL1        0.0655
     53 H          -5.7683    0.3466   -1.2380 H       1  UNL1        0.0640
@<TRIPOS>BOND
     1     1     2    1
     2     2     3   ar
     3     3     4    1
     4     4     5    1
     5     5     6    1
     6     5     7    1
     7     7     8    2
     8     7     9   am
     9     9    10    1
    10    10    11    2
    11    11    12    1
    12    12    13    2
    13    12    14    1
    14    11    15    1
    15    15    16    1
    16    16    17    1
    17    17    18    1
    18     3    19   ar
    19    19    20   ar
    20    20    21   ar
    21    21    22    1
    22    22    23   ar
    23    23    24   ar
    24    24    25   ar
    25    25    26    1
    26    25    27   ar
    27    27    28   ar
    28    21     2   ar
    29    28    22   ar
    30    18    10    1
    31     1    29    1
    32     1    30    1
    33     1    31    1
    34     4    32    1
    35     4    33    1
    36     5    34    1
    37     6    35    1
    38     6    36    1
    39     6    37    1
    40     9    38    1
    41    14    39    1
    42    15    40    1
    43    15    41    1
    44    16    42    1
    45    16    43    1
    46    17    44    1
    47    17    45    1
    48    18    46    1
    49    18    47    1
    50    19    48    1
    51    23    49    1
    52    24    50    1
    53    26    51    1
    54    27    52    1
    55    28    53    1
