
     RDKit          3D

 53 55  0  0  0  0  0  0  0  0999 V2000
   -2.0678    0.9890    0.3578 C   0  0  0  0  0  0  0  0  0  0  0  0
   -2.5513   -0.3634   -0.0602 C   0  0  0  0  0  0  0  0  0  0  0  0
   -1.7999   -1.3654   -0.6402 C   0  0  0  0  0  0  0  0  0  0  0  0
   -0.3549   -1.2951   -0.9682 C   0  0  0  0  0  0  0  0  0  0  0  0
    0.4445   -1.4669    0.2611 C   0  0  1  0  0  0  0  0  0  0  0  0
    0.1321   -2.8120    0.8616 C   0  0  0  0  0  0  0  0  0  0  0  0
    1.9124   -1.3960    0.0560 C   0  0  0  0  0  0  0  0  0  0  0  0
    2.5955   -2.3974    0.3324 O   0  0  0  0  0  0  0  0  0  0  0  0
    2.5430   -0.2250   -0.4426 N   0  0  0  0  0  0  0  0  0  0  0  0
    3.9097   -0.0244   -0.6822 C   0  0  0  0  0  0  0  0  0  0  0  0
    4.3453    1.1499   -1.1616 C   0  0  0  0  0  0  0  0  0  0  0  0
    3.5301    2.2798   -1.4706 C   0  0  0  0  0  0  0  0  0  0  0  0
    4.1492    3.3162   -1.9233 O   0  0  0  0  0  0  0  0  0  0  0  0
    2.1840    2.4410   -1.3621 O   0  0  0  0  0  0  0  0  0  0  0  0
    5.8389    1.2171   -1.3841 C   0  0  0  0  0  0  0  0  0  0  0  0
    6.4614    1.0026   -0.0262 C   0  0  0  0  0  0  0  0  0  0  0  0
    6.1186   -0.4066    0.3864 C   0  0  0  0  0  0  0  0  0  0  0  0
    5.0002   -1.0070   -0.4552 C   0  0  0  0  0  0  0  0  0  0  0  0
   -2.6856   -2.4102   -0.8396 C   0  0  0  0  0  0  0  0  0  0  0  0
   -3.8675   -2.0015   -0.3908 N   0  0  0  0  0  0  0  0  0  0  0  0
   -3.8215   -0.7760    0.0841 N   0  0  0  0  0  0  0  0  0  0  0  0
   -4.8806    0.0093    0.6420 C   0  0  0  0  0  0  0  0  0  0  0  0
   -4.9898    0.2676    1.9888 C   0  0  0  0  0  0  0  0  0  0  0  0
   -6.0452    1.0431    2.4822 C   0  0  0  0  0  0  0  0  0  0  0  0
   -6.9955    1.5629    1.6294 C   0  0  0  0  0  0  0  0  0  0  0  0
   -8.0274    2.3206    2.1140 O   0  0  0  0  0  0  0  0  0  0  0  0
   -6.9061    1.3164    0.2698 C   0  0  0  0  0  0  0  0  0  0  0  0
   -5.8620    0.5542   -0.1832 C   0  0  0  0  0  0  0  0  0  0  0  0
   -1.5287    0.9538    1.3328 H   0  0  0  0  0  0  0  0  0  0  0  0
   -1.3355    1.4015   -0.3754 H   0  0  0  0  0  0  0  0  0  0  0  0
   -2.9148    1.7118    0.3983 H   0  0  0  0  0  0  0  0  0  0  0  0
   -0.2040   -0.3448   -1.5061 H   0  0  0  0  0  0  0  0  0  0  0  0
   -0.1661   -2.1016   -1.7163 H   0  0  0  0  0  0  0  0  0  0  0  0
    0.1767   -0.6904    1.0096 H   0  0  0  0  0  0  0  0  0  0  0  0
    0.4827   -2.8583    1.9292 H   0  0  0  0  0  0  0  0  0  0  0  0
    0.8030   -3.5480    0.3291 H   0  0  0  0  0  0  0  0  0  0  0  0
   -0.9228   -3.1127    0.7561 H   0  0  0  0  0  0  0  0  0  0  0  0
    1.8174    0.5362   -0.6269 H   0  0  0  0  0  0  0  0  0  0  0  0
    1.7501    3.3438   -1.1814 H   0  0  0  0  0  0  0  0  0  0  0  0
    6.1128    2.1842   -1.8459 H   0  0  0  0  0  0  0  0  0  0  0  0
    6.0926    0.3526   -2.0184 H   0  0  0  0  0  0  0  0  0  0  0  0
    7.5502    1.1304   -0.0296 H   0  0  0  0  0  0  0  0  0  0  0  0
    5.9855    1.7559    0.6582 H   0  0  0  0  0  0  0  0  0  0  0  0
    7.0100   -1.0624    0.1848 H   0  0  0  0  0  0  0  0  0  0  0  0
    5.8664   -0.4032    1.4550 H   0  0  0  0  0  0  0  0  0  0  0  0
    4.6236   -1.8593    0.1218 H   0  0  0  0  0  0  0  0  0  0  0  0
    5.3797   -1.4327   -1.4105 H   0  0  0  0  0  0  0  0  0  0  0  0
   -2.4011   -3.3536   -1.2820 H   0  0  0  0  0  0  0  0  0  0  0  0
   -4.2379   -0.1456    2.6525 H   0  0  0  0  0  0  0  0  0  0  0  0
   -6.0890    1.2193    3.5425 H   0  0  0  0  0  0  0  0  0  0  0  0
   -8.7264    2.7199    1.4894 H   0  0  0  0  0  0  0  0  0  0  0  0
   -7.6661    1.7338   -0.4010 H   0  0  0  0  0  0  0  0  0  0  0  0
   -5.7683    0.3466   -1.2380 H   0  0  0  0  0  0  0  0  0  0  0  0
  1  2  1  0
  2  3  2  0
  3  4  1  0
  4  5  1  0
  5  6  1  0
  5  7  1  0
  7  8  2  0
  7  9  1  0
  9 10  1  0
 10 11  2  0
 11 12  1  0
 12 13  2  0
 12 14  1  0
 11 15  1  0
 15 16  1  0
 16 17  1  0
 17 18  1  0
  3 19  1  0
 19 20  2  0
 20 21  1  0
 21 22  1  0
 22 23  2  0
 23 24  1  0
 24 25  2  0
 25 26  1  0
 25 27  1  0
 27 28  2  0
 21  2  1  0
 28 22  1  0
 18 10  1  0
  1 29  1  0
  1 30  1  0
  1 31  1  0
  4 32  1  0
  4 33  1  0
  5 34  1  1
  6 35  1  0
  6 36  1  0
  6 37  1  0
  9 38  1  0
 14 39  1  0
 15 40  1  0
 15 41  1  0
 16 42  1  0
 16 43  1  0
 17 44  1  0
 17 45  1  0
 18 46  1  0
 18 47  1  0
 19 48  1  0
 23 49  1  0
 24 50  1  0
 26 51  1  0
 27 52  1  0
 28 53  1  0
M  END
$$$$
