@<TRIPOS>MOLECULE
*****
 23 23 0 0 0
SMALL
GASTEIGER

@<TRIPOS>ATOM
      1 C          -3.3702    0.2317    1.2783 C.3     1  UNL1       -0.0643
      2 C          -2.6894    0.6849   -0.0189 C.3     1  UNL1       -0.0435
      3 C          -1.5988   -0.3359   -0.2805 C.3     1  UNL1        0.0128
      4 C          -0.9008    0.0636   -1.5426 C.3     1  UNL1       -0.0525
      5 S          -0.5800   -0.3835    1.1816 S.3     1  UNL1       -0.0821
      6 S           0.9623   -1.8223    0.8199 S.3     1  UNL1       -0.0188
      7 C           2.2953   -0.8963    0.0855 C.ar    1  UNL1        0.1769
      8 N           2.6529   -0.5678   -1.1536 N.ar    1  UNL1       -0.2298
      9 C           3.7800    0.1676   -1.1547 C.ar    1  UNL1        0.0464
     10 C           4.1390    0.2984    0.1891 C.ar    1  UNL1        0.0221
     11 N           3.2223   -0.3555    0.9166 N.ar    1  UNL1       -0.3389
     12 H          -3.5560   -0.8554    1.1570 H       1  UNL1        0.0230
     13 H          -2.6285    0.4041    2.1024 H       1  UNL1        0.0230
     14 H          -4.2826    0.8173    1.4866 H       1  UNL1        0.0230
     15 H          -3.3929    0.7533   -0.8557 H       1  UNL1        0.0273
     16 H          -2.1967    1.6602    0.2411 H       1  UNL1        0.0273
     17 H          -2.0905   -1.3217   -0.4072 H       1  UNL1        0.0418
     18 H          -0.6323    1.1234   -1.5232 H       1  UNL1        0.0241
     19 H          -1.6478   -0.0735   -2.3621 H       1  UNL1        0.0241
     20 H          -0.0670   -0.6129   -1.8175 H       1  UNL1        0.0241
     21 H           4.2263    0.5301   -2.0833 H       1  UNL1        0.0845
     22 H           5.0208    0.8531    0.4562 H       1  UNL1        0.0823
     23 H           3.3346   -0.3631    1.9680 H       1  UNL1        0.1673
@<TRIPOS>BOND
     1     1     2    1
     2     2     3    1
     3     3     4    1
     4     3     5    1
     5     5     6    1
     6     6     7    1
     7     7     8   ar
     8     8     9   ar
     9     9    10   ar
    10    10    11   ar
    11    11     7   ar
    12     1    12    1
    13     1    13    1
    14     1    14    1
    15     2    15    1
    16     2    16    1
    17     3    17    1
    18     4    18    1
    19     4    19    1
    20     4    20    1
    21     9    21    1
    22    10    22    1
    23    11    23    1
