
     RDKit          3D

 23 23  0  0  0  0  0  0  0  0999 V2000
   -3.3702    0.2317    1.2783 C   0  0  0  0  0  0  0  0  0  0  0  0
   -2.6894    0.6849   -0.0189 C   0  0  0  0  0  0  0  0  0  0  0  0
   -1.5988   -0.3359   -0.2805 C   0  0  0  0  0  0  0  0  0  0  0  0
   -0.9008    0.0636   -1.5426 C   0  0  0  0  0  0  0  0  0  0  0  0
   -0.5800   -0.3835    1.1816 S   0  0  0  0  0  0  0  0  0  0  0  0
    0.9623   -1.8223    0.8199 S   0  0  0  0  0  0  0  0  0  0  0  0
    2.2953   -0.8963    0.0855 C   0  0  0  0  0  0  0  0  0  0  0  0
    2.6529   -0.5678   -1.1536 N   0  0  0  0  0  0  0  0  0  0  0  0
    3.7800    0.1676   -1.1547 C   0  0  0  0  0  0  0  0  0  0  0  0
    4.1390    0.2984    0.1891 C   0  0  0  0  0  0  0  0  0  0  0  0
    3.2223   -0.3555    0.9166 N   0  0  0  0  0  0  0  0  0  0  0  0
   -3.5560   -0.8554    1.1570 H   0  0  0  0  0  0  0  0  0  0  0  0
   -2.6285    0.4041    2.1024 H   0  0  0  0  0  0  0  0  0  0  0  0
   -4.2826    0.8173    1.4866 H   0  0  0  0  0  0  0  0  0  0  0  0
   -3.3929    0.7533   -0.8557 H   0  0  0  0  0  0  0  0  0  0  0  0
   -2.1967    1.6602    0.2411 H   0  0  0  0  0  0  0  0  0  0  0  0
   -2.0905   -1.3217   -0.4072 H   0  0  0  0  0  0  0  0  0  0  0  0
   -0.6323    1.1234   -1.5232 H   0  0  0  0  0  0  0  0  0  0  0  0
   -1.6478   -0.0735   -2.3621 H   0  0  0  0  0  0  0  0  0  0  0  0
   -0.0670   -0.6129   -1.8175 H   0  0  0  0  0  0  0  0  0  0  0  0
    4.2263    0.5301   -2.0833 H   0  0  0  0  0  0  0  0  0  0  0  0
    5.0208    0.8531    0.4562 H   0  0  0  0  0  0  0  0  0  0  0  0
    3.3346   -0.3631    1.9680 H   0  0  0  0  0  0  0  0  0  0  0  0
  1  2  1  0
  2  3  1  0
  3  4  1  0
  3  5  1  0
  5  6  1  0
  6  7  1  0
  7  8  2  0
  8  9  1  0
  9 10  2  0
 10 11  1  0
 11  7  1  0
  1 12  1  0
  1 13  1  0
  1 14  1  0
  2 15  1  0
  2 16  1  0
  3 17  1  0
  4 18  1  0
  4 19  1  0
  4 20  1  0
  9 21  1  0
 10 22  1  0
 11 23  1  0
M  END
$$$$
