
     RDKit          3D

 62 66  0  0  0  0  0  0  0  0999 V2000
    3.7599    2.2875    0.6950 O   0  0  0  0  0  0  0  0  0  0  0  0
    4.1533    1.0928    0.4289 C   0  0  0  0  0  0  0  0  0  0  0  0
    3.1636    0.0208    0.4097 C   0  0  0  0  0  0  0  0  0  0  0  0
    1.9444   -0.0125    0.8662 C   0  0  0  0  0  0  0  0  0  0  0  0
    1.1446   -1.2403    0.7147 C   0  0  0  0  0  0  0  0  0  0  0  0
    1.5665   -2.5430    0.7677 C   0  0  0  0  0  0  0  0  0  0  0  0
    0.5303   -3.3641    0.5858 N   0  0  0  0  0  0  0  0  0  0  0  0
    0.5577   -4.7905    0.5685 C   0  0  0  0  0  0  0  0  0  0  0  0
   -0.6239   -5.5068    0.6187 C   0  0  0  0  0  0  0  0  0  0  0  0
   -0.5629   -6.8847    0.5955 C   0  0  0  0  0  0  0  0  0  0  0  0
    0.6263   -7.5766    0.5245 C   0  0  0  0  0  0  0  0  0  0  0  0
    1.8091   -6.8578    0.4743 C   0  0  0  0  0  0  0  0  0  0  0  0
    1.7454   -5.4606    0.4979 C   0  0  0  0  0  0  0  0  0  0  0  0
   -0.5345   -2.5864    0.4201 N   0  0  0  0  0  0  0  0  0  0  0  0
   -0.2245   -1.2985    0.4881 C   0  0  0  0  0  0  0  0  0  0  0  0
   -1.0722   -0.1163    0.3738 C   0  0  0  0  0  0  0  0  0  0  0  0
   -2.2463   -0.1201    1.0873 C   0  0  0  0  0  0  0  0  0  0  0  0
   -3.0789    0.9989    0.9814 C   0  0  0  0  0  0  0  0  0  0  0  0
   -2.7849    2.0996    0.2028 C   0  0  0  0  0  0  0  0  0  0  0  0
   -3.5256    3.1616    0.0705 O   0  0  0  0  0  0  0  0  0  0  0  0
   -4.6144    3.8416    0.3592 C   0  0  0  0  0  0  0  0  0  0  0  0
   -5.9116    3.2209    0.0338 C   0  0  0  0  0  0  0  0  0  0  0  0
   -6.4716    3.4434   -1.2088 C   0  0  0  0  0  0  0  0  0  0  0  0
   -7.6637    2.8289   -1.5774 C   0  0  0  0  0  0  0  0  0  0  0  0
   -8.2969    1.9878   -0.6966 C   0  0  0  0  0  0  0  0  0  0  0  0
   -7.7401    1.7631    0.5495 C   0  0  0  0  0  0  0  0  0  0  0  0
   -6.5474    2.3849    0.9066 C   0  0  0  0  0  0  0  0  0  0  0  0
   -6.1141    2.1359    2.1679 F   0  0  0  0  0  0  0  0  0  0  0  0
   -1.5655    2.0631   -0.5163 C   0  0  0  0  0  0  0  0  0  0  0  0
   -0.7535    0.9680   -0.4109 C   0  0  0  0  0  0  0  0  0  0  0  0
    4.0597   -1.3234   -0.4263 S   0  0  0  0  0  0  0  0  0  0  0  0
    5.6783   -0.6463   -0.1101 C   0  0  0  0  0  0  0  0  0  0  0  0
    7.0464   -1.4846   -0.1374 S   0  0  0  0  0  0  0  0  0  0  0  0
    5.4630    0.7208    0.1534 N   0  0  0  0  0  0  0  0  0  0  0  0
    6.5751    1.6913    0.1064 C   0  0  0  0  0  0  0  0  0  0  0  0
    6.8017    2.2011   -1.2731 C   0  0  0  0  0  0  0  0  0  0  0  0
    5.4560    3.0299   -2.0210 S   0  0  0  0  0  6  0  0  0  0  0  0
    4.3511    2.0760   -2.3194 O   0  0  0  0  0  0  0  0  0  0  0  0
    5.9318    3.5436   -3.3771 O   0  0  0  0  0  0  0  0  0  0  0  0
    4.9597    4.3928   -1.1807 O   0  0  0  0  0  0  0  0  0  0  0  0
    1.5257    0.8564    1.3534 H   0  0  0  0  0  0  0  0  0  0  0  0
    2.5784   -2.8605    0.9324 H   0  0  0  0  0  0  0  0  0  0  0  0
   -1.5574   -4.9657    0.6750 H   0  0  0  0  0  0  0  0  0  0  0  0
   -1.5120   -7.4170    0.6366 H   0  0  0  0  0  0  0  0  0  0  0  0
    0.5957   -8.6633    0.5106 H   0  0  0  0  0  0  0  0  0  0  0  0
    2.7386   -7.3854    0.4189 H   0  0  0  0  0  0  0  0  0  0  0  0
    2.7089   -4.9552    0.4552 H   0  0  0  0  0  0  0  0  0  0  0  0
   -2.5042   -0.9549    1.6992 H   0  0  0  0  0  0  0  0  0  0  0  0
   -3.9703    0.9415    1.5551 H   0  0  0  0  0  0  0  0  0  0  0  0
   -4.6407    4.1599    1.4677 H   0  0  0  0  0  0  0  0  0  0  0  0
   -4.6175    4.8497   -0.2039 H   0  0  0  0  0  0  0  0  0  0  0  0
   -5.9883    4.0986   -1.9084 H   0  0  0  0  0  0  0  0  0  0  0  0
   -8.0684    3.0253   -2.5521 H   0  0  0  0  0  0  0  0  0  0  0  0
   -9.2325    1.4912   -0.9601 H   0  0  0  0  0  0  0  0  0  0  0  0
   -8.2376    1.1081    1.2307 H   0  0  0  0  0  0  0  0  0  0  0  0
   -1.2716    2.8940   -1.1476 H   0  0  0  0  0  0  0  0  0  0  0  0
    0.1904    0.9695   -0.9838 H   0  0  0  0  0  0  0  0  0  0  0  0
    6.3831    2.5128    0.8384 H   0  0  0  0  0  0  0  0  0  0  0  0
    7.4652    1.1652    0.4904 H   0  0  0  0  0  0  0  0  0  0  0  0
    7.6565    2.9414   -1.2322 H   0  0  0  0  0  0  0  0  0  0  0  0
    7.1392    1.4022   -1.9788 H   0  0  0  0  0  0  0  0  0  0  0  0
    5.6276    4.6443   -0.4648 H   0  0  0  0  0  0  0  0  0  0  0  0
  1  2  2  0
  2  3  1  0
  3  4  2  0
  4  5  1  0
  5  6  2  0
  6  7  1  0
  7  8  1  0
  8  9  2  0
  9 10  1  0
 10 11  2  0
 11 12  1  0
 12 13  2  0
  7 14  1  0
 14 15  2  0
 15 16  1  0
 16 17  2  0
 17 18  1  0
 18 19  2  0
 19 20  1  0
 20 21  1  0
 21 22  1  0
 22 23  2  0
 23 24  1  0
 24 25  2  0
 25 26  1  0
 26 27  2  0
 27 28  1  0
 19 29  1  0
 29 30  2  0
  3 31  1  0
 31 32  1  0
 32 33  2  0
 32 34  1  0
 34 35  1  0
 35 36  1  0
 36 37  1  0
 37 38  2  0
 37 39  2  0
 37 40  1  0
 34  2  1  0
 15  5  1  0
 30 16  1  0
 13  8  1  0
 27 22  1  0
  4 41  1  0
  6 42  1  0
  9 43  1  0
 10 44  1  0
 11 45  1  0
 12 46  1  0
 13 47  1  0
 17 48  1  0
 18 49  1  0
 21 50  1  0
 21 51  1  0
 23 52  1  0
 24 53  1  0
 25 54  1  0
 26 55  1  0
 29 56  1  0
 30 57  1  0
 35 58  1  0
 35 59  1  0
 36 60  1  0
 36 61  1  0
 40 62  1  0
M  END
$$$$
