@<TRIPOS>MOLECULE
*****
 62 66 0 0 0
SMALL
GASTEIGER

@<TRIPOS>ATOM
      1 O           3.7599    2.2875    0.6950 O.2     1  UNL1       -0.2690
      2 C           4.1533    1.0928    0.4289 C.2     1  UNL1        0.2583
      3 C           3.1636    0.0208    0.4097 C.2     1  UNL1        0.0773
      4 C           1.9444   -0.0125    0.8662 C.2     1  UNL1       -0.0322
      5 C           1.1446   -1.2403    0.7147 C.ar    1  UNL1        0.0220
      6 C           1.5665   -2.5430    0.7677 C.ar    1  UNL1        0.0390
      7 N           0.5303   -3.3641    0.5858 N.ar    1  UNL1       -0.2387
      8 C           0.5577   -4.7905    0.5685 C.ar    1  UNL1        0.0654
      9 C          -0.6239   -5.5068    0.6187 C.ar    1  UNL1       -0.0363
     10 C          -0.5629   -6.8847    0.5955 C.ar    1  UNL1       -0.0598
     11 C           0.6263   -7.5766    0.5245 C.ar    1  UNL1       -0.0616
     12 C           1.8091   -6.8578    0.4743 C.ar    1  UNL1       -0.0598
     13 C           1.7454   -5.4606    0.4979 C.ar    1  UNL1       -0.0363
     14 N          -0.5345   -2.5864    0.4201 N.ar    1  UNL1       -0.1658
     15 C          -0.2245   -1.2985    0.4881 C.ar    1  UNL1        0.1003
     16 C          -1.0722   -0.1163    0.3738 C.ar    1  UNL1        0.0029
     17 C          -2.2463   -0.1201    1.0873 C.ar    1  UNL1       -0.0490
     18 C          -3.0789    0.9989    0.9814 C.ar    1  UNL1       -0.0193
     19 C          -2.7849    2.0996    0.2028 C.ar    1  UNL1        0.1210
     20 O          -3.5256    3.1616    0.0705 O.3     1  UNL1       -0.4873
     21 C          -4.6144    3.8416    0.3592 C.3     1  UNL1        0.1173
     22 C          -5.9116    3.2209    0.0338 C.ar    1  UNL1        0.0248
     23 C          -6.4716    3.4434   -1.2088 C.ar    1  UNL1       -0.0526
     24 C          -7.6637    2.8289   -1.5774 C.ar    1  UNL1       -0.0612
     25 C          -8.2969    1.9878   -0.6966 C.ar    1  UNL1       -0.0590
     26 C          -7.7401    1.7631    0.5495 C.ar    1  UNL1       -0.0261
     27 C          -6.5474    2.3849    0.9066 C.ar    1  UNL1        0.1298
     28 F          -6.1141    2.1359    2.1679 F       1  UNL1       -0.2051
     29 C          -1.5655    2.0631   -0.5163 C.ar    1  UNL1       -0.0193
     30 C          -0.7535    0.9680   -0.4109 C.ar    1  UNL1       -0.0490
     31 S           4.0597   -1.3234   -0.4263 S.3     1  UNL1       -0.0610
     32 C           5.6783   -0.6463   -0.1101 C.2     1  UNL1        0.1206
     33 S           7.0464   -1.4846   -0.1374 S.2     1  UNL1       -0.0272
     34 N           5.4630    0.7208    0.1534 N.am    1  UNL1       -0.2537
     35 C           6.5751    1.6913    0.1064 C.3     1  UNL1        0.0428
     36 C           6.8017    2.2011   -1.2731 C.3     1  UNL1        0.1087
     37 S           5.4560    3.0299   -2.0210 S.O2    1  UNL1        0.0812
     38 O           4.3511    2.0760   -2.3194 O.2     1  UNL1       -0.1473
     39 O           5.9318    3.5436   -3.3771 O.2     1  UNL1       -0.1473
     40 O           4.9597    4.3928   -1.1807 O.3     1  UNL1       -0.2539
     41 H           1.5257    0.8564    1.3534 H       1  UNL1        0.0637
     42 H           2.5784   -2.8605    0.9324 H       1  UNL1        0.0837
     43 H          -1.5574   -4.9657    0.6750 H       1  UNL1        0.0639
     44 H          -1.5120   -7.4170    0.6366 H       1  UNL1        0.0618
     45 H           0.5957   -8.6633    0.5106 H       1  UNL1        0.0618
     46 H           2.7386   -7.3854    0.4189 H       1  UNL1        0.0618
     47 H           2.7089   -4.9552    0.4552 H       1  UNL1        0.0639
     48 H          -2.5042   -0.9549    1.6992 H       1  UNL1        0.0625
     49 H          -3.9703    0.9415    1.5551 H       1  UNL1        0.0654
     50 H          -4.6407    4.1599    1.4677 H       1  UNL1        0.0749
     51 H          -4.6175    4.8497   -0.2039 H       1  UNL1        0.0749
     52 H          -5.9883    4.0986   -1.9084 H       1  UNL1        0.0622
     53 H          -8.0684    3.0253   -2.5521 H       1  UNL1        0.0618
     54 H          -9.2325    1.4912   -0.9601 H       1  UNL1        0.0618
     55 H          -8.2376    1.1081    1.2307 H       1  UNL1        0.0646
     56 H          -1.2716    2.8940   -1.1476 H       1  UNL1        0.0654
     57 H           0.1904    0.9695   -0.9838 H       1  UNL1        0.0625
     58 H           6.3831    2.5128    0.8384 H       1  UNL1        0.0486
     59 H           7.4652    1.1652    0.4904 H       1  UNL1        0.0486
     60 H           7.6565    2.9414   -1.2322 H       1  UNL1        0.0541
     61 H           7.1392    1.4022   -1.9788 H       1  UNL1        0.0541
     62 H           5.6276    4.6443   -0.4648 H       1  UNL1        0.2445
@<TRIPOS>BOND
     1     1     2    2
     2     2     3    1
     3     3     4    2
     4     4     5    1
     5     5     6   ar
     6     6     7   ar
     7     7     8    1
     8     8     9   ar
     9     9    10   ar
    10    10    11   ar
    11    11    12   ar
    12    12    13   ar
    13     7    14   ar
    14    14    15   ar
    15    15    16    1
    16    16    17   ar
    17    17    18   ar
    18    18    19   ar
    19    19    20    1
    20    20    21    1
    21    21    22    1
    22    22    23   ar
    23    23    24   ar
    24    24    25   ar
    25    25    26   ar
    26    26    27   ar
    27    27    28    1
    28    19    29   ar
    29    29    30   ar
    30     3    31    1
    31    31    32    1
    32    32    33    2
    33    32    34    1
    34    34    35    1
    35    35    36    1
    36    36    37    1
    37    37    38    2
    38    37    39    2
    39    37    40    1
    40    34     2   am
    41    15     5   ar
    42    30    16   ar
    43    13     8   ar
    44    27    22   ar
    45     4    41    1
    46     6    42    1
    47     9    43    1
    48    10    44    1
    49    11    45    1
    50    12    46    1
    51    13    47    1
    52    17    48    1
    53    18    49    1
    54    21    50    1
    55    21    51    1
    56    23    52    1
    57    24    53    1
    58    25    54    1
    59    26    55    1
    60    29    56    1
    61    30    57    1
    62    35    58    1
    63    35    59    1
    64    36    60    1
    65    36    61    1
    66    40    62    1
