@<TRIPOS>MOLECULE
*****
 58 62 0 0 0
SMALL
GASTEIGER

@<TRIPOS>ATOM
      1 C          -4.3633    4.1691    1.2859 C.3     1  UNL1        0.0001
      2 N          -4.0990    2.7901    0.9029 N.am    1  UNL1       -0.3172
      3 C          -4.9739    1.7840    1.3933 C.2     1  UNL1        0.2296
      4 O          -5.9445    2.1447    2.1443 O.2     1  UNL1       -0.2743
      5 C          -4.8520    0.3531    1.1049 C.3     1  UNL1        0.1052
      6 C          -3.5417   -0.2765    1.5621 C.3     1  UNL1       -0.0220
      7 C          -3.9339   -0.1157    0.0902 C.3     1  UNL1        0.0134
      8 C          -4.1940   -1.3694   -0.6296 C.3     1  UNL1        0.0935
      9 C          -5.0419   -1.0506   -1.8454 C.3     1  UNL1       -0.0351
     10 C          -2.9037   -1.9122   -1.1385 C.ar    1  UNL1        0.0158
     11 C          -1.7127   -1.3316   -0.7354 C.ar    1  UNL1       -0.0463
     12 C          -0.4973   -1.7875   -1.1700 C.ar    1  UNL1       -0.0217
     13 C           0.7733   -1.2064   -0.7607 C.2     1  UNL1       -0.0171
     14 C           1.8117   -1.0174   -1.5451 C.2     1  UNL1        0.1507
     15 F           1.6530   -1.4096   -2.8520 F       1  UNL1       -0.2032
     16 C           3.0845   -0.4363   -1.1199 C.ar    1  UNL1        0.1172
     17 C           3.3616   -0.0159    0.1494 C.ar    1  UNL1        0.0596
     18 N           4.5765    0.5115    0.4557 N.ar    1  UNL1       -0.2178
     19 C           5.5317    0.6311   -0.4824 C.ar    1  UNL1        0.2339
     20 O           6.7811    1.1661   -0.1972 O.3     1  UNL1       -0.4658
     21 C           7.0690    1.6016    1.1185 C.3     1  UNL1        0.1668
     22 C           8.4449    2.1206    1.1604 C.ar    1  UNL1        0.2333
     23 N           9.5465    1.4201    1.4271 N.ar    1  UNL1       -0.2189
     24 C          10.5982    2.2277    1.3739 C.ar    1  UNL1        0.0660
     25 C          10.1188    3.4783    1.0607 C.ar    1  UNL1        0.1123
     26 O           8.8218    3.3539    0.9446 O.2     1  UNL1       -0.4446
     27 C           5.2717    0.2132   -1.7678 C.ar    1  UNL1        0.0898
     28 N           4.0708   -0.3010   -2.0423 N.ar    1  UNL1       -0.2459
     29 C          -0.4997   -2.8586   -2.0338 C.ar    1  UNL1       -0.0518
     30 C          -1.6915   -3.4556   -2.4501 C.ar    1  UNL1       -0.0255
     31 C          -2.9016   -2.9920   -2.0098 C.ar    1  UNL1        0.1289
     32 F          -4.0880   -3.5298   -2.3789 F       1  UNL1       -0.2051
     33 N          -4.8523   -2.4124    0.0742 N.2     1  UNL1       -0.2521
     34 C          -5.7482   -2.3544    0.9555 C.2     1  UNL1        0.1485
     35 N          -6.3730   -3.4195    1.6271 N.pl3   1  UNL1       -0.3380
     36 S          -6.2918   -0.6893    1.4086 S.3     1  UNL1       -0.0746
     37 H          -4.5755    4.2378    2.3731 H       1  UNL1        0.0426
     38 H          -5.2769    4.5613    0.7542 H       1  UNL1        0.0426
     39 H          -3.5069    4.8168    1.0573 H       1  UNL1        0.0426
     40 H          -3.3148    2.5162    0.2996 H       1  UNL1        0.1484
     41 H          -2.7595    0.3889    1.9731 H       1  UNL1        0.0287
     42 H          -3.5557   -1.2842    2.0097 H       1  UNL1        0.0287
     43 H          -3.3398    0.6337   -0.4689 H       1  UNL1        0.0346
     44 H          -4.3537   -0.8926   -2.6979 H       1  UNL1        0.0256
     45 H          -5.5815   -0.0857   -1.7244 H       1  UNL1        0.0256
     46 H          -5.7234   -1.8786   -2.1235 H       1  UNL1        0.0256
     47 H          -1.6849   -0.4757   -0.0458 H       1  UNL1        0.0628
     48 H           0.8532   -0.9097    0.2842 H       1  UNL1        0.0653
     49 H           2.5879   -0.1144    0.9024 H       1  UNL1        0.0853
     50 H           6.9478    0.7106    1.7820 H       1  UNL1        0.0797
     51 H           6.3209    2.3442    1.4779 H       1  UNL1        0.0797
     52 H          11.6356    1.9221    1.5515 H       1  UNL1        0.0862
     53 H          10.7277    4.3599    0.9438 H       1  UNL1        0.1046
     54 H           6.0549    0.3129   -2.5293 H       1  UNL1        0.0884
     55 H           0.4322   -3.2646   -2.4067 H       1  UNL1        0.0624
     56 H          -1.6845   -4.2968   -3.1299 H       1  UNL1        0.0646
     57 H          -6.7913   -4.2556    1.1767 H       1  UNL1        0.1442
     58 H          -6.4229   -3.3696    2.6677 H       1  UNL1        0.1442
@<TRIPOS>BOND
     1     1     2    1
     2     2     3   am
     3     3     4    2
     4     5     3    1
     5     5     6    1
     6     6     7    1
     7     7     8    1
     8     8     9    1
     9     8    10    1
    10    10    11   ar
    11    11    12   ar
    12    12    13    1
    13    13    14    2
    14    14    15    1
    15    14    16    1
    16    16    17   ar
    17    17    18   ar
    18    18    19   ar
    19    19    20    1
    20    20    21    1
    21    21    22    1
    22    22    23   ar
    23    23    24   ar
    24    24    25   ar
    25    25    26   ar
    26    19    27   ar
    27    27    28   ar
    28    12    29   ar
    29    29    30   ar
    30    30    31   ar
    31    31    32    1
    32     8    33    1
    33    33    34    2
    34    34    35    1
    35    34    36    1
    36     7     5    1
    37    31    10   ar
    38    36     5    1
    39    28    16   ar
    40    26    22   ar
    41     1    37    1
    42     1    38    1
    43     1    39    1
    44     2    40    1
    45     6    41    1
    46     6    42    1
    47     7    43    1
    48     9    44    1
    49     9    45    1
    50     9    46    1
    51    11    47    1
    52    13    48    1
    53    17    49    1
    54    21    50    1
    55    21    51    1
    56    24    52    1
    57    25    53    1
    58    27    54    1
    59    29    55    1
    60    30    56    1
    61    35    57    1
    62    35    58    1
