
     RDKit          3D

 58 62  0  0  0  0  0  0  0  0999 V2000
   -4.3633    4.1691    1.2859 C   0  0  0  0  0  0  0  0  0  0  0  0
   -4.0990    2.7901    0.9029 N   0  0  0  0  0  0  0  0  0  0  0  0
   -4.9739    1.7840    1.3933 C   0  0  0  0  0  0  0  0  0  0  0  0
   -5.9445    2.1447    2.1443 O   0  0  0  0  0  0  0  0  0  0  0  0
   -4.8520    0.3531    1.1049 C   0  0  2  0  0  0  0  0  0  0  0  0
   -3.5417   -0.2765    1.5621 C   0  0  0  0  0  0  0  0  0  0  0  0
   -3.9339   -0.1157    0.0902 C   0  0  1  0  0  0  0  0  0  0  0  0
   -4.1940   -1.3694   -0.6296 C   0  0  1  0  0  0  0  0  0  0  0  0
   -5.0419   -1.0506   -1.8454 C   0  0  0  0  0  0  0  0  0  0  0  0
   -2.9037   -1.9122   -1.1385 C   0  0  0  0  0  0  0  0  0  0  0  0
   -1.7127   -1.3316   -0.7354 C   0  0  0  0  0  0  0  0  0  0  0  0
   -0.4973   -1.7875   -1.1700 C   0  0  0  0  0  0  0  0  0  0  0  0
    0.7733   -1.2064   -0.7607 C   0  0  0  0  0  0  0  0  0  0  0  0
    1.8117   -1.0174   -1.5451 C   0  0  0  0  0  0  0  0  0  0  0  0
    1.6530   -1.4096   -2.8520 F   0  0  0  0  0  0  0  0  0  0  0  0
    3.0845   -0.4363   -1.1199 C   0  0  0  0  0  0  0  0  0  0  0  0
    3.3616   -0.0159    0.1494 C   0  0  0  0  0  0  0  0  0  0  0  0
    4.5765    0.5115    0.4557 N   0  0  0  0  0  0  0  0  0  0  0  0
    5.5317    0.6311   -0.4824 C   0  0  0  0  0  0  0  0  0  0  0  0
    6.7811    1.1661   -0.1972 O   0  0  0  0  0  0  0  0  0  0  0  0
    7.0690    1.6016    1.1185 C   0  0  0  0  0  0  0  0  0  0  0  0
    8.4449    2.1206    1.1604 C   0  0  0  0  0  0  0  0  0  0  0  0
    9.5465    1.4201    1.4271 N   0  0  0  0  0  0  0  0  0  0  0  0
   10.5982    2.2277    1.3739 C   0  0  0  0  0  0  0  0  0  0  0  0
   10.1188    3.4783    1.0607 C   0  0  0  0  0  0  0  0  0  0  0  0
    8.8218    3.3539    0.9446 O   0  0  0  0  0  0  0  0  0  0  0  0
    5.2717    0.2132   -1.7678 C   0  0  0  0  0  0  0  0  0  0  0  0
    4.0708   -0.3010   -2.0423 N   0  0  0  0  0  0  0  0  0  0  0  0
   -0.4997   -2.8586   -2.0338 C   0  0  0  0  0  0  0  0  0  0  0  0
   -1.6915   -3.4556   -2.4501 C   0  0  0  0  0  0  0  0  0  0  0  0
   -2.9016   -2.9920   -2.0098 C   0  0  0  0  0  0  0  0  0  0  0  0
   -4.0880   -3.5298   -2.3789 F   0  0  0  0  0  0  0  0  0  0  0  0
   -4.8523   -2.4124    0.0742 N   0  0  0  0  0  0  0  0  0  0  0  0
   -5.7482   -2.3544    0.9555 C   0  0  0  0  0  0  0  0  0  0  0  0
   -6.3730   -3.4195    1.6271 N   0  0  0  0  0  0  0  0  0  0  0  0
   -6.2918   -0.6893    1.4086 S   0  0  0  0  0  0  0  0  0  0  0  0
   -4.5755    4.2378    2.3731 H   0  0  0  0  0  0  0  0  0  0  0  0
   -5.2769    4.5613    0.7542 H   0  0  0  0  0  0  0  0  0  0  0  0
   -3.5069    4.8168    1.0573 H   0  0  0  0  0  0  0  0  0  0  0  0
   -3.3148    2.5162    0.2996 H   0  0  0  0  0  0  0  0  0  0  0  0
   -2.7595    0.3889    1.9731 H   0  0  0  0  0  0  0  0  0  0  0  0
   -3.5557   -1.2842    2.0097 H   0  0  0  0  0  0  0  0  0  0  0  0
   -3.3398    0.6337   -0.4689 H   0  0  0  0  0  0  0  0  0  0  0  0
   -4.3537   -0.8926   -2.6979 H   0  0  0  0  0  0  0  0  0  0  0  0
   -5.5815   -0.0857   -1.7244 H   0  0  0  0  0  0  0  0  0  0  0  0
   -5.7234   -1.8786   -2.1235 H   0  0  0  0  0  0  0  0  0  0  0  0
   -1.6849   -0.4757   -0.0458 H   0  0  0  0  0  0  0  0  0  0  0  0
    0.8532   -0.9097    0.2842 H   0  0  0  0  0  0  0  0  0  0  0  0
    2.5879   -0.1144    0.9024 H   0  0  0  0  0  0  0  0  0  0  0  0
    6.9478    0.7106    1.7820 H   0  0  0  0  0  0  0  0  0  0  0  0
    6.3209    2.3442    1.4779 H   0  0  0  0  0  0  0  0  0  0  0  0
   11.6356    1.9221    1.5515 H   0  0  0  0  0  0  0  0  0  0  0  0
   10.7277    4.3599    0.9438 H   0  0  0  0  0  0  0  0  0  0  0  0
    6.0549    0.3129   -2.5293 H   0  0  0  0  0  0  0  0  0  0  0  0
    0.4322   -3.2646   -2.4067 H   0  0  0  0  0  0  0  0  0  0  0  0
   -1.6845   -4.2968   -3.1299 H   0  0  0  0  0  0  0  0  0  0  0  0
   -6.7913   -4.2556    1.1767 H   0  0  0  0  0  0  0  0  0  0  0  0
   -6.4229   -3.3696    2.6677 H   0  0  0  0  0  0  0  0  0  0  0  0
  1  2  1  0
  2  3  1  0
  3  4  2  0
  5  3  1  6
  5  6  1  0
  6  7  1  0
  7  8  1  0
  8  9  1  6
  8 10  1  0
 10 11  2  0
 11 12  1  0
 12 13  1  0
 13 14  2  0
 14 15  1  0
 14 16  1  0
 16 17  2  0
 17 18  1  0
 18 19  2  0
 19 20  1  0
 20 21  1  0
 21 22  1  0
 22 23  2  0
 23 24  1  0
 24 25  2  0
 25 26  1  0
 19 27  1  0
 27 28  2  0
 12 29  2  0
 29 30  1  0
 30 31  2  0
 31 32  1  0
  8 33  1  0
 33 34  2  0
 34 35  1  0
 34 36  1  0
  7  5  1  0
 31 10  1  0
 36  5  1  0
 28 16  1  0
 26 22  1  0
  1 37  1  0
  1 38  1  0
  1 39  1  0
  2 40  1  0
  6 41  1  0
  6 42  1  0
  7 43  1  6
  9 44  1  0
  9 45  1  0
  9 46  1  0
 11 47  1  0
 13 48  1  0
 17 49  1  0
 21 50  1  0
 21 51  1  0
 24 52  1  0
 25 53  1  0
 27 54  1  0
 29 55  1  0
 30 56  1  0
 35 57  1  0
 35 58  1  0
M  END
$$$$
