@<TRIPOS>MOLECULE
*****
 37 38 0 0 0
SMALL
GASTEIGER

@<TRIPOS>ATOM
      1 C           1.5004    1.2686   -0.9228 C.3     1  UNL1        0.0378
      2 N           1.7943    1.4696   -2.3348 N.3     1  UNL1       -0.3249
      3 C           0.0684    1.7060   -0.6918 C.3     1  UNL1        0.0105
      4 C          -0.6673    0.4178   -1.0073 C.3     1  UNL1        0.1413
      5 O           0.1282   -0.5154   -0.3360 O.3     1  UNL1       -0.3494
      6 C           1.4413   -0.1990   -0.6528 C.3     1  UNL1        0.1001
      7 C           2.4395   -0.5589    0.4019 C.3     1  UNL1        0.0868
      8 O           3.6920   -0.1821   -0.0621 O.3     1  UNL1       -0.2841
      9 P           4.9160   -0.5301    1.0304 P.3     1  UNL1        0.4724
     10 O           6.2124    0.5037    0.6623 O.3     1  UNL1       -0.3026
     11 O           5.5000   -2.1079    0.8042 O.3     1  UNL1       -0.3026
     12 O           4.5121   -0.3044    2.4633 O.2     1  UNL1       -0.2275
     13 N          -2.0104    0.4012   -0.4848 N.ar    1  UNL1       -0.2722
     14 C          -2.4611   -0.7301    0.0972 C.ar    1  UNL1        0.0198
     15 C          -3.7284   -0.8770    0.6376 C.ar    1  UNL1        0.0273
     16 C          -4.1312   -2.1686    1.2590 C.3     1  UNL1       -0.0333
     17 C          -4.5880    0.2170    0.5728 C.ar    1  UNL1        0.2212
     18 O          -5.8642    0.1151    1.1004 O.3     1  UNL1       -0.4921
     19 N          -4.0943    1.3176   -0.0145 N.ar    1  UNL1       -0.1575
     20 C          -2.8684    1.4368   -0.5290 C.ar    1  UNL1        0.3535
     21 O          -2.4734    2.5046   -1.0666 O.2     1  UNL1       -0.2443
     22 H           2.2108    1.8139   -0.2724 H       1  UNL1        0.0486
     23 H           0.9267    1.5769   -2.9167 H       1  UNL1        0.1186
     24 H           2.3254    0.6505   -2.7315 H       1  UNL1        0.1186
     25 H          -0.0687    2.0134    0.3594 H       1  UNL1        0.0325
     26 H          -0.1617    2.5113   -1.4189 H       1  UNL1        0.0325
     27 H          -0.6195    0.2754   -2.1148 H       1  UNL1        0.0840
     28 H           1.6908   -0.7890   -1.5577 H       1  UNL1        0.0635
     29 H           2.2791    0.0056    1.3421 H       1  UNL1        0.0592
     30 H           2.4472   -1.6504    0.6291 H       1  UNL1        0.0592
     31 H           5.9299    1.4181    0.4906 H       1  UNL1        0.2220
     32 H           4.8313   -2.6150    0.2925 H       1  UNL1        0.2220
     33 H          -1.8150   -1.5944    0.1610 H       1  UNL1        0.0816
     34 H          -3.3376   -2.5838    1.8906 H       1  UNL1        0.0280
     35 H          -5.1037   -2.0767    1.7376 H       1  UNL1        0.0280
     36 H          -4.2762   -2.8784    0.3945 H       1  UNL1        0.0280
     37 H          -6.5770    0.7381    0.7479 H       1  UNL1        0.2937
@<TRIPOS>BOND
     1     1     2    1
     2     1     3    1
     3     3     4    1
     4     4     5    1
     5     5     6    1
     6     6     7    1
     7     7     8    1
     8     8     9    1
     9     9    10    1
    10     9    11    1
    11     9    12    2
    12     4    13    1
    13    13    14   ar
    14    14    15   ar
    15    15    16    1
    16    15    17   ar
    17    17    18    1
    18    17    19   ar
    19    19    20   ar
    20    20    21    2
    21     6     1    1
    22    20    13   ar
    23     1    22    1
    24     2    23    1
    25     2    24    1
    26     3    25    1
    27     3    26    1
    28     4    27    1
    29     6    28    1
    30     7    29    1
    31     7    30    1
    32    10    31    1
    33    11    32    1
    34    14    33    1
    35    16    34    1
    36    16    35    1
    37    16    36    1
    38    18    37    1
