@<TRIPOS>MOLECULE
*****
 60 65 0 0 0
SMALL
GASTEIGER

@<TRIPOS>ATOM
      1 O          -4.7173   -4.0231    2.4810 O.3     1  UNL1       -0.3947
      2 C          -4.8509   -3.5535    1.1904 C.3     1  UNL1        0.0471
      3 C          -4.4075   -2.1144    1.0474 C.3     1  UNL1       -0.0150
      4 C          -2.9529   -1.9536    1.4291 C.3     1  UNL1       -0.0322
      5 C          -2.6051   -0.4924    1.2953 C.3     1  UNL1        0.0140
      6 N          -2.8050   -0.1098   -0.0836 N.pl3   1  UNL1       -0.3109
      7 C          -2.3131    1.1406   -0.5440 C.ar    1  UNL1        0.1845
      8 N          -3.2254    2.1621   -0.7095 N.ar    1  UNL1       -0.2254
      9 C          -2.8694    3.3975   -1.0797 C.ar    1  UNL1        0.0916
     10 C          -3.8054    4.3992   -1.2365 C.ar    1  UNL1       -0.0342
     11 C          -3.4122    5.6459   -1.6134 C.ar    1  UNL1       -0.0596
     12 C          -2.0821    5.9519   -1.8499 C.ar    1  UNL1       -0.0596
     13 C          -1.1286    4.9750   -1.7018 C.ar    1  UNL1       -0.0341
     14 C          -1.5447    3.6924   -1.3127 C.ar    1  UNL1        0.0931
     15 N          -0.6523    2.7271   -1.1612 N.ar    1  UNL1       -0.2084
     16 C          -1.0079    1.4237   -0.7742 C.ar    1  UNL1        0.2571
     17 O          -0.0015    0.5441   -0.6626 O.3     1  UNL1       -0.4676
     18 C           0.1804   -0.7625   -0.4308 C.3     1  UNL1        0.1330
     19 C           1.0153   -1.1264    0.8124 C.3     1  UNL1        0.0522
     20 N           2.1781   -1.1051   -0.0414 N.pl3   1  UNL1       -0.3080
     21 C           3.5584   -0.8558    0.1802 C.ar    1  UNL1        0.1221
     22 C           4.0357   -0.5571    1.4338 C.ar    1  UNL1       -0.0211
     23 C           5.3927   -0.3100    1.6602 C.ar    1  UNL1       -0.0493
     24 C           6.2701   -0.3673    0.6043 C.ar    1  UNL1        0.0005
     25 C           7.6174   -0.1312    0.7776 C.ar    1  UNL1       -0.0526
     26 C           8.4848   -0.1953   -0.3086 C.ar    1  UNL1       -0.0611
     27 C           8.0100   -0.4940   -1.5635 C.ar    1  UNL1       -0.0597
     28 C           6.6643   -0.7257   -1.7142 C.ar    1  UNL1       -0.0357
     29 C           5.7694   -0.6706   -0.6547 C.ar    1  UNL1        0.0731
     30 N           4.4566   -0.9023   -0.8336 N.ar    1  UNL1       -0.2320
     31 C           1.3411   -1.4374   -1.1755 C.3     1  UNL1        0.0522
     32 C          -3.5213   -0.9390   -0.9805 C.3     1  UNL1        0.0140
     33 C          -4.6641   -1.6940   -0.3732 C.3     1  UNL1       -0.0322
     34 H          -4.6282   -5.0098    2.4746 H       1  UNL1        0.2094
     35 H          -5.8451   -3.7043    0.7489 H       1  UNL1        0.0560
     36 H          -4.1475   -4.1696    0.5572 H       1  UNL1        0.0560
     37 H          -4.9945   -1.4841    1.7444 H       1  UNL1        0.0324
     38 H          -2.8769   -2.2649    2.4949 H       1  UNL1        0.0284
     39 H          -2.3355   -2.5506    0.7680 H       1  UNL1        0.0284
     40 H          -1.6138   -0.2561    1.7037 H       1  UNL1        0.0464
     41 H          -3.3381    0.1346    1.8850 H       1  UNL1        0.0464
     42 H          -4.8514    4.1291   -1.0427 H       1  UNL1        0.0639
     43 H          -4.1526    6.4480   -1.7400 H       1  UNL1        0.0618
     44 H          -1.7650    6.9557   -2.1534 H       1  UNL1        0.0618
     45 H          -0.0638    5.1603   -1.8753 H       1  UNL1        0.0639
     46 H          -0.7242   -1.3966   -0.5133 H       1  UNL1        0.0765
     47 H           1.0602   -0.3366    1.5680 H       1  UNL1        0.0501
     48 H           0.7521   -2.1218    1.2221 H       1  UNL1        0.0501
     49 H           3.3260   -0.5187    2.2444 H       1  UNL1        0.0652
     50 H           5.7581   -0.0776    2.6405 H       1  UNL1        0.0625
     51 H           7.9596    0.1000    1.7699 H       1  UNL1        0.0624
     52 H           9.5217   -0.0107   -0.1588 H       1  UNL1        0.0618
     53 H           8.6995   -0.5432   -2.4172 H       1  UNL1        0.0618
     54 H           6.2738   -0.9637   -2.7037 H       1  UNL1        0.0639
     55 H           1.1936   -2.5348   -1.2001 H       1  UNL1        0.0501
     56 H           1.6013   -0.9708   -2.1274 H       1  UNL1        0.0501
     57 H          -3.9096   -0.3006   -1.8289 H       1  UNL1        0.0464
     58 H          -2.8372   -1.6512   -1.4685 H       1  UNL1        0.0464
     59 H          -4.9198   -2.5710   -0.9984 H       1  UNL1        0.0284
     60 H          -5.5503   -1.0297   -0.3727 H       1  UNL1        0.0284
@<TRIPOS>BOND
     1     1     2    1
     2     2     3    1
     3     3     4    1
     4     4     5    1
     5     5     6    1
     6     6     7    1
     7     7     8   ar
     8     8     9   ar
     9     9    10   ar
    10    10    11   ar
    11    11    12   ar
    12    12    13   ar
    13    13    14   ar
    14    14    15   ar
    15    15    16   ar
    16    16    17    1
    17    17    18    1
    18    18    19    1
    19    19    20    1
    20    20    21    1
    21    21    22   ar
    22    22    23   ar
    23    23    24   ar
    24    24    25   ar
    25    25    26   ar
    26    26    27   ar
    27    27    28   ar
    28    28    29   ar
    29    29    30   ar
    30    20    31    1
    31     6    32    1
    32    32    33    1
    33    33     3    1
    34    16     7   ar
    35    31    18    1
    36    14     9   ar
    37    30    21   ar
    38    29    24   ar
    39     1    34    1
    40     2    35    1
    41     2    36    1
    42     3    37    1
    43     4    38    1
    44     4    39    1
    45     5    40    1
    46     5    41    1
    47    10    42    1
    48    11    43    1
    49    12    44    1
    50    13    45    1
    51    18    46    1
    52    19    47    1
    53    19    48    1
    54    22    49    1
    55    23    50    1
    56    25    51    1
    57    26    52    1
    58    27    53    1
    59    28    54    1
    60    31    55    1
    61    31    56    1
    62    32    57    1
    63    32    58    1
    64    33    59    1
    65    33    60    1
