
     RDKit          3D

 60 65  0  0  0  0  0  0  0  0999 V2000
   -4.7173   -4.0231    2.4810 O   0  0  0  0  0  0  0  0  0  0  0  0
   -4.8509   -3.5535    1.1904 C   0  0  0  0  0  0  0  0  0  0  0  0
   -4.4075   -2.1144    1.0474 C   0  0  0  0  0  0  0  0  0  0  0  0
   -2.9529   -1.9536    1.4291 C   0  0  0  0  0  0  0  0  0  0  0  0
   -2.6051   -0.4924    1.2953 C   0  0  0  0  0  0  0  0  0  0  0  0
   -2.8050   -0.1098   -0.0836 N   0  0  0  0  0  0  0  0  0  0  0  0
   -2.3131    1.1406   -0.5440 C   0  0  0  0  0  0  0  0  0  0  0  0
   -3.2254    2.1621   -0.7095 N   0  0  0  0  0  0  0  0  0  0  0  0
   -2.8694    3.3975   -1.0797 C   0  0  0  0  0  0  0  0  0  0  0  0
   -3.8054    4.3992   -1.2365 C   0  0  0  0  0  0  0  0  0  0  0  0
   -3.4122    5.6459   -1.6134 C   0  0  0  0  0  0  0  0  0  0  0  0
   -2.0821    5.9519   -1.8499 C   0  0  0  0  0  0  0  0  0  0  0  0
   -1.1286    4.9750   -1.7018 C   0  0  0  0  0  0  0  0  0  0  0  0
   -1.5447    3.6924   -1.3127 C   0  0  0  0  0  0  0  0  0  0  0  0
   -0.6523    2.7271   -1.1612 N   0  0  0  0  0  0  0  0  0  0  0  0
   -1.0079    1.4237   -0.7742 C   0  0  0  0  0  0  0  0  0  0  0  0
   -0.0015    0.5441   -0.6626 O   0  0  0  0  0  0  0  0  0  0  0  0
    0.1804   -0.7625   -0.4308 C   0  0  0  0  0  0  0  0  0  0  0  0
    1.0153   -1.1264    0.8124 C   0  0  0  0  0  0  0  0  0  0  0  0
    2.1781   -1.1051   -0.0414 N   0  0  0  0  0  0  0  0  0  0  0  0
    3.5584   -0.8558    0.1802 C   0  0  0  0  0  0  0  0  0  0  0  0
    4.0357   -0.5571    1.4338 C   0  0  0  0  0  0  0  0  0  0  0  0
    5.3927   -0.3100    1.6602 C   0  0  0  0  0  0  0  0  0  0  0  0
    6.2701   -0.3673    0.6043 C   0  0  0  0  0  0  0  0  0  0  0  0
    7.6174   -0.1312    0.7776 C   0  0  0  0  0  0  0  0  0  0  0  0
    8.4848   -0.1953   -0.3086 C   0  0  0  0  0  0  0  0  0  0  0  0
    8.0100   -0.4940   -1.5635 C   0  0  0  0  0  0  0  0  0  0  0  0
    6.6643   -0.7257   -1.7142 C   0  0  0  0  0  0  0  0  0  0  0  0
    5.7694   -0.6706   -0.6547 C   0  0  0  0  0  0  0  0  0  0  0  0
    4.4566   -0.9023   -0.8336 N   0  0  0  0  0  0  0  0  0  0  0  0
    1.3411   -1.4374   -1.1755 C   0  0  0  0  0  0  0  0  0  0  0  0
   -3.5213   -0.9390   -0.9805 C   0  0  0  0  0  0  0  0  0  0  0  0
   -4.6641   -1.6940   -0.3732 C   0  0  0  0  0  0  0  0  0  0  0  0
   -4.6282   -5.0098    2.4746 H   0  0  0  0  0  0  0  0  0  0  0  0
   -5.8451   -3.7043    0.7489 H   0  0  0  0  0  0  0  0  0  0  0  0
   -4.1475   -4.1696    0.5572 H   0  0  0  0  0  0  0  0  0  0  0  0
   -4.9945   -1.4841    1.7444 H   0  0  0  0  0  0  0  0  0  0  0  0
   -2.8769   -2.2649    2.4949 H   0  0  0  0  0  0  0  0  0  0  0  0
   -2.3355   -2.5506    0.7680 H   0  0  0  0  0  0  0  0  0  0  0  0
   -1.6138   -0.2561    1.7037 H   0  0  0  0  0  0  0  0  0  0  0  0
   -3.3381    0.1346    1.8850 H   0  0  0  0  0  0  0  0  0  0  0  0
   -4.8514    4.1291   -1.0427 H   0  0  0  0  0  0  0  0  0  0  0  0
   -4.1526    6.4480   -1.7400 H   0  0  0  0  0  0  0  0  0  0  0  0
   -1.7650    6.9557   -2.1534 H   0  0  0  0  0  0  0  0  0  0  0  0
   -0.0638    5.1603   -1.8753 H   0  0  0  0  0  0  0  0  0  0  0  0
   -0.7242   -1.3966   -0.5133 H   0  0  0  0  0  0  0  0  0  0  0  0
    1.0602   -0.3366    1.5680 H   0  0  0  0  0  0  0  0  0  0  0  0
    0.7521   -2.1218    1.2221 H   0  0  0  0  0  0  0  0  0  0  0  0
    3.3260   -0.5187    2.2444 H   0  0  0  0  0  0  0  0  0  0  0  0
    5.7581   -0.0776    2.6405 H   0  0  0  0  0  0  0  0  0  0  0  0
    7.9596    0.1000    1.7699 H   0  0  0  0  0  0  0  0  0  0  0  0
    9.5217   -0.0107   -0.1588 H   0  0  0  0  0  0  0  0  0  0  0  0
    8.6995   -0.5432   -2.4172 H   0  0  0  0  0  0  0  0  0  0  0  0
    6.2738   -0.9637   -2.7037 H   0  0  0  0  0  0  0  0  0  0  0  0
    1.1936   -2.5348   -1.2001 H   0  0  0  0  0  0  0  0  0  0  0  0
    1.6013   -0.9708   -2.1274 H   0  0  0  0  0  0  0  0  0  0  0  0
   -3.9096   -0.3006   -1.8289 H   0  0  0  0  0  0  0  0  0  0  0  0
   -2.8372   -1.6512   -1.4685 H   0  0  0  0  0  0  0  0  0  0  0  0
   -4.9198   -2.5710   -0.9984 H   0  0  0  0  0  0  0  0  0  0  0  0
   -5.5503   -1.0297   -0.3727 H   0  0  0  0  0  0  0  0  0  0  0  0
  1  2  1  0
  2  3  1  0
  3  4  1  0
  4  5  1  0
  5  6  1  0
  6  7  1  0
  7  8  2  0
  8  9  1  0
  9 10  2  0
 10 11  1  0
 11 12  2  0
 12 13  1  0
 13 14  2  0
 14 15  1  0
 15 16  2  0
 16 17  1  0
 17 18  1  0
 18 19  1  0
 19 20  1  0
 20 21  1  0
 21 22  2  0
 22 23  1  0
 23 24  2  0
 24 25  1  0
 25 26  2  0
 26 27  1  0
 27 28  2  0
 28 29  1  0
 29 30  2  0
 20 31  1  0
  6 32  1  0
 32 33  1  0
 33  3  1  0
 16  7  1  0
 31 18  1  0
 14  9  1  0
 30 21  1  0
 29 24  1  0
  1 34  1  0
  2 35  1  0
  2 36  1  0
  3 37  1  0
  4 38  1  0
  4 39  1  0
  5 40  1  0
  5 41  1  0
 10 42  1  0
 11 43  1  0
 12 44  1  0
 13 45  1  0
 18 46  1  0
 19 47  1  0
 19 48  1  0
 22 49  1  0
 23 50  1  0
 25 51  1  0
 26 52  1  0
 27 53  1  0
 28 54  1  0
 31 55  1  0
 31 56  1  0
 32 57  1  0
 32 58  1  0
 33 59  1  0
 33 60  1  0
M  END
$$$$
