@<TRIPOS>MOLECULE
*****
 58 61 0 0 0
SMALL
GASTEIGER

@<TRIPOS>ATOM
      1 C           5.2646   -0.7992   -1.4354 C.3     1  UNL1       -0.0442
      2 C           5.5748   -0.1959   -0.0817 C.3     1  UNL1        0.0276
      3 C           6.4094    1.0654   -0.3458 C.3     1  UNL1       -0.0442
      4 C           6.4283   -1.1370    0.7078 C.3     1  UNL1       -0.0442
      5 N           4.3879    0.2231    0.6123 N.am    1  UNL1       -0.2947
      6 C           3.3625   -0.7193    0.9343 C.2     1  UNL1        0.3003
      7 O           3.5510   -1.8933    0.5903 O.2     1  UNL1       -0.2528
      8 N           2.1799   -0.3420    1.6138 N.am    1  UNL1       -0.2938
      9 C           1.1168   -1.2370    1.9584 C.3     1  UNL1        0.0570
     10 C           0.5136   -1.8853    0.7618 C.ar    1  UNL1        0.0802
     11 C           0.8671   -3.1009    0.2276 C.ar    1  UNL1        0.0529
     12 N           0.0613   -3.2647   -0.8551 N.ar    1  UNL1       -0.2343
     13 C          -0.7367   -2.1884   -0.9561 C.ar    1  UNL1        0.1544
     14 C          -1.7162   -1.8616   -1.8648 C.ar    1  UNL1       -0.0153
     15 C          -2.3782   -0.6647   -1.7147 C.ar    1  UNL1       -0.0290
     16 C          -2.0948    0.2349   -0.6729 C.ar    1  UNL1        0.1103
     17 C          -2.8344    1.4841   -0.5596 C.ar    1  UNL1        0.0968
     18 C          -4.2163    1.4880   -0.2977 C.ar    1  UNL1        0.0982
     19 C          -5.0409    0.3051   -0.0836 C.ar    1  UNL1        0.0027
     20 C          -6.0808    0.0183   -0.9563 C.ar    1  UNL1       -0.0498
     21 C          -6.8840   -1.0920   -0.7955 C.ar    1  UNL1       -0.0258
     22 C          -6.6849   -1.9687    0.2473 C.ar    1  UNL1        0.1234
     23 F          -7.4682   -3.0690    0.4199 F       1  UNL1       -0.2055
     24 C          -5.6497   -1.6887    1.1218 C.ar    1  UNL1       -0.0258
     25 C          -4.8476   -0.5772    0.9582 C.ar    1  UNL1       -0.0498
     26 N          -4.5677    2.7840   -0.2969 N.ar    1  UNL1       -0.2351
     27 C          -3.5305    3.5632   -0.5329 C.ar    1  UNL1        0.0973
     28 N          -2.4555    2.7613   -0.6954 N.ar    1  UNL1       -0.3229
     29 C          -1.0906    3.2045   -0.9499 C.3     1  UNL1        0.0852
     30 C          -0.4372    3.5633    0.3479 C.3     1  UNL1        0.2569
     31 F          -1.1452    4.5982    0.9775 F       1  UNL1       -0.2073
     32 F          -0.3376    2.5070    1.2088 F       1  UNL1       -0.2073
     33 N          -1.1313   -0.1748    0.1517 N.ar    1  UNL1       -0.1632
     34 N          -0.4771   -1.3181    0.0338 N.ar    1  UNL1       -0.2151
     35 H           5.1650   -1.9028   -1.3853 H       1  UNL1        0.0250
     36 H           4.3593   -0.3050   -1.8619 H       1  UNL1        0.0250
     37 H           6.1305   -0.5849   -2.0950 H       1  UNL1        0.0250
     38 H           6.4543    1.6156    0.6100 H       1  UNL1        0.0250
     39 H           5.8103    1.6912   -1.0399 H       1  UNL1        0.0250
     40 H           7.4013    0.8389   -0.7388 H       1  UNL1        0.0250
     41 H           5.9760   -2.1394    0.8311 H       1  UNL1        0.0250
     42 H           6.6502   -0.7420    1.7104 H       1  UNL1        0.0250
     43 H           7.4134   -1.2163    0.1746 H       1  UNL1        0.0250
     44 H           4.2343    1.2077    0.8999 H       1  UNL1        0.1507
     45 H           2.0563    0.6722    1.8942 H       1  UNL1        0.1506
     46 H           0.3441   -0.7526    2.5507 H       1  UNL1        0.0528
     47 H           1.5975   -2.0577    2.5679 H       1  UNL1        0.0528
     48 H           1.6218   -3.8131    0.5696 H       1  UNL1        0.0849
     49 H          -1.9366   -2.5550   -2.6704 H       1  UNL1        0.0655
     50 H          -3.1452   -0.4040   -2.4224 H       1  UNL1        0.0641
     51 H          -6.2542    0.7057   -1.7931 H       1  UNL1        0.0625
     52 H          -7.6867   -1.2988   -1.4835 H       1  UNL1        0.0646
     53 H          -5.4949   -2.3809    1.9415 H       1  UNL1        0.0646
     54 H          -4.0387   -0.3644    1.6470 H       1  UNL1        0.0625
     55 H          -3.5291    4.6224   -0.5870 H       1  UNL1        0.1029
     56 H          -1.0946    4.1276   -1.5814 H       1  UNL1        0.0548
     57 H          -0.5380    2.4438   -1.5118 H       1  UNL1        0.0548
     58 H           0.5919    3.9691    0.1469 H       1  UNL1        0.1037
@<TRIPOS>BOND
     1     1     2    1
     2     2     3    1
     3     2     4    1
     4     2     5    1
     5     5     6   am
     6     6     7    2
     7     6     8   am
     8     8     9    1
     9     9    10    1
    10    10    11   ar
    11    11    12   ar
    12    12    13   ar
    13    13    14   ar
    14    14    15   ar
    15    15    16   ar
    16    16    17    1
    17    17    18   ar
    18    18    19    1
    19    19    20   ar
    20    20    21   ar
    21    21    22   ar
    22    22    23    1
    23    22    24   ar
    24    24    25   ar
    25    18    26   ar
    26    26    27   ar
    27    27    28   ar
    28    28    29    1
    29    29    30    1
    30    30    31    1
    31    30    32    1
    32    16    33   ar
    33    33    34   ar
    34    34    10   ar
    35    34    13   ar
    36    28    17   ar
    37    25    19   ar
    38     1    35    1
    39     1    36    1
    40     1    37    1
    41     3    38    1
    42     3    39    1
    43     3    40    1
    44     4    41    1
    45     4    42    1
    46     4    43    1
    47     5    44    1
    48     8    45    1
    49     9    46    1
    50     9    47    1
    51    11    48    1
    52    14    49    1
    53    15    50    1
    54    20    51    1
    55    21    52    1
    56    24    53    1
    57    25    54    1
    58    27    55    1
    59    29    56    1
    60    29    57    1
    61    30    58    1
