
     RDKit          3D

 58 61  0  0  0  0  0  0  0  0999 V2000
    5.2646   -0.7992   -1.4354 C   0  0  0  0  0  0  0  0  0  0  0  0
    5.5748   -0.1959   -0.0817 C   0  0  0  0  0  0  0  0  0  0  0  0
    6.4094    1.0654   -0.3458 C   0  0  0  0  0  0  0  0  0  0  0  0
    6.4283   -1.1370    0.7078 C   0  0  0  0  0  0  0  0  0  0  0  0
    4.3879    0.2231    0.6123 N   0  0  0  0  0  0  0  0  0  0  0  0
    3.3625   -0.7193    0.9343 C   0  0  0  0  0  0  0  0  0  0  0  0
    3.5510   -1.8933    0.5903 O   0  0  0  0  0  0  0  0  0  0  0  0
    2.1799   -0.3420    1.6138 N   0  0  0  0  0  0  0  0  0  0  0  0
    1.1168   -1.2370    1.9584 C   0  0  0  0  0  0  0  0  0  0  0  0
    0.5136   -1.8853    0.7618 C   0  0  0  0  0  0  0  0  0  0  0  0
    0.8671   -3.1009    0.2276 C   0  0  0  0  0  0  0  0  0  0  0  0
    0.0613   -3.2647   -0.8551 N   0  0  0  0  0  0  0  0  0  0  0  0
   -0.7367   -2.1884   -0.9561 C   0  0  0  0  0  0  0  0  0  0  0  0
   -1.7162   -1.8616   -1.8648 C   0  0  0  0  0  0  0  0  0  0  0  0
   -2.3782   -0.6647   -1.7147 C   0  0  0  0  0  0  0  0  0  0  0  0
   -2.0948    0.2349   -0.6729 C   0  0  0  0  0  0  0  0  0  0  0  0
   -2.8344    1.4841   -0.5596 C   0  0  0  0  0  0  0  0  0  0  0  0
   -4.2163    1.4880   -0.2977 C   0  0  0  0  0  0  0  0  0  0  0  0
   -5.0409    0.3051   -0.0836 C   0  0  0  0  0  0  0  0  0  0  0  0
   -6.0808    0.0183   -0.9563 C   0  0  0  0  0  0  0  0  0  0  0  0
   -6.8840   -1.0920   -0.7955 C   0  0  0  0  0  0  0  0  0  0  0  0
   -6.6849   -1.9687    0.2473 C   0  0  0  0  0  0  0  0  0  0  0  0
   -7.4682   -3.0690    0.4199 F   0  0  0  0  0  0  0  0  0  0  0  0
   -5.6497   -1.6887    1.1218 C   0  0  0  0  0  0  0  0  0  0  0  0
   -4.8476   -0.5772    0.9582 C   0  0  0  0  0  0  0  0  0  0  0  0
   -4.5677    2.7840   -0.2969 N   0  0  0  0  0  0  0  0  0  0  0  0
   -3.5305    3.5632   -0.5329 C   0  0  0  0  0  0  0  0  0  0  0  0
   -2.4555    2.7613   -0.6954 N   0  0  0  0  0  0  0  0  0  0  0  0
   -1.0906    3.2045   -0.9499 C   0  0  0  0  0  0  0  0  0  0  0  0
   -0.4372    3.5633    0.3479 C   0  0  0  0  0  0  0  0  0  0  0  0
   -1.1452    4.5982    0.9775 F   0  0  0  0  0  0  0  0  0  0  0  0
   -0.3376    2.5070    1.2088 F   0  0  0  0  0  0  0  0  0  0  0  0
   -1.1313   -0.1748    0.1517 N   0  0  0  0  0  0  0  0  0  0  0  0
   -0.4771   -1.3181    0.0338 N   0  0  0  0  0  0  0  0  0  0  0  0
    5.1650   -1.9028   -1.3853 H   0  0  0  0  0  0  0  0  0  0  0  0
    4.3593   -0.3050   -1.8619 H   0  0  0  0  0  0  0  0  0  0  0  0
    6.1305   -0.5849   -2.0950 H   0  0  0  0  0  0  0  0  0  0  0  0
    6.4543    1.6156    0.6100 H   0  0  0  0  0  0  0  0  0  0  0  0
    5.8103    1.6912   -1.0399 H   0  0  0  0  0  0  0  0  0  0  0  0
    7.4013    0.8389   -0.7388 H   0  0  0  0  0  0  0  0  0  0  0  0
    5.9760   -2.1394    0.8311 H   0  0  0  0  0  0  0  0  0  0  0  0
    6.6502   -0.7420    1.7104 H   0  0  0  0  0  0  0  0  0  0  0  0
    7.4134   -1.2163    0.1746 H   0  0  0  0  0  0  0  0  0  0  0  0
    4.2343    1.2077    0.8999 H   0  0  0  0  0  0  0  0  0  0  0  0
    2.0563    0.6722    1.8942 H   0  0  0  0  0  0  0  0  0  0  0  0
    0.3441   -0.7526    2.5507 H   0  0  0  0  0  0  0  0  0  0  0  0
    1.5975   -2.0577    2.5679 H   0  0  0  0  0  0  0  0  0  0  0  0
    1.6218   -3.8131    0.5696 H   0  0  0  0  0  0  0  0  0  0  0  0
   -1.9366   -2.5550   -2.6704 H   0  0  0  0  0  0  0  0  0  0  0  0
   -3.1452   -0.4040   -2.4224 H   0  0  0  0  0  0  0  0  0  0  0  0
   -6.2542    0.7057   -1.7931 H   0  0  0  0  0  0  0  0  0  0  0  0
   -7.6867   -1.2988   -1.4835 H   0  0  0  0  0  0  0  0  0  0  0  0
   -5.4949   -2.3809    1.9415 H   0  0  0  0  0  0  0  0  0  0  0  0
   -4.0387   -0.3644    1.6470 H   0  0  0  0  0  0  0  0  0  0  0  0
   -3.5291    4.6224   -0.5870 H   0  0  0  0  0  0  0  0  0  0  0  0
   -1.0946    4.1276   -1.5814 H   0  0  0  0  0  0  0  0  0  0  0  0
   -0.5380    2.4438   -1.5118 H   0  0  0  0  0  0  0  0  0  0  0  0
    0.5919    3.9691    0.1469 H   0  0  0  0  0  0  0  0  0  0  0  0
  1  2  1  0
  2  3  1  0
  2  4  1  0
  2  5  1  0
  5  6  1  0
  6  7  2  0
  6  8  1  0
  8  9  1  0
  9 10  1  0
 10 11  2  0
 11 12  1  0
 12 13  2  0
 13 14  1  0
 14 15  2  0
 15 16  1  0
 16 17  1  0
 17 18  2  0
 18 19  1  0
 19 20  2  0
 20 21  1  0
 21 22  2  0
 22 23  1  0
 22 24  1  0
 24 25  2  0
 18 26  1  0
 26 27  2  0
 27 28  1  0
 28 29  1  0
 29 30  1  0
 30 31  1  0
 30 32  1  0
 16 33  2  0
 33 34  1  0
 34 10  1  0
 34 13  1  0
 28 17  1  0
 25 19  1  0
  1 35  1  0
  1 36  1  0
  1 37  1  0
  3 38  1  0
  3 39  1  0
  3 40  1  0
  4 41  1  0
  4 42  1  0
  4 43  1  0
  5 44  1  0
  8 45  1  0
  9 46  1  0
  9 47  1  0
 11 48  1  0
 14 49  1  0
 15 50  1  0
 20 51  1  0
 21 52  1  0
 24 53  1  0
 25 54  1  0
 27 55  1  0
 29 56  1  0
 29 57  1  0
 30 58  1  0
M  END
$$$$
