@<TRIPOS>MOLECULE
*****
 25 27 0 0 0
SMALL
GASTEIGER

@<TRIPOS>ATOM
      1 N           5.4097   -0.5573    0.1553 N.ar    1  UNL1       -0.2841
      2 C           5.1048    0.7293    0.4972 C.ar    1  UNL1        0.0229
      3 C           3.7185    0.9318    0.4741 C.ar    1  UNL1       -0.0160
      4 C           3.2373   -0.3044    0.1011 C.ar    1  UNL1        0.1005
      5 N           4.2460   -1.1704   -0.0829 N.ar    1  UNL1       -0.1733
      6 C           1.8160   -0.6307   -0.0717 C.ar    1  UNL1        0.0593
      7 C           1.0639   -1.6765   -0.4070 C.ar    1  UNL1        0.0447
      8 N          -0.2259   -1.4655   -0.4222 N.ar    1  UNL1       -0.2467
      9 C          -0.8299   -0.5399   -0.1984 C.ar    1  UNL1        0.1088
     10 S           0.5661    0.6285    0.2081 S.2     1  UNL1       -0.0656
     11 C          -2.2587   -0.1338   -0.1672 C.ar    1  UNL1        0.0071
     12 C          -3.2522   -1.0282   -0.4740 C.ar    1  UNL1       -0.0521
     13 C          -4.5473   -0.5577   -0.4171 C.ar    1  UNL1       -0.0611
     14 C          -4.8245    0.7426   -0.0700 C.ar    1  UNL1       -0.0617
     15 C          -3.8357    1.6477    0.2395 C.ar    1  UNL1       -0.0611
     16 C          -2.5397    1.1768    0.1826 C.ar    1  UNL1       -0.0521
     17 H           6.4076   -0.8823    0.1218 H       1  UNL1        0.1882
     18 H           5.8026    1.5350    0.7623 H       1  UNL1        0.0824
     19 H           3.2051    1.8556    0.7026 H       1  UNL1        0.0655
     20 H           1.5773   -2.6182   -0.6405 H       1  UNL1        0.0842
     21 H          -2.9011   -2.0164   -0.7297 H       1  UNL1        0.0624
     22 H          -5.3071   -1.3049   -0.6694 H       1  UNL1        0.0618
     23 H          -5.8512    1.0739   -0.0366 H       1  UNL1        0.0618
     24 H          -4.0307    2.6729    0.5145 H       1  UNL1        0.0618
     25 H          -1.7512    1.8921    0.4276 H       1  UNL1        0.0624
@<TRIPOS>BOND
     1     1     2   ar
     2     2     3   ar
     3     3     4   ar
     4     4     5   ar
     5     4     6    1
     6     6     7   ar
     7     7     8   ar
     8     8     9   ar
     9     9    10   ar
    10     9    11    1
    11    11    12   ar
    12    12    13   ar
    13    13    14   ar
    14    14    15   ar
    15    15    16   ar
    16     5     1   ar
    17    10     6   ar
    18    16    11   ar
    19     1    17    1
    20     2    18    1
    21     3    19    1
    22     7    20    1
    23    12    21    1
    24    13    22    1
    25    14    23    1
    26    15    24    1
    27    16    25    1
