@<TRIPOS>MOLECULE
*****
 31 34 0 0 0
SMALL
GASTEIGER

@<TRIPOS>ATOM
      1 C          -4.6925   -1.5262   -0.1454 C.3     1  UNL1        0.0788
      2 O          -4.2874   -0.1922    0.0680 O.3     1  UNL1       -0.4951
      3 C          -2.9351    0.0920    0.0596 C.ar    1  UNL1        0.1214
      4 C          -1.9548   -0.8624   -0.1472 C.ar    1  UNL1       -0.0085
      5 C          -0.6110   -0.5514   -0.1506 C.ar    1  UNL1        0.0355
      6 C          -0.2023    0.7480    0.0568 C.ar    1  UNL1        0.0192
      7 C           1.1440    1.0997    0.0603 C.ar    1  UNL1        0.0800
      8 N           1.5103    2.3747    0.2653 N.ar    1  UNL1       -0.2543
      9 C           0.6066    3.3694    0.4758 C.ar    1  UNL1        0.0289
     10 C          -0.7160    3.0132    0.4704 C.ar    1  UNL1       -0.0357
     11 C          -1.1541    1.7300    0.2671 C.ar    1  UNL1       -0.0103
     12 C          -2.4908    1.3963    0.2663 C.ar    1  UNL1       -0.0121
     13 C           2.2003    0.1222   -0.1537 C.ar    1  UNL1        0.0118
     14 C           3.5397    0.5056   -0.1444 C.ar    1  UNL1       -0.0519
     15 C           4.5074   -0.4550   -0.3517 C.ar    1  UNL1       -0.0611
     16 C           4.1264   -1.7622   -0.5616 C.ar    1  UNL1       -0.0610
     17 C           2.8096   -2.1593   -0.5742 C.ar    1  UNL1       -0.0503
     18 C           1.8509   -1.1902   -0.3658 C.ar    1  UNL1        0.0314
     19 C           0.4313   -1.5495   -0.3675 C.2     1  UNL1        0.1945
     20 O           0.0792   -2.7428   -0.5589 O.2     1  UNL1       -0.2866
     21 H          -4.0893   -2.2205    0.5038 H       1  UNL1        0.0660
     22 H          -5.7686   -1.6219    0.1817 H       1  UNL1        0.0660
     23 H          -4.5883   -1.7987   -1.2032 H       1  UNL1        0.0660
     24 H          -2.2447   -1.8896   -0.3125 H       1  UNL1        0.0661
     25 H           0.9276    4.3891    0.6385 H       1  UNL1        0.0830
     26 H          -1.4715    3.7785    0.6350 H       1  UNL1        0.0639
     27 H          -3.2174    2.1914    0.4348 H       1  UNL1        0.0660
     28 H           3.7688    1.5514    0.0268 H       1  UNL1        0.0624
     29 H           5.5709   -0.1708   -0.3478 H       1  UNL1        0.0618
     30 H           4.8833   -2.5089   -0.7229 H       1  UNL1        0.0618
     31 H           2.4674   -3.1599   -0.7327 H       1  UNL1        0.0625
@<TRIPOS>BOND
     1     1     2    1
     2     2     3    1
     3     3     4   ar
     4     4     5   ar
     5     5     6   ar
     6     6     7   ar
     7     7     8   ar
     8     8     9   ar
     9     9    10   ar
    10    10    11   ar
    11    11    12   ar
    12     7    13    1
    13    13    14   ar
    14    14    15   ar
    15    15    16   ar
    16    16    17   ar
    17    17    18   ar
    18    18    19    1
    19    19    20    2
    20    12     3   ar
    21    18    13   ar
    22    19     5    1
    23    11     6   ar
    24     1    21    1
    25     1    22    1
    26     1    23    1
    27     4    24    1
    28     9    25    1
    29    10    26    1
    30    12    27    1
    31    14    28    1
    32    15    29    1
    33    16    30    1
    34    17    31    1
