@<TRIPOS>MOLECULE
*****
 43 45 0 0 0
SMALL
GASTEIGER

@<TRIPOS>ATOM
      1 O          -3.2343   -2.8200   -2.5060 O.2     1  UNL1       -0.2974
      2 C          -3.0834   -1.6687   -2.0723 C.2     1  UNL1        0.1337
      3 C          -3.0353   -0.5904   -3.0656 C.3     1  UNL1        0.0058
      4 C          -3.4107    0.7517   -2.5391 C.3     1  UNL1       -0.0461
      5 C          -3.9075    0.6475   -1.1155 C.3     1  UNL1       -0.0480
      6 C          -2.7778   -0.0201   -0.3189 C.3     1  UNL1       -0.0189
      7 C          -2.9113    0.2540    1.1424 C.3     1  UNL1        0.0124
      8 N          -1.8538   -0.3594    1.9095 N.pl3   1  UNL1       -0.3424
      9 C          -0.5083    0.0902    1.9252 C.ar    1  UNL1        0.0485
     10 C          -0.0601    1.2091    1.2376 C.ar    1  UNL1       -0.0022
     11 C           1.2568    1.6455    1.2844 C.ar    1  UNL1        0.1517
     12 F           1.6477    2.7608    0.5828 F       1  UNL1       -0.2034
     13 C           2.1831    0.9629    2.0355 C.ar    1  UNL1        0.1450
     14 S           3.8482    1.4974    2.1071 S.O2    1  UNL1        0.0766
     15 O           4.6324    0.6293    3.0529 O.2     1  UNL1       -0.1498
     16 O           3.8452    2.8790    2.6819 O.2     1  UNL1       -0.1498
     17 N           4.5888    1.5110    0.5731 N.pl3   1  UNL1       -0.1937
     18 C           4.7238    0.3152   -0.1632 C.ar    1  UNL1        0.1774
     19 N           4.4498   -0.9157   -0.0631 N.ar    1  UNL1       -0.2321
     20 C           4.7026   -1.8204   -0.9333 C.ar    1  UNL1        0.0369
     21 C           5.3285   -1.4617   -2.0969 C.ar    1  UNL1       -0.0030
     22 S           5.5326    0.3153   -1.8435 S.2     1  UNL1       -0.0594
     23 C           1.7769   -0.1504    2.7314 C.ar    1  UNL1       -0.0121
     24 C           0.4692   -0.5609    2.6680 C.ar    1  UNL1        0.0638
     25 CL         -0.0353   -1.9977    3.5709 Cl      1  UNL1       -0.0816
     26 C          -2.9703   -1.5169   -0.6179 C.3     1  UNL1        0.0101
     27 H          -1.9774   -0.5587   -3.4609 H       1  UNL1        0.0342
     28 H          -3.6568   -0.8690   -3.9583 H       1  UNL1        0.0342
     29 H          -4.1866    1.1910   -3.1998 H       1  UNL1        0.0269
     30 H          -2.5153    1.4325   -2.5083 H       1  UNL1        0.0269
     31 H          -4.1362    1.6428   -0.6934 H       1  UNL1        0.0269
     32 H          -4.7954   -0.0100   -1.1196 H       1  UNL1        0.0269
     33 H          -1.7967    0.2590   -0.7239 H       1  UNL1        0.0320
     34 H          -3.8832   -0.2218    1.4654 H       1  UNL1        0.0464
     35 H          -3.0342    1.3310    1.3752 H       1  UNL1        0.0464
     36 H          -2.0542   -1.2116    2.5207 H       1  UNL1        0.1461
     37 H          -0.7447    1.7840    0.6502 H       1  UNL1        0.0666
     38 H           4.9435    2.3965    0.1737 H       1  UNL1        0.1758
     39 H           4.4348   -2.8962   -0.7868 H       1  UNL1        0.0835
     40 H           5.6389   -1.9987   -2.9465 H       1  UNL1        0.0710
     41 H           2.5117   -0.6906    3.3267 H       1  UNL1        0.0653
     42 H          -2.0824   -2.0541   -0.2288 H       1  UNL1        0.0345
     43 H          -3.8632   -1.8442   -0.0527 H       1  UNL1        0.0345
@<TRIPOS>BOND
     1     1     2    2
     2     2     3    1
     3     3     4    1
     4     4     5    1
     5     5     6    1
     6     6     7    1
     7     7     8    1
     8     8     9    1
     9     9    10   ar
    10    10    11   ar
    11    11    12    1
    12    11    13   ar
    13    13    14    1
    14    14    15    2
    15    14    16    2
    16    14    17    1
    17    17    18    1
    18    18    19   ar
    19    19    20   ar
    20    20    21   ar
    21    21    22   ar
    22    13    23   ar
    23    23    24   ar
    24    24    25    1
    25     6    26    1
    26    26     2    1
    27    24     9   ar
    28    22    18   ar
    29     3    27    1
    30     3    28    1
    31     4    29    1
    32     4    30    1
    33     5    31    1
    34     5    32    1
    35     6    33    1
    36     7    34    1
    37     7    35    1
    38     8    36    1
    39    10    37    1
    40    17    38    1
    41    20    39    1
    42    21    40    1
    43    23    41    1
    44    26    42    1
    45    26    43    1
