
     RDKit          3D

 43 45  0  0  0  0  0  0  0  0999 V2000
   -3.2343   -2.8200   -2.5060 O   0  0  0  0  0  0  0  0  0  0  0  0
   -3.0834   -1.6687   -2.0723 C   0  0  0  0  0  0  0  0  0  0  0  0
   -3.0353   -0.5904   -3.0656 C   0  0  0  0  0  0  0  0  0  0  0  0
   -3.4107    0.7517   -2.5391 C   0  0  0  0  0  0  0  0  0  0  0  0
   -3.9075    0.6475   -1.1155 C   0  0  0  0  0  0  0  0  0  0  0  0
   -2.7778   -0.0201   -0.3189 C   0  0  0  0  0  0  0  0  0  0  0  0
   -2.9113    0.2540    1.1424 C   0  0  0  0  0  0  0  0  0  0  0  0
   -1.8538   -0.3594    1.9095 N   0  0  0  0  0  0  0  0  0  0  0  0
   -0.5083    0.0902    1.9252 C   0  0  0  0  0  0  0  0  0  0  0  0
   -0.0601    1.2091    1.2376 C   0  0  0  0  0  0  0  0  0  0  0  0
    1.2568    1.6455    1.2844 C   0  0  0  0  0  0  0  0  0  0  0  0
    1.6477    2.7608    0.5828 F   0  0  0  0  0  0  0  0  0  0  0  0
    2.1831    0.9629    2.0355 C   0  0  0  0  0  0  0  0  0  0  0  0
    3.8482    1.4974    2.1071 S   0  0  0  0  0  6  0  0  0  0  0  0
    4.6324    0.6293    3.0529 O   0  0  0  0  0  0  0  0  0  0  0  0
    3.8452    2.8790    2.6819 O   0  0  0  0  0  0  0  0  0  0  0  0
    4.5888    1.5110    0.5731 N   0  0  0  0  0  0  0  0  0  0  0  0
    4.7238    0.3152   -0.1632 C   0  0  0  0  0  0  0  0  0  0  0  0
    4.4498   -0.9157   -0.0631 N   0  0  0  0  0  0  0  0  0  0  0  0
    4.7026   -1.8204   -0.9333 C   0  0  0  0  0  0  0  0  0  0  0  0
    5.3285   -1.4617   -2.0969 C   0  0  0  0  0  0  0  0  0  0  0  0
    5.5326    0.3153   -1.8435 S   0  0  0  0  0  0  0  0  0  0  0  0
    1.7769   -0.1504    2.7314 C   0  0  0  0  0  0  0  0  0  0  0  0
    0.4692   -0.5609    2.6680 C   0  0  0  0  0  0  0  0  0  0  0  0
   -0.0353   -1.9977    3.5709 Cl  0  0  0  0  0  0  0  0  0  0  0  0
   -2.9703   -1.5169   -0.6179 C   0  0  0  0  0  0  0  0  0  0  0  0
   -1.9774   -0.5587   -3.4609 H   0  0  0  0  0  0  0  0  0  0  0  0
   -3.6568   -0.8690   -3.9583 H   0  0  0  0  0  0  0  0  0  0  0  0
   -4.1866    1.1910   -3.1998 H   0  0  0  0  0  0  0  0  0  0  0  0
   -2.5153    1.4325   -2.5083 H   0  0  0  0  0  0  0  0  0  0  0  0
   -4.1362    1.6428   -0.6934 H   0  0  0  0  0  0  0  0  0  0  0  0
   -4.7954   -0.0100   -1.1196 H   0  0  0  0  0  0  0  0  0  0  0  0
   -1.7967    0.2590   -0.7239 H   0  0  0  0  0  0  0  0  0  0  0  0
   -3.8832   -0.2218    1.4654 H   0  0  0  0  0  0  0  0  0  0  0  0
   -3.0342    1.3310    1.3752 H   0  0  0  0  0  0  0  0  0  0  0  0
   -2.0542   -1.2116    2.5207 H   0  0  0  0  0  0  0  0  0  0  0  0
   -0.7447    1.7840    0.6502 H   0  0  0  0  0  0  0  0  0  0  0  0
    4.9435    2.3965    0.1737 H   0  0  0  0  0  0  0  0  0  0  0  0
    4.4348   -2.8962   -0.7868 H   0  0  0  0  0  0  0  0  0  0  0  0
    5.6389   -1.9987   -2.9465 H   0  0  0  0  0  0  0  0  0  0  0  0
    2.5117   -0.6906    3.3267 H   0  0  0  0  0  0  0  0  0  0  0  0
   -2.0824   -2.0541   -0.2288 H   0  0  0  0  0  0  0  0  0  0  0  0
   -3.8632   -1.8442   -0.0527 H   0  0  0  0  0  0  0  0  0  0  0  0
  1  2  2  0
  2  3  1  0
  3  4  1  0
  4  5  1  0
  5  6  1  0
  6  7  1  0
  7  8  1  0
  8  9  1  0
  9 10  2  0
 10 11  1  0
 11 12  1  0
 11 13  2  0
 13 14  1  0
 14 15  2  0
 14 16  2  0
 14 17  1  0
 17 18  1  0
 18 19  2  0
 19 20  1  0
 20 21  2  0
 21 22  1  0
 13 23  1  0
 23 24  2  0
 24 25  1  0
  6 26  1  0
 26  2  1  0
 24  9  1  0
 22 18  1  0
  3 27  1  0
  3 28  1  0
  4 29  1  0
  4 30  1  0
  5 31  1  0
  5 32  1  0
  6 33  1  0
  7 34  1  0
  7 35  1  0
  8 36  1  0
 10 37  1  0
 17 38  1  0
 20 39  1  0
 21 40  1  0
 23 41  1  0
 26 42  1  0
 26 43  1  0
M  END
$$$$
