@<TRIPOS>MOLECULE
*****
 87 89 0 0 0
SMALL
GASTEIGER

@<TRIPOS>ATOM
      1 C          -7.3193   -2.9961    0.6471 C.3     1  UNL1        0.0001
      2 N          -6.1137   -3.2773   -0.1447 N.am    1  UNL1       -0.3168
      3 C          -4.8841   -2.6711    0.1936 C.2     1  UNL1        0.2336
      4 O          -4.9149   -1.8875    1.2017 O.2     1  UNL1       -0.2738
      5 C          -3.6677   -2.9312   -0.5699 C.3     1  UNL1        0.1042
      6 N          -2.5602   -2.0707   -0.1016 N.am    1  UNL1       -0.3033
      7 C          -1.8669   -1.2126   -0.9965 C.2     1  UNL1        0.2172
      8 O          -2.2650   -1.2392   -2.2131 O.2     1  UNL1       -0.2755
      9 C          -0.7545   -0.3405   -0.5624 C.3     1  UNL1        0.0442
     10 C          -1.0634    0.6281    0.5044 C.3     1  UNL1       -0.0413
     11 C          -2.1038    1.6413    0.2928 C.3     1  UNL1       -0.0493
     12 C          -3.4896    1.2069    0.0256 C.3     1  UNL1       -0.0186
     13 C          -4.3275    2.4883   -0.1397 C.3     1  UNL1        0.0896
     14 O          -4.2667    3.2622    1.0455 O.3     1  UNL1       -0.4920
     15 C          -4.9679    4.4494    1.0700 C.ar    1  UNL1        0.1205
     16 C          -4.9516    5.2520    2.1926 C.ar    1  UNL1       -0.0199
     17 C          -5.6391    6.4487    2.2619 C.ar    1  UNL1       -0.0583
     18 C          -6.3875    6.8937    1.1762 C.ar    1  UNL1       -0.0615
     19 C          -6.4103    6.1027    0.0541 C.ar    1  UNL1       -0.0583
     20 C          -5.7251    4.9134   -0.0102 C.ar    1  UNL1       -0.0199
     21 C           0.3866   -1.2300   -0.0329 C.3     1  UNL1        0.0357
     22 P           1.7952   -0.2417    0.5193 P.3     1  UNL1        0.2072
     23 O           1.9307    0.9476   -0.4027 O.2     1  UNL1       -0.2907
     24 O           1.5643    0.3347    2.0938 O.3     1  UNL1       -0.3433
     25 C           3.3359   -1.1990    0.4026 C.3     1  UNL1        0.0494
     26 C           4.4298   -0.2601    0.0658 C.ar    1  UNL1       -0.0381
     27 C           5.1145    0.3425    1.1146 C.ar    1  UNL1       -0.0578
     28 C           6.1390    1.2172    0.8177 C.ar    1  UNL1       -0.0580
     29 C           6.5188    1.5244   -0.4666 C.ar    1  UNL1       -0.0430
     30 C           7.6511    2.4893   -0.7058 C.3     1  UNL1       -0.0024
     31 C           8.8820    1.6244   -0.7438 C.ar    1  UNL1       -0.0431
     32 C           9.5791    1.3595    0.4154 C.ar    1  UNL1       -0.0583
     33 C          10.7105    0.5728    0.4277 C.ar    1  UNL1       -0.0615
     34 C          11.1902    0.0145   -0.7451 C.ar    1  UNL1       -0.0617
     35 C          10.4937    0.2790   -1.9039 C.ar    1  UNL1       -0.0615
     36 C           9.3456    1.0769   -1.9190 C.ar    1  UNL1       -0.0583
     37 C           5.8381    0.9256   -1.4982 C.ar    1  UNL1       -0.0580
     38 C           4.7965    0.0359   -1.2291 C.ar    1  UNL1       -0.0578
     39 C          -3.1504   -4.3523   -0.4713 C.3     1  UNL1       -0.0108
     40 C          -2.8290   -4.7614    0.9393 C.3     1  UNL1       -0.0579
     41 C          -4.0207   -5.3299   -1.1703 C.3     1  UNL1       -0.0579
     42 C          -1.7990   -4.3720   -1.2197 C.3     1  UNL1       -0.0579
     43 H          -8.0847   -2.6417   -0.0935 H       1  UNL1        0.0426
     44 H          -7.6441   -3.9833    1.0474 H       1  UNL1        0.0426
     45 H          -7.1071   -2.2547    1.4230 H       1  UNL1        0.0426
     46 H          -6.2429   -3.9229   -0.9433 H       1  UNL1        0.1484
     47 H          -3.7937   -2.7185   -1.6464 H       1  UNL1        0.0600
     48 H          -2.3244   -2.1270    0.8897 H       1  UNL1        0.1495
     49 H          -0.3226    0.1165   -1.4867 H       1  UNL1        0.0399
     50 H          -0.1034    1.1908    0.7187 H       1  UNL1        0.0273
     51 H          -1.2333    0.0592    1.4522 H       1  UNL1        0.0273
     52 H          -1.7974    2.3955   -0.4916 H       1  UNL1        0.0267
     53 H          -2.1417    2.2741    1.2305 H       1  UNL1        0.0267
     54 H          -3.9447    0.6601    0.9040 H       1  UNL1        0.0298
     55 H          -3.6868    0.6331   -0.8721 H       1  UNL1        0.0298
     56 H          -3.8196    3.0723   -0.9348 H       1  UNL1        0.0696
     57 H          -5.3560    2.2052   -0.3630 H       1  UNL1        0.0696
     58 H          -4.3863    4.9538    3.0635 H       1  UNL1        0.0654
     59 H          -5.6123    7.0583    3.1491 H       1  UNL1        0.0619
     60 H          -6.9160    7.8323    1.2567 H       1  UNL1        0.0618
     61 H          -6.9823    6.4292   -0.7946 H       1  UNL1        0.0619
     62 H          -5.7441    4.2909   -0.8944 H       1  UNL1        0.0654
     63 H           0.7282   -1.9289   -0.8116 H       1  UNL1        0.0371
     64 H           0.0435   -1.8277    0.8336 H       1  UNL1        0.0371
     65 H           1.2465   -0.3964    2.6653 H       1  UNL1        0.2176
     66 H           3.5353   -1.7618    1.3240 H       1  UNL1        0.0413
     67 H           3.2167   -1.8806   -0.4723 H       1  UNL1        0.0413
     68 H           4.8274    0.1119    2.1529 H       1  UNL1        0.0621
     69 H           6.6613    1.6773    1.6459 H       1  UNL1        0.0620
     70 H           7.5471    2.9367   -1.7021 H       1  UNL1        0.0361
     71 H           7.7469    3.2074    0.1164 H       1  UNL1        0.0361
     72 H           9.2257    1.7829    1.3452 H       1  UNL1        0.0620
     73 H          11.2529    0.3679    1.3394 H       1  UNL1        0.0618
     74 H          12.0846   -0.6065   -0.7308 H       1  UNL1        0.0618
     75 H          10.8772   -0.1621   -2.8109 H       1  UNL1        0.0618
     76 H           8.8290    1.2581   -2.8544 H       1  UNL1        0.0620
     77 H           6.1373    1.1680   -2.5085 H       1  UNL1        0.0620
     78 H           4.2671   -0.4302   -2.0404 H       1  UNL1        0.0621
     79 H          -2.0931   -4.0893    1.3954 H       1  UNL1        0.0236
     80 H          -3.7609   -4.8344    1.5545 H       1  UNL1        0.0236
     81 H          -2.3429   -5.7639    0.8741 H       1  UNL1        0.0236
     82 H          -4.8000   -5.7155   -0.4788 H       1  UNL1        0.0236
     83 H          -3.3590   -6.1769   -1.5027 H       1  UNL1        0.0236
     84 H          -4.4208   -4.8679   -2.0951 H       1  UNL1        0.0236
     85 H          -1.9193   -4.1322   -2.2764 H       1  UNL1        0.0236
     86 H          -1.1429   -3.7120   -0.6500 H       1  UNL1        0.0236
     87 H          -1.3684   -5.4054   -1.1421 H       1  UNL1        0.0236
@<TRIPOS>BOND
     1     1     2    1
     2     2     3   am
     3     3     4    2
     4     3     5    1
     5     5     6    1
     6     6     7   am
     7     7     8    2
     8     7     9    1
     9     9    10    1
    10    10    11    1
    11    11    12    1
    12    12    13    1
    13    13    14    1
    14    14    15    1
    15    15    16   ar
    16    16    17   ar
    17    17    18   ar
    18    18    19   ar
    19    19    20   ar
    20     9    21    1
    21    21    22    1
    22    22    23    2
    23    22    24    1
    24    22    25    1
    25    25    26    1
    26    26    27   ar
    27    27    28   ar
    28    28    29   ar
    29    29    30    1
    30    30    31    1
    31    31    32   ar
    32    32    33   ar
    33    33    34   ar
    34    34    35   ar
    35    35    36   ar
    36    29    37   ar
    37    37    38   ar
    38     5    39    1
    39    39    40    1
    40    39    41    1
    41    39    42    1
    42    20    15   ar
    43    38    26   ar
    44    36    31   ar
    45     1    43    1
    46     1    44    1
    47     1    45    1
    48     2    46    1
    49     5    47    1
    50     6    48    1
    51     9    49    1
    52    10    50    1
    53    10    51    1
    54    11    52    1
    55    11    53    1
    56    12    54    1
    57    12    55    1
    58    13    56    1
    59    13    57    1
    60    16    58    1
    61    17    59    1
    62    18    60    1
    63    19    61    1
    64    20    62    1
    65    21    63    1
    66    21    64    1
    67    24    65    1
    68    25    66    1
    69    25    67    1
    70    27    68    1
    71    28    69    1
    72    30    70    1
    73    30    71    1
    74    32    72    1
    75    33    73    1
    76    34    74    1
    77    35    75    1
    78    36    76    1
    79    37    77    1
    80    38    78    1
    81    40    79    1
    82    40    80    1
    83    40    81    1
    84    41    82    1
    85    41    83    1
    86    41    84    1
    87    42    85    1
    88    42    86    1
    89    42    87    1
