
     RDKit          3D

 87 89  0  0  0  0  0  0  0  0999 V2000
   -7.3193   -2.9961    0.6471 C   0  0  0  0  0  0  0  0  0  0  0  0
   -6.1137   -3.2773   -0.1447 N   0  0  0  0  0  0  0  0  0  0  0  0
   -4.8841   -2.6711    0.1936 C   0  0  0  0  0  0  0  0  0  0  0  0
   -4.9149   -1.8875    1.2017 O   0  0  0  0  0  0  0  0  0  0  0  0
   -3.6677   -2.9312   -0.5699 C   0  0  1  0  0  0  0  0  0  0  0  0
   -2.5602   -2.0707   -0.1016 N   0  0  0  0  0  0  0  0  0  0  0  0
   -1.8669   -1.2126   -0.9965 C   0  0  0  0  0  0  0  0  0  0  0  0
   -2.2650   -1.2392   -2.2131 O   0  0  0  0  0  0  0  0  0  0  0  0
   -0.7545   -0.3405   -0.5624 C   0  0  0  0  0  0  0  0  0  0  0  0
   -1.0634    0.6281    0.5044 C   0  0  0  0  0  0  0  0  0  0  0  0
   -2.1038    1.6413    0.2928 C   0  0  0  0  0  0  0  0  0  0  0  0
   -3.4896    1.2069    0.0256 C   0  0  0  0  0  0  0  0  0  0  0  0
   -4.3275    2.4883   -0.1397 C   0  0  0  0  0  0  0  0  0  0  0  0
   -4.2667    3.2622    1.0455 O   0  0  0  0  0  0  0  0  0  0  0  0
   -4.9679    4.4494    1.0700 C   0  0  0  0  0  0  0  0  0  0  0  0
   -4.9516    5.2520    2.1926 C   0  0  0  0  0  0  0  0  0  0  0  0
   -5.6391    6.4487    2.2619 C   0  0  0  0  0  0  0  0  0  0  0  0
   -6.3875    6.8937    1.1762 C   0  0  0  0  0  0  0  0  0  0  0  0
   -6.4103    6.1027    0.0541 C   0  0  0  0  0  0  0  0  0  0  0  0
   -5.7251    4.9134   -0.0102 C   0  0  0  0  0  0  0  0  0  0  0  0
    0.3866   -1.2300   -0.0329 C   0  0  0  0  0  0  0  0  0  0  0  0
    1.7952   -0.2417    0.5193 P   0  0  0  0  0  5  0  0  0  0  0  0
    1.9307    0.9476   -0.4027 O   0  0  0  0  0  0  0  0  0  0  0  0
    1.5643    0.3347    2.0938 O   0  0  0  0  0  0  0  0  0  0  0  0
    3.3359   -1.1990    0.4026 C   0  0  0  0  0  0  0  0  0  0  0  0
    4.4298   -0.2601    0.0658 C   0  0  0  0  0  0  0  0  0  0  0  0
    5.1145    0.3425    1.1146 C   0  0  0  0  0  0  0  0  0  0  0  0
    6.1390    1.2172    0.8177 C   0  0  0  0  0  0  0  0  0  0  0  0
    6.5188    1.5244   -0.4666 C   0  0  0  0  0  0  0  0  0  0  0  0
    7.6511    2.4893   -0.7058 C   0  0  0  0  0  0  0  0  0  0  0  0
    8.8820    1.6244   -0.7438 C   0  0  0  0  0  0  0  0  0  0  0  0
    9.5791    1.3595    0.4154 C   0  0  0  0  0  0  0  0  0  0  0  0
   10.7105    0.5728    0.4277 C   0  0  0  0  0  0  0  0  0  0  0  0
   11.1902    0.0145   -0.7451 C   0  0  0  0  0  0  0  0  0  0  0  0
   10.4937    0.2790   -1.9039 C   0  0  0  0  0  0  0  0  0  0  0  0
    9.3456    1.0769   -1.9190 C   0  0  0  0  0  0  0  0  0  0  0  0
    5.8381    0.9256   -1.4982 C   0  0  0  0  0  0  0  0  0  0  0  0
    4.7965    0.0359   -1.2291 C   0  0  0  0  0  0  0  0  0  0  0  0
   -3.1504   -4.3523   -0.4713 C   0  0  0  0  0  0  0  0  0  0  0  0
   -2.8290   -4.7614    0.9393 C   0  0  0  0  0  0  0  0  0  0  0  0
   -4.0207   -5.3299   -1.1703 C   0  0  0  0  0  0  0  0  0  0  0  0
   -1.7990   -4.3720   -1.2197 C   0  0  0  0  0  0  0  0  0  0  0  0
   -8.0847   -2.6417   -0.0935 H   0  0  0  0  0  0  0  0  0  0  0  0
   -7.6441   -3.9833    1.0474 H   0  0  0  0  0  0  0  0  0  0  0  0
   -7.1071   -2.2547    1.4230 H   0  0  0  0  0  0  0  0  0  0  0  0
   -6.2429   -3.9229   -0.9433 H   0  0  0  0  0  0  0  0  0  0  0  0
   -3.7937   -2.7185   -1.6464 H   0  0  0  0  0  0  0  0  0  0  0  0
   -2.3244   -2.1270    0.8897 H   0  0  0  0  0  0  0  0  0  0  0  0
   -0.3226    0.1165   -1.4867 H   0  0  0  0  0  0  0  0  0  0  0  0
   -0.1034    1.1908    0.7187 H   0  0  0  0  0  0  0  0  0  0  0  0
   -1.2333    0.0592    1.4522 H   0  0  0  0  0  0  0  0  0  0  0  0
   -1.7974    2.3955   -0.4916 H   0  0  0  0  0  0  0  0  0  0  0  0
   -2.1417    2.2741    1.2305 H   0  0  0  0  0  0  0  0  0  0  0  0
   -3.9447    0.6601    0.9040 H   0  0  0  0  0  0  0  0  0  0  0  0
   -3.6868    0.6331   -0.8721 H   0  0  0  0  0  0  0  0  0  0  0  0
   -3.8196    3.0723   -0.9348 H   0  0  0  0  0  0  0  0  0  0  0  0
   -5.3560    2.2052   -0.3630 H   0  0  0  0  0  0  0  0  0  0  0  0
   -4.3863    4.9538    3.0635 H   0  0  0  0  0  0  0  0  0  0  0  0
   -5.6123    7.0583    3.1491 H   0  0  0  0  0  0  0  0  0  0  0  0
   -6.9160    7.8323    1.2567 H   0  0  0  0  0  0  0  0  0  0  0  0
   -6.9823    6.4292   -0.7946 H   0  0  0  0  0  0  0  0  0  0  0  0
   -5.7441    4.2909   -0.8944 H   0  0  0  0  0  0  0  0  0  0  0  0
    0.7282   -1.9289   -0.8116 H   0  0  0  0  0  0  0  0  0  0  0  0
    0.0435   -1.8277    0.8336 H   0  0  0  0  0  0  0  0  0  0  0  0
    1.2465   -0.3964    2.6653 H   0  0  0  0  0  0  0  0  0  0  0  0
    3.5353   -1.7618    1.3240 H   0  0  0  0  0  0  0  0  0  0  0  0
    3.2167   -1.8806   -0.4723 H   0  0  0  0  0  0  0  0  0  0  0  0
    4.8274    0.1119    2.1529 H   0  0  0  0  0  0  0  0  0  0  0  0
    6.6613    1.6773    1.6459 H   0  0  0  0  0  0  0  0  0  0  0  0
    7.5471    2.9367   -1.7021 H   0  0  0  0  0  0  0  0  0  0  0  0
    7.7469    3.2074    0.1164 H   0  0  0  0  0  0  0  0  0  0  0  0
    9.2257    1.7829    1.3452 H   0  0  0  0  0  0  0  0  0  0  0  0
   11.2529    0.3679    1.3394 H   0  0  0  0  0  0  0  0  0  0  0  0
   12.0846   -0.6065   -0.7308 H   0  0  0  0  0  0  0  0  0  0  0  0
   10.8772   -0.1621   -2.8109 H   0  0  0  0  0  0  0  0  0  0  0  0
    8.8290    1.2581   -2.8544 H   0  0  0  0  0  0  0  0  0  0  0  0
    6.1373    1.1680   -2.5085 H   0  0  0  0  0  0  0  0  0  0  0  0
    4.2671   -0.4302   -2.0404 H   0  0  0  0  0  0  0  0  0  0  0  0
   -2.0931   -4.0893    1.3954 H   0  0  0  0  0  0  0  0  0  0  0  0
   -3.7609   -4.8344    1.5545 H   0  0  0  0  0  0  0  0  0  0  0  0
   -2.3429   -5.7639    0.8741 H   0  0  0  0  0  0  0  0  0  0  0  0
   -4.8000   -5.7155   -0.4788 H   0  0  0  0  0  0  0  0  0  0  0  0
   -3.3590   -6.1769   -1.5027 H   0  0  0  0  0  0  0  0  0  0  0  0
   -4.4208   -4.8679   -2.0951 H   0  0  0  0  0  0  0  0  0  0  0  0
   -1.9193   -4.1322   -2.2764 H   0  0  0  0  0  0  0  0  0  0  0  0
   -1.1429   -3.7120   -0.6500 H   0  0  0  0  0  0  0  0  0  0  0  0
   -1.3684   -5.4054   -1.1421 H   0  0  0  0  0  0  0  0  0  0  0  0
  1  2  1  0
  2  3  1  0
  3  4  2  0
  3  5  1  0
  5  6  1  0
  6  7  1  0
  7  8  2  0
  7  9  1  0
  9 10  1  0
 10 11  1  0
 11 12  1  0
 12 13  1  0
 13 14  1  0
 14 15  1  0
 15 16  2  0
 16 17  1  0
 17 18  2  0
 18 19  1  0
 19 20  2  0
  9 21  1  0
 21 22  1  0
 22 23  2  0
 22 24  1  0
 22 25  1  0
 25 26  1  0
 26 27  2  0
 27 28  1  0
 28 29  2  0
 29 30  1  0
 30 31  1  0
 31 32  2  0
 32 33  1  0
 33 34  2  0
 34 35  1  0
 35 36  2  0
 29 37  1  0
 37 38  2  0
  5 39  1  0
 39 40  1  0
 39 41  1  0
 39 42  1  0
 20 15  1  0
 38 26  1  0
 36 31  1  0
  1 43  1  0
  1 44  1  0
  1 45  1  0
  2 46  1  0
  5 47  1  6
  6 48  1  0
  9 49  1  0
 10 50  1  0
 10 51  1  0
 11 52  1  0
 11 53  1  0
 12 54  1  0
 12 55  1  0
 13 56  1  0
 13 57  1  0
 16 58  1  0
 17 59  1  0
 18 60  1  0
 19 61  1  0
 20 62  1  0
 21 63  1  0
 21 64  1  0
 24 65  1  0
 25 66  1  0
 25 67  1  0
 27 68  1  0
 28 69  1  0
 30 70  1  0
 30 71  1  0
 32 72  1  0
 33 73  1  0
 34 74  1  0
 35 75  1  0
 36 76  1  0
 37 77  1  0
 38 78  1  0
 40 79  1  0
 40 80  1  0
 40 81  1  0
 41 82  1  0
 41 83  1  0
 41 84  1  0
 42 85  1  0
 42 86  1  0
 42 87  1  0
M  END
$$$$
