
     RDKit          3D

 57 61  0  0  0  0  0  0  0  0999 V2000
    6.8939   -0.5432   -0.4361 C   0  0  0  0  0  0  0  0  0  0  0  0
    5.8916    0.0927    0.2951 O   0  0  0  0  0  0  0  0  0  0  0  0
    4.5444   -0.1981    0.1990 C   0  0  0  0  0  0  0  0  0  0  0  0
    4.1451   -1.1909   -0.6834 C   0  0  0  0  0  0  0  0  0  0  0  0
    2.7961   -1.5298   -0.8244 C   0  0  0  0  0  0  0  0  0  0  0  0
    1.8862   -0.8417   -0.0563 C   0  0  0  0  0  0  0  0  0  0  0  0
    0.4298   -1.1966   -0.1883 C   0  0  0  0  0  0  0  0  0  0  0  0
   -0.1426   -0.3624   -1.2813 C   0  0  2  0  0  0  0  0  0  0  0  0
   -0.0063    1.1391   -0.9597 C   0  0  0  0  0  0  0  0  0  0  0  0
   -0.5983    1.9162   -1.9517 O   0  0  0  0  0  0  0  0  0  0  0  0
   -1.9486    1.6646   -2.0878 C   0  0  0  0  0  0  0  0  0  0  0  0
   -2.1743    0.2094   -2.5215 C   0  0  0  0  0  0  0  0  0  0  0  0
   -1.5261   -0.6015   -1.5104 N   0  0  0  0  0  0  0  0  0  0  0  0
   -2.2730   -1.5681   -0.8181 C   0  0  0  0  0  0  0  0  0  0  0  0
   -1.8018   -2.3379    0.0909 O   0  0  0  0  0  0  0  0  0  0  0  0
   -3.6900   -1.7963   -1.0711 C   0  0  0  0  0  0  0  0  0  0  0  0
   -4.0690   -2.7042   -2.0119 C   0  0  0  0  0  0  0  0  0  0  0  0
   -5.4147   -2.9566   -2.2891 C   0  0  0  0  0  0  0  0  0  0  0  0
   -6.3490   -2.2462   -1.5686 C   0  0  0  0  0  0  0  0  0  0  0  0
   -5.9756   -1.3156   -0.6045 C   0  0  0  0  0  0  0  0  0  0  0  0
   -4.6231   -1.1014   -0.3666 C   0  0  0  0  0  0  0  0  0  0  0  0
   -4.2329   -0.1471    0.6227 N   0  0  0  0  0  0  0  0  0  0  0  0
   -3.5043   -0.3521    1.7119 N   0  0  0  0  0  0  0  0  0  0  0  0
   -3.3884    0.8212    2.3455 C   0  0  0  0  0  0  0  0  0  0  0  0
   -4.0738    1.7604    1.6057 C   0  0  0  0  0  0  0  0  0  0  0  0
   -4.5856    1.1216    0.5418 N   0  0  0  0  0  0  0  0  0  0  0  0
    2.2868    0.1405    0.8160 C   0  0  0  0  0  0  0  0  0  0  0  0
    3.6201    0.4804    0.9601 C   0  0  0  0  0  0  0  0  0  0  0  0
    4.0372    1.5078    1.8727 N   0  0  0  0  0  0  0  0  0  0  0  0
    4.4003    2.7498    1.5159 C   0  0  0  0  0  0  0  0  0  0  0  0
    4.7338    3.4483    2.6545 C   0  0  0  0  0  0  0  0  0  0  0  0
    4.5619    2.5905    3.7178 C   0  0  0  0  0  0  0  0  0  0  0  0
    4.1402    1.4343    3.1831 N   0  0  0  0  0  0  0  0  0  0  0  0
    7.8205    0.0297   -0.4400 H   0  0  0  0  0  0  0  0  0  0  0  0
    7.1341   -1.5694   -0.0460 H   0  0  0  0  0  0  0  0  0  0  0  0
    6.5446   -0.6074   -1.5027 H   0  0  0  0  0  0  0  0  0  0  0  0
    4.8421   -1.7430   -1.2953 H   0  0  0  0  0  0  0  0  0  0  0  0
    2.5065   -2.3104   -1.5214 H   0  0  0  0  0  0  0  0  0  0  0  0
   -0.0944   -0.9971    0.7725 H   0  0  0  0  0  0  0  0  0  0  0  0
    0.4200   -2.2700   -0.4324 H   0  0  0  0  0  0  0  0  0  0  0  0
    0.4410   -0.4886   -2.2468 H   0  0  0  0  0  0  0  0  0  0  0  0
    1.0729    1.3913   -0.8938 H   0  0  0  0  0  0  0  0  0  0  0  0
   -0.5562    1.3436   -0.0178 H   0  0  0  0  0  0  0  0  0  0  0  0
   -2.4251    2.3666   -2.7808 H   0  0  0  0  0  0  0  0  0  0  0  0
   -2.4214    1.7858   -1.1074 H   0  0  0  0  0  0  0  0  0  0  0  0
   -1.5955    0.0886   -3.4779 H   0  0  0  0  0  0  0  0  0  0  0  0
   -3.2290   -0.0157   -2.6504 H   0  0  0  0  0  0  0  0  0  0  0  0
   -3.3692   -3.2928   -2.6099 H   0  0  0  0  0  0  0  0  0  0  0  0
   -5.7168   -3.6727   -3.0311 H   0  0  0  0  0  0  0  0  0  0  0  0
   -7.4073   -2.4056   -1.7463 H   0  0  0  0  0  0  0  0  0  0  0  0
   -6.7243   -0.7733   -0.0549 H   0  0  0  0  0  0  0  0  0  0  0  0
   -2.8552    1.0407    3.2836 H   0  0  0  0  0  0  0  0  0  0  0  0
   -4.1692    2.8251    1.8593 H   0  0  0  0  0  0  0  0  0  0  0  0
    1.5368    0.6634    1.4076 H   0  0  0  0  0  0  0  0  0  0  0  0
    4.4322    3.1591    0.4901 H   0  0  0  0  0  0  0  0  0  0  0  0
    5.0729    4.4958    2.6940 H   0  0  0  0  0  0  0  0  0  0  0  0
    4.7500    2.8687    4.7434 H   0  0  0  0  0  0  0  0  0  0  0  0
  1  2  1  0
  2  3  1  0
  3  4  2  0
  4  5  1  0
  5  6  2  0
  6  7  1  0
  7  8  1  0
  8  9  1  0
  9 10  1  0
 10 11  1  0
 11 12  1  0
 12 13  1  0
 13 14  1  0
 14 15  2  0
 14 16  1  0
 16 17  2  0
 17 18  1  0
 18 19  2  0
 19 20  1  0
 20 21  2  0
 21 22  1  0
 22 23  1  0
 23 24  2  0
 24 25  1  0
 25 26  2  0
  6 27  1  0
 27 28  2  0
 28 29  1  0
 29 30  1  0
 30 31  2  0
 31 32  1  0
 32 33  2  0
 28  3  1  0
 33 29  1  0
 13  8  1  0
 21 16  1  0
 26 22  1  0
  1 34  1  0
  1 35  1  0
  1 36  1  0
  4 37  1  0
  5 38  1  0
  7 39  1  0
  7 40  1  0
  8 41  1  6
  9 42  1  0
  9 43  1  0
 11 44  1  0
 11 45  1  0
 12 46  1  0
 12 47  1  0
 17 48  1  0
 18 49  1  0
 19 50  1  0
 20 51  1  0
 24 52  1  0
 25 53  1  0
 27 54  1  0
 30 55  1  0
 31 56  1  0
 32 57  1  0
M  END
$$$$
