@<TRIPOS>MOLECULE
*****
 57 61 0 0 0
SMALL
GASTEIGER

@<TRIPOS>ATOM
      1 C           6.8939   -0.5432   -0.4361 C.3     1  UNL1        0.0789
      2 O           5.8916    0.0927    0.2951 O.3     1  UNL1       -0.4930
      3 C           4.5444   -0.1981    0.1990 C.ar    1  UNL1        0.1454
      4 C           4.1451   -1.1909   -0.6834 C.ar    1  UNL1       -0.0176
      5 C           2.7961   -1.5298   -0.8244 C.ar    1  UNL1       -0.0549
      6 C           1.8862   -0.8417   -0.0563 C.ar    1  UNL1       -0.0433
      7 C           0.4298   -1.1966   -0.1883 C.3     1  UNL1       -0.0067
      8 C          -0.1426   -0.3624   -1.2813 C.3     1  UNL1        0.0537
      9 C          -0.0063    1.1391   -0.9597 C.3     1  UNL1        0.0666
     10 O          -0.5983    1.9162   -1.9517 O.3     1  UNL1       -0.3764
     11 C          -1.9486    1.6646   -2.0878 C.3     1  UNL1        0.0635
     12 C          -2.1743    0.2094   -2.5215 C.3     1  UNL1        0.0388
     13 N          -1.5261   -0.6015   -1.5104 N.am    1  UNL1       -0.2897
     14 C          -2.2730   -1.5681   -0.8181 C.2     1  UNL1        0.2491
     15 O          -1.8018   -2.3379    0.0909 O.2     1  UNL1       -0.2699
     16 C          -3.6900   -1.7963   -1.0711 C.ar    1  UNL1        0.0640
     17 C          -4.0690   -2.7042   -2.0119 C.ar    1  UNL1       -0.0475
     18 C          -5.4147   -2.9566   -2.2891 C.ar    1  UNL1       -0.0609
     19 C          -6.3490   -2.2462   -1.5686 C.ar    1  UNL1       -0.0597
     20 C          -5.9756   -1.3156   -0.6045 C.ar    1  UNL1       -0.0338
     21 C          -4.6231   -1.1014   -0.3666 C.ar    1  UNL1        0.0982
     22 N          -4.2329   -0.1471    0.6227 N.ar    1  UNL1       -0.1496
     23 N          -3.5043   -0.3521    1.7119 N.ar    1  UNL1       -0.1556
     24 C          -3.3884    0.8212    2.3455 C.ar    1  UNL1        0.0697
     25 C          -4.0738    1.7604    1.6057 C.ar    1  UNL1        0.0697
     26 N          -4.5856    1.1216    0.5418 N.ar    1  UNL1       -0.1556
     27 C           2.2868    0.1405    0.8160 C.ar    1  UNL1       -0.0294
     28 C           3.6201    0.4804    0.9601 C.ar    1  UNL1        0.1071
     29 N           4.0372    1.5078    1.8727 N.ar    1  UNL1       -0.2363
     30 C           4.4003    2.7498    1.5159 C.ar    1  UNL1        0.0314
     31 C           4.7338    3.4483    2.6545 C.ar    1  UNL1       -0.0238
     32 C           4.5619    2.5905    3.7178 C.ar    1  UNL1        0.0498
     33 N           4.1402    1.4343    3.1831 N.ar    1  UNL1       -0.1747
     34 H           7.8205    0.0297   -0.4400 H       1  UNL1        0.0660
     35 H           7.1341   -1.5694   -0.0460 H       1  UNL1        0.0660
     36 H           6.5446   -0.6074   -1.5027 H       1  UNL1        0.0660
     37 H           4.8421   -1.7430   -1.2953 H       1  UNL1        0.0655
     38 H           2.5065   -2.3104   -1.5214 H       1  UNL1        0.0621
     39 H          -0.0944   -0.9971    0.7725 H       1  UNL1        0.0332
     40 H           0.4200   -2.2700   -0.4324 H       1  UNL1        0.0332
     41 H           0.4410   -0.4886   -2.2468 H       1  UNL1        0.0526
     42 H           1.0729    1.3913   -0.8938 H       1  UNL1        0.0578
     43 H          -0.5562    1.3436   -0.0178 H       1  UNL1        0.0578
     44 H          -2.4251    2.3666   -2.7808 H       1  UNL1        0.0575
     45 H          -2.4214    1.7858   -1.1074 H       1  UNL1        0.0575
     46 H          -1.5955    0.0886   -3.4779 H       1  UNL1        0.0487
     47 H          -3.2290   -0.0157   -2.6504 H       1  UNL1        0.0487
     48 H          -3.3692   -3.2928   -2.6099 H       1  UNL1        0.0626
     49 H          -5.7168   -3.6727   -3.0311 H       1  UNL1        0.0618
     50 H          -7.4073   -2.4056   -1.7463 H       1  UNL1        0.0618
     51 H          -6.7243   -0.7733   -0.0549 H       1  UNL1        0.0639
     52 H          -2.8552    1.0407    3.2836 H       1  UNL1        0.0864
     53 H          -4.1692    2.8251    1.8593 H       1  UNL1        0.0864
     54 H           1.5368    0.6634    1.4076 H       1  UNL1        0.0643
     55 H           4.4322    3.1591    0.4901 H       1  UNL1        0.0831
     56 H           5.0729    4.4958    2.6940 H       1  UNL1        0.0648
     57 H           4.7500    2.8687    4.7434 H       1  UNL1        0.0848
@<TRIPOS>BOND
     1     1     2    1
     2     2     3    1
     3     3     4   ar
     4     4     5   ar
     5     5     6   ar
     6     6     7    1
     7     7     8    1
     8     8     9    1
     9     9    10    1
    10    10    11    1
    11    11    12    1
    12    12    13    1
    13    13    14   am
    14    14    15    2
    15    14    16    1
    16    16    17   ar
    17    17    18   ar
    18    18    19   ar
    19    19    20   ar
    20    20    21   ar
    21    21    22    1
    22    22    23   ar
    23    23    24   ar
    24    24    25   ar
    25    25    26   ar
    26     6    27   ar
    27    27    28   ar
    28    28    29    1
    29    29    30   ar
    30    30    31   ar
    31    31    32   ar
    32    32    33   ar
    33    28     3   ar
    34    33    29   ar
    35    13     8    1
    36    21    16   ar
    37    26    22   ar
    38     1    34    1
    39     1    35    1
    40     1    36    1
    41     4    37    1
    42     5    38    1
    43     7    39    1
    44     7    40    1
    45     8    41    1
    46     9    42    1
    47     9    43    1
    48    11    44    1
    49    11    45    1
    50    12    46    1
    51    12    47    1
    52    17    48    1
    53    18    49    1
    54    19    50    1
    55    20    51    1
    56    24    52    1
    57    25    53    1
    58    27    54    1
    59    30    55    1
    60    31    56    1
    61    32    57    1
