@<TRIPOS>MOLECULE
*****
 54 56 0 0 0
SMALL
GASTEIGER

@<TRIPOS>ATOM
      1 C           6.9005    2.8927    1.3407 C.3     1  UNL1        0.0788
      2 O           6.6446    1.5342    1.1222 O.3     1  UNL1       -0.4951
      3 C           5.4300    1.0756    0.5882 C.ar    1  UNL1        0.1201
      4 C           4.4251    1.9579    0.2524 C.ar    1  UNL1       -0.0197
      5 C           3.2478    1.4757   -0.2684 C.ar    1  UNL1       -0.0551
      6 C           3.0117    0.1255   -0.4781 C.ar    1  UNL1       -0.0457
      7 C           1.7715   -0.4237   -1.0285 C.3     1  UNL1       -0.0117
      8 C           0.7508   -0.7580    0.0386 C.3     1  UNL1        0.0208
      9 N          -0.4649   -1.2869   -0.5133 N.am    1  UNL1       -0.2755
     10 C          -0.6210   -2.7135   -0.7363 C.2     1  UNL1        0.3204
     11 O           0.2623   -3.6037   -0.6336 O.2     1  UNL1       -0.2510
     12 N          -1.9782   -2.9869   -1.1066 N.am    1  UNL1       -0.1998
     13 N          -2.5059   -4.0991   -1.7692 N.3     1  UNL1       -0.1089
     14 S          -2.9842   -5.3326   -0.6613 S.O2    1  UNL1        0.0419
     15 C          -4.2449   -4.6726    0.3770 C.3     1  UNL1        0.0720
     16 O          -1.7729   -5.7746    0.1011 O.2     1  UNL1       -0.1571
     17 O          -3.4663   -6.5054   -1.4673 O.2     1  UNL1       -0.1571
     18 C          -2.7174   -1.8106   -0.6249 C.3     1  UNL1        0.0567
     19 C          -1.7067   -0.7251   -0.9401 C.3     1  UNL1        0.0699
     20 C          -2.0831    0.5722   -0.3857 C.ar    1  UNL1       -0.0252
     21 C          -3.3078    0.7027    0.2758 C.ar    1  UNL1       -0.0533
     22 C          -3.6718    1.9213    0.7782 C.ar    1  UNL1       -0.0196
     23 C          -2.8453    3.0185    0.6388 C.ar    1  UNL1        0.1201
     24 O          -3.2711    4.2158    1.1675 O.3     1  UNL1       -0.4951
     25 C          -2.5345    5.4162    1.1010 C.3     1  UNL1        0.0788
     26 C          -1.6439    2.8882   -0.0112 C.ar    1  UNL1       -0.0196
     27 C          -1.2436    1.6504   -0.5374 C.ar    1  UNL1       -0.0533
     28 C           4.0350   -0.7309   -0.1326 C.ar    1  UNL1       -0.0551
     29 C           5.2351   -0.2631    0.3963 C.ar    1  UNL1       -0.0197
     30 H           7.2261    3.4429    0.4435 H       1  UNL1        0.0660
     31 H           7.7282    2.9908    2.0936 H       1  UNL1        0.0660
     32 H           6.0172    3.3665    1.8294 H       1  UNL1        0.0660
     33 H           4.5928    3.0228    0.4102 H       1  UNL1        0.0654
     34 H           2.4696    2.1750   -0.5271 H       1  UNL1        0.0621
     35 H           2.0252   -1.4261   -1.4959 H       1  UNL1        0.0328
     36 H           1.3921    0.1785   -1.8530 H       1  UNL1        0.0328
     37 H           1.1544   -1.5145    0.7535 H       1  UNL1        0.0468
     38 H           0.5174    0.1660    0.5931 H       1  UNL1        0.0468
     39 H          -3.2457   -3.8419   -2.4384 H       1  UNL1        0.1715
     40 H          -4.8771   -5.5214    0.7363 H       1  UNL1        0.0480
     41 H          -3.7306   -4.1788    1.2487 H       1  UNL1        0.0480
     42 H          -4.8522   -3.8909   -0.0990 H       1  UNL1        0.0480
     43 H          -2.8932   -1.9504    0.4446 H       1  UNL1        0.0503
     44 H          -3.6387   -1.6473   -1.2161 H       1  UNL1        0.0503
     45 H          -1.6742   -0.6974   -2.0695 H       1  UNL1        0.0567
     46 H          -3.9084   -0.1885    0.3524 H       1  UNL1        0.0622
     47 H          -4.6329    2.0120    1.2943 H       1  UNL1        0.0654
     48 H          -2.8900    6.1190    1.8983 H       1  UNL1        0.0660
     49 H          -1.4855    5.1669    1.3740 H       1  UNL1        0.0660
     50 H          -2.6225    5.8362    0.0879 H       1  UNL1        0.0660
     51 H          -1.0260    3.7558   -0.1031 H       1  UNL1        0.0654
     52 H          -0.2878    1.6173   -1.0510 H       1  UNL1        0.0622
     53 H           3.9528   -1.8010   -0.2560 H       1  UNL1        0.0621
     54 H           6.0379   -0.9518    0.6659 H       1  UNL1        0.0654
@<TRIPOS>BOND
     1     1     2    1
     2     2     3    1
     3     3     4   ar
     4     4     5   ar
     5     5     6   ar
     6     6     7    1
     7     7     8    1
     8     8     9    1
     9     9    10   am
    10    10    11    2
    11    10    12   am
    12    12    13    1
    13    13    14    1
    14    14    15    1
    15    14    16    2
    16    14    17    2
    17    12    18    1
    18    18    19    1
    19    19    20    1
    20    20    21   ar
    21    21    22   ar
    22    22    23   ar
    23    23    24    1
    24    24    25    1
    25    23    26   ar
    26    26    27   ar
    27     6    28   ar
    28    28    29   ar
    29    29     3   ar
    30    19     9    1
    31    27    20   ar
    32     1    30    1
    33     1    31    1
    34     1    32    1
    35     4    33    1
    36     5    34    1
    37     7    35    1
    38     7    36    1
    39     8    37    1
    40     8    38    1
    41    13    39    1
    42    15    40    1
    43    15    41    1
    44    15    42    1
    45    18    43    1
    46    18    44    1
    47    19    45    1
    48    21    46    1
    49    22    47    1
    50    25    48    1
    51    25    49    1
    52    25    50    1
    53    26    51    1
    54    27    52    1
    55    28    53    1
    56    29    54    1
