@<TRIPOS>MOLECULE
*****
 32 32 0 0 0
SMALL
GASTEIGER

@<TRIPOS>ATOM
      1 O           4.4183   -2.1429   -0.8205 O.2     1  UNL1       -0.2492
      2 C           3.5212   -1.3554   -0.4333 C.2     1  UNL1        0.3221
      3 O           3.8779   -0.1557    0.1583 O.3     1  UNL1       -0.4795
      4 C           2.1072   -1.7472   -0.6279 C.3     1  UNL1        0.1088
      5 N           1.1931   -0.7406   -0.1327 N.am    1  UNL1       -0.3046
      6 C           1.1908    0.5953   -0.6509 C.2     1  UNL1        0.2176
      7 O           2.0481    0.8000   -1.5606 O.2     1  UNL1       -0.2755
      8 C           0.2903    1.6480   -0.1882 C.3     1  UNL1        0.0482
      9 C           0.4145    1.9156    1.3048 C.3     1  UNL1        0.0021
     10 S           2.0942    2.4357    1.7521 S.3     1  UNL1       -0.1775
     11 C          -1.1363    1.5318   -0.5881 C.3     1  UNL1       -0.0158
     12 C          -1.8484    0.3333   -0.1519 C.ar    1  UNL1       -0.0466
     13 C          -2.5106    0.2836    1.0573 C.ar    1  UNL1       -0.0586
     14 C          -3.1922   -0.8479    1.4757 C.ar    1  UNL1       -0.0615
     15 C          -3.2339   -1.9753    0.6915 C.ar    1  UNL1       -0.0617
     16 C          -2.5761   -1.9395   -0.5202 C.ar    1  UNL1       -0.0615
     17 C          -1.8985   -0.8160   -0.9371 C.ar    1  UNL1       -0.0586
     18 H           4.7670    0.3131   -0.0698 H       1  UNL1        0.2951
     19 H           1.8910   -2.0164   -1.6851 H       1  UNL1        0.0577
     20 H           1.9388   -2.6730   -0.0429 H       1  UNL1        0.0577
     21 H           0.5305   -0.9822    0.6083 H       1  UNL1        0.1493
     22 H           0.6472    2.6194   -0.6552 H       1  UNL1        0.0405
     23 H          -0.3634    2.5875    1.6736 H       1  UNL1        0.0381
     24 H           0.2492    0.9330    1.8362 H       1  UNL1        0.0381
     25 H           2.5089    3.5675    1.0562 H       1  UNL1        0.1017
     26 H          -1.2545    1.6746   -1.7039 H       1  UNL1        0.0321
     27 H          -1.6533    2.4439   -0.1640 H       1  UNL1        0.0321
     28 H          -2.5077    1.1500    1.7148 H       1  UNL1        0.0620
     29 H          -3.7174   -0.8792    2.4411 H       1  UNL1        0.0618
     30 H          -3.7734   -2.8574    1.0330 H       1  UNL1        0.0618
     31 H          -2.6176   -2.8451   -1.1350 H       1  UNL1        0.0618
     32 H          -1.4052   -0.8584   -1.8987 H       1  UNL1        0.0620
@<TRIPOS>BOND
     1     1     2    2
     2     2     3    1
     3     2     4    1
     4     4     5    1
     5     5     6   am
     6     6     7    2
     7     6     8    1
     8     8     9    1
     9     9    10    1
    10     8    11    1
    11    11    12    1
    12    12    13   ar
    13    13    14   ar
    14    14    15   ar
    15    15    16   ar
    16    16    17   ar
    17    17    12   ar
    18     3    18    1
    19     4    19    1
    20     4    20    1
    21     5    21    1
    22     8    22    1
    23     9    23    1
    24     9    24    1
    25    10    25    1
    26    11    26    1
    27    11    27    1
    28    13    28    1
    29    14    29    1
    30    15    30    1
    31    16    31    1
    32    17    32    1
