@<TRIPOS>MOLECULE
*****
 52 55 0 0 0
SMALL
GASTEIGER

@<TRIPOS>ATOM
      1 C           4.2598    2.2550    1.4017 C.3     1  UNL1       -0.0653
      2 C           4.3409    2.4384   -0.0879 C.3     1  UNL1       -0.0555
      3 C           3.3989    1.4329   -0.8103 C.3     1  UNL1       -0.0465
      4 C           3.8698    0.0911   -0.4119 C.3     1  UNL1        0.0057
      5 C           3.1952   -1.0869   -0.9898 C.ar    1  UNL1        0.1119
      6 N           3.5466   -1.7135   -2.1544 N.ar    1  UNL1       -0.2205
      7 C           2.7935   -2.7999   -2.3599 C.ar    1  UNL1        0.1527
      8 CL          2.9291   -3.8886   -3.7508 Cl      1  UNL1       -0.0600
      9 C           1.9203   -2.8928   -1.3022 C.ar    1  UNL1        0.0831
     10 C           0.8871   -3.9518   -1.1009 C.3     1  UNL1        0.0872
     11 O           1.5532   -5.1227   -0.6697 O.3     1  UNL1       -0.3889
     12 N           2.1948   -1.8313   -0.4913 N.ar    1  UNL1       -0.3239
     13 C           1.4827   -1.6427    0.7518 C.3     1  UNL1        0.0498
     14 C           0.1422   -1.0468    0.5936 C.ar    1  UNL1       -0.0277
     15 C          -0.9408   -1.5748    1.3081 C.ar    1  UNL1       -0.0563
     16 C          -2.2221   -1.0968    1.1851 C.ar    1  UNL1       -0.0537
     17 C          -2.4668   -0.0558    0.3277 C.ar    1  UNL1       -0.0179
     18 C          -3.8222    0.4733    0.1597 C.ar    1  UNL1       -0.0162
     19 C          -4.7496   -0.3328   -0.5161 C.ar    1  UNL1       -0.0540
     20 C          -6.0167    0.1063   -0.7147 C.ar    1  UNL1       -0.0612
     21 C          -6.3950    1.3445   -0.2534 C.ar    1  UNL1       -0.0617
     22 C          -5.5284    2.1783    0.4163 C.ar    1  UNL1       -0.0595
     23 C          -4.2259    1.7054    0.6108 C.ar    1  UNL1       -0.0240
     24 C          -3.2659    2.5462    1.3168 C.ar    1  UNL1        0.0438
     25 N          -1.9983    2.2839    1.6427 N.ar    1  UNL1       -0.2895
     26 N          -1.5277    3.3393    2.2663 N.ar    1  UNL1       -0.2180
     27 N          -2.4525    4.2678    2.3504 N.ar    1  UNL1       -0.2180
     28 N          -3.5283    3.7953    1.7706 N.ar    1  UNL1       -0.2895
     29 C          -1.4360    0.4814   -0.3834 C.ar    1  UNL1       -0.0537
     30 C          -0.1294   -0.0139   -0.2520 C.ar    1  UNL1       -0.0563
     31 H           3.2796    1.8760    1.7393 H       1  UNL1        0.0230
     32 H           4.4008    3.2341    1.9167 H       1  UNL1        0.0230
     33 H           5.0937    1.5809    1.7340 H       1  UNL1        0.0230
     34 H           5.3487    2.1967   -0.4762 H       1  UNL1        0.0263
     35 H           4.0942    3.4681   -0.3586 H       1  UNL1        0.0263
     36 H           3.4432    1.6792   -1.8722 H       1  UNL1        0.0269
     37 H           2.4006    1.7254   -0.4114 H       1  UNL1        0.0269
     38 H           4.9771   -0.0438   -0.6270 H       1  UNL1        0.0343
     39 H           3.8439    0.0552    0.7144 H       1  UNL1        0.0343
     40 H           0.4505   -4.2421   -2.0948 H       1  UNL1        0.0623
     41 H           0.0977   -3.6626   -0.4095 H       1  UNL1        0.0623
     42 H           2.4120   -4.8459   -0.2623 H       1  UNL1        0.2099
     43 H           1.4023   -2.6015    1.3417 H       1  UNL1        0.0542
     44 H           2.0770   -0.9471    1.4107 H       1  UNL1        0.0542
     45 H          -0.7261   -2.3836    1.9683 H       1  UNL1        0.0621
     46 H          -3.0446   -1.5120    1.7405 H       1  UNL1        0.0624
     47 H          -4.4337   -1.3042   -0.8728 H       1  UNL1        0.0624
     48 H          -6.7195   -0.5234   -1.2370 H       1  UNL1        0.0618
     49 H          -7.4082    1.6703   -0.4243 H       1  UNL1        0.0618
     50 H          -5.8355    3.1480    0.7739 H       1  UNL1        0.0618
     51 H          -1.5950    1.3042   -1.0694 H       1  UNL1        0.0624
     52 H           0.6326    0.4402   -0.8602 H       1  UNL1        0.0621
@<TRIPOS>UNITY_ATOM_ATTR
27 1
charge -1
@<TRIPOS>BOND
     1     1     2    1
     2     2     3    1
     3     3     4    1
     4     4     5    1
     5     5     6   ar
     6     6     7   ar
     7     7     8    1
     8     7     9   ar
     9     9    10    1
    10    10    11    1
    11     9    12   ar
    12    12    13    1
    13    13    14    1
    14    14    15   ar
    15    15    16   ar
    16    16    17   ar
    17    17    18    1
    18    18    19   ar
    19    19    20   ar
    20    20    21   ar
    21    21    22   ar
    22    22    23   ar
    23    23    24    1
    24    24    25   ar
    25    25    26   ar
    26    26    27   ar
    27    27    28   ar
    28    17    29   ar
    29    29    30   ar
    30    12     5   ar
    31    30    14   ar
    32    23    18   ar
    33    28    24   ar
    34     1    31    1
    35     1    32    1
    36     1    33    1
    37     2    34    1
    38     2    35    1
    39     3    36    1
    40     3    37    1
    41     4    38    1
    42     4    39    1
    43    10    40    1
    44    10    41    1
    45    11    42    1
    46    13    43    1
    47    13    44    1
    48    15    45    1
    49    16    46    1
    50    19    47    1
    51    20    48    1
    52    21    49    1
    53    22    50    1
    54    29    51    1
    55    30    52    1
