
     RDKit          3D

 52 55  0  0  0  0  0  0  0  0999 V2000
    4.2598    2.2550    1.4017 C   0  0  0  0  0  0  0  0  0  0  0  0
    4.3409    2.4384   -0.0879 C   0  0  0  0  0  0  0  0  0  0  0  0
    3.3989    1.4329   -0.8103 C   0  0  0  0  0  0  0  0  0  0  0  0
    3.8698    0.0911   -0.4119 C   0  0  0  0  0  0  0  0  0  0  0  0
    3.1952   -1.0869   -0.9898 C   0  0  0  0  0  0  0  0  0  0  0  0
    3.5466   -1.7135   -2.1544 N   0  0  0  0  0  0  0  0  0  0  0  0
    2.7935   -2.7999   -2.3599 C   0  0  0  0  0  0  0  0  0  0  0  0
    2.9291   -3.8886   -3.7508 Cl  0  0  0  0  0  0  0  0  0  0  0  0
    1.9203   -2.8928   -1.3022 C   0  0  0  0  0  0  0  0  0  0  0  0
    0.8871   -3.9518   -1.1009 C   0  0  0  0  0  0  0  0  0  0  0  0
    1.5532   -5.1227   -0.6697 O   0  0  0  0  0  0  0  0  0  0  0  0
    2.1948   -1.8313   -0.4913 N   0  0  0  0  0  0  0  0  0  0  0  0
    1.4827   -1.6427    0.7518 C   0  0  0  0  0  0  0  0  0  0  0  0
    0.1422   -1.0468    0.5936 C   0  0  0  0  0  0  0  0  0  0  0  0
   -0.9408   -1.5748    1.3081 C   0  0  0  0  0  0  0  0  0  0  0  0
   -2.2221   -1.0968    1.1851 C   0  0  0  0  0  0  0  0  0  0  0  0
   -2.4668   -0.0558    0.3277 C   0  0  0  0  0  0  0  0  0  0  0  0
   -3.8222    0.4733    0.1597 C   0  0  0  0  0  0  0  0  0  0  0  0
   -4.7496   -0.3328   -0.5161 C   0  0  0  0  0  0  0  0  0  0  0  0
   -6.0167    0.1063   -0.7147 C   0  0  0  0  0  0  0  0  0  0  0  0
   -6.3950    1.3445   -0.2534 C   0  0  0  0  0  0  0  0  0  0  0  0
   -5.5284    2.1783    0.4163 C   0  0  0  0  0  0  0  0  0  0  0  0
   -4.2259    1.7054    0.6108 C   0  0  0  0  0  0  0  0  0  0  0  0
   -3.2659    2.5462    1.3168 C   0  0  0  0  0  0  0  0  0  0  0  0
   -1.9983    2.2839    1.6427 N   0  0  0  0  0  0  0  0  0  0  0  0
   -1.5277    3.3393    2.2663 N   0  0  0  0  0  0  0  0  0  0  0  0
   -2.4525    4.2678    2.3504 N   0  0  0  0  0  2  0  0  0  0  0  0
   -3.5283    3.7953    1.7706 N   0  0  0  0  0  0  0  0  0  0  0  0
   -1.4360    0.4814   -0.3834 C   0  0  0  0  0  0  0  0  0  0  0  0
   -0.1294   -0.0139   -0.2520 C   0  0  0  0  0  0  0  0  0  0  0  0
    3.2796    1.8760    1.7393 H   0  0  0  0  0  0  0  0  0  0  0  0
    4.4008    3.2341    1.9167 H   0  0  0  0  0  0  0  0  0  0  0  0
    5.0937    1.5809    1.7340 H   0  0  0  0  0  0  0  0  0  0  0  0
    5.3487    2.1967   -0.4762 H   0  0  0  0  0  0  0  0  0  0  0  0
    4.0942    3.4681   -0.3586 H   0  0  0  0  0  0  0  0  0  0  0  0
    3.4432    1.6792   -1.8722 H   0  0  0  0  0  0  0  0  0  0  0  0
    2.4006    1.7254   -0.4114 H   0  0  0  0  0  0  0  0  0  0  0  0
    4.9771   -0.0438   -0.6270 H   0  0  0  0  0  0  0  0  0  0  0  0
    3.8439    0.0552    0.7144 H   0  0  0  0  0  0  0  0  0  0  0  0
    0.4505   -4.2421   -2.0948 H   0  0  0  0  0  0  0  0  0  0  0  0
    0.0977   -3.6626   -0.4095 H   0  0  0  0  0  0  0  0  0  0  0  0
    2.4120   -4.8459   -0.2623 H   0  0  0  0  0  0  0  0  0  0  0  0
    1.4023   -2.6015    1.3417 H   0  0  0  0  0  0  0  0  0  0  0  0
    2.0770   -0.9471    1.4107 H   0  0  0  0  0  0  0  0  0  0  0  0
   -0.7261   -2.3836    1.9683 H   0  0  0  0  0  0  0  0  0  0  0  0
   -3.0446   -1.5120    1.7405 H   0  0  0  0  0  0  0  0  0  0  0  0
   -4.4337   -1.3042   -0.8728 H   0  0  0  0  0  0  0  0  0  0  0  0
   -6.7195   -0.5234   -1.2370 H   0  0  0  0  0  0  0  0  0  0  0  0
   -7.4082    1.6703   -0.4243 H   0  0  0  0  0  0  0  0  0  0  0  0
   -5.8355    3.1480    0.7739 H   0  0  0  0  0  0  0  0  0  0  0  0
   -1.5950    1.3042   -1.0694 H   0  0  0  0  0  0  0  0  0  0  0  0
    0.6326    0.4402   -0.8602 H   0  0  0  0  0  0  0  0  0  0  0  0
  1  2  1  0
  2  3  1  0
  3  4  1  0
  4  5  1  0
  5  6  2  0
  6  7  1  0
  7  8  1  0
  7  9  2  0
  9 10  1  0
 10 11  1  0
  9 12  1  0
 12 13  1  0
 13 14  1  0
 14 15  2  0
 15 16  1  0
 16 17  2  0
 17 18  1  0
 18 19  2  0
 19 20  1  0
 20 21  2  0
 21 22  1  0
 22 23  2  0
 23 24  1  0
 24 25  1  0
 25 26  2  0
 26 27  1  0
 27 28  1  0
 17 29  1  0
 29 30  2  0
 12  5  1  0
 30 14  1  0
 23 18  1  0
 28 24  2  0
  1 31  1  0
  1 32  1  0
  1 33  1  0
  2 34  1  0
  2 35  1  0
  3 36  1  0
  3 37  1  0
  4 38  1  0
  4 39  1  0
 10 40  1  0
 10 41  1  0
 11 42  1  0
 13 43  1  0
 13 44  1  0
 15 45  1  0
 16 46  1  0
 19 47  1  0
 20 48  1  0
 21 49  1  0
 22 50  1  0
 29 51  1  0
 30 52  1  0
M  CHG  1  27  -1
M  END
$$$$
