@<TRIPOS>MOLECULE
*****
 35 37 0 0 0
SMALL
GASTEIGER

@<TRIPOS>ATOM
      1 O          -8.0158   -0.0776   -0.3909 O.2     1  UNL1       -0.2703
      2 C          -6.8022   -0.1214   -0.0610 C.2     1  UNL1        0.2700
      3 C          -6.1758    0.9932    0.7187 C.3     1  UNL1        0.1685
      4 O          -4.8233    1.0821    0.3178 O.2     1  UNL1       -0.4656
      5 C          -4.0192    0.0079   -0.0091 C.2     1  UNL1        0.2379
      6 C          -2.5435    0.1327    0.0363 C.ar    1  UNL1        0.0378
      7 C          -1.9090    1.2956    0.3971 C.ar    1  UNL1       -0.0489
      8 C          -0.5253    1.4014    0.4362 C.ar    1  UNL1       -0.0539
      9 C           0.2670    0.3028    0.1018 C.ar    1  UNL1       -0.0250
     10 C           1.7143    0.4789    0.1627 C.2     1  UNL1       -0.0540
     11 C           2.5995   -0.4562   -0.1209 C.2     1  UNL1       -0.0540
     12 C           4.0460   -0.2850   -0.0615 C.ar    1  UNL1       -0.0223
     13 C           4.8219   -1.3933   -0.3990 C.ar    1  UNL1       -0.0544
     14 C           6.1919   -1.3952   -0.3931 C.ar    1  UNL1       -0.0585
     15 C           6.8143   -0.2193   -0.0282 C.ar    1  UNL1       -0.0264
     16 C           6.0760    0.8889    0.3094 C.ar    1  UNL1        0.1240
     17 F           6.6774    2.0586    0.6723 F       1  UNL1       -0.2055
     18 C           4.6919    0.8539    0.2921 C.ar    1  UNL1       -0.0193
     19 C          -0.3770   -0.8435   -0.2541 C.ar    1  UNL1       -0.0539
     20 C          -1.7740   -0.9541   -0.2946 C.ar    1  UNL1       -0.0489
     21 N          -4.5536   -1.1092   -0.3553 N.2     1  UNL1       -0.1417
     22 N          -5.9399   -1.2072   -0.3917 N.am    1  UNL1       -0.2008
     23 H          -6.7244    1.9327    0.4229 H       1  UNL1        0.0796
     24 H          -6.2628    0.8262    1.8036 H       1  UNL1        0.0796
     25 H          -2.5183    2.1489    0.6569 H       1  UNL1        0.0625
     26 H          -0.0348    2.3244    0.7225 H       1  UNL1        0.0624
     27 H           2.1404    1.4397    0.4604 H       1  UNL1        0.0624
     28 H           2.1856   -1.4136   -0.4175 H       1  UNL1        0.0624
     29 H           4.3445   -2.3368   -0.6916 H       1  UNL1        0.0623
     30 H           6.8179   -2.2355   -0.6488 H       1  UNL1        0.0619
     31 H           7.9045   -0.1507   -0.0020 H       1  UNL1        0.0646
     32 H           4.1047    1.7409    0.5624 H       1  UNL1        0.0652
     33 H           0.2202   -1.7092   -0.5177 H       1  UNL1        0.0624
     34 H          -2.2313   -1.8924   -0.5856 H       1  UNL1        0.0625
     35 H          -6.3877   -2.1090   -0.6716 H       1  UNL1        0.1775
@<TRIPOS>BOND
     1     1     2    2
     2     2     3    1
     3     3     4    1
     4     4     5    1
     5     5     6    1
     6     6     7   ar
     7     7     8   ar
     8     8     9   ar
     9     9    10    1
    10    10    11    2
    11    11    12    1
    12    12    13   ar
    13    13    14   ar
    14    14    15   ar
    15    15    16   ar
    16    16    17    1
    17    16    18   ar
    18     9    19   ar
    19    19    20   ar
    20     5    21    2
    21    21    22    1
    22    22     2   am
    23    20     6   ar
    24    18    12   ar
    25     3    23    1
    26     3    24    1
    27     7    25    1
    28     8    26    1
    29    10    27    1
    30    11    28    1
    31    13    29    1
    32    14    30    1
    33    15    31    1
    34    18    32    1
    35    19    33    1
    36    20    34    1
    37    22    35    1
