@<TRIPOS>MOLECULE
*****
 55 60 0 0 0
SMALL
GASTEIGER

@<TRIPOS>ATOM
      1 N          -1.0563   -2.9709    1.6093 N.pl3   1  UNL1       -0.3134
      2 C          -1.1184   -2.0433    0.5230 C.2     1  UNL1        0.2763
      3 N          -0.8680   -0.8053    0.6425 N.2     1  UNL1       -0.2205
      4 C          -0.9122    0.1901   -0.4142 C.3     1  UNL1        0.1264
      5 C          -1.0653   -0.4207   -1.7788 C.3     1  UNL1        0.0155
      6 C          -0.8074   -1.8866   -1.8721 C.3     1  UNL1        0.0953
      7 O          -1.4738   -2.5054   -0.7587 O.2     1  UNL1       -0.4658
      8 C           0.3297    1.0089   -0.4142 C.ar    1  UNL1        0.0287
      9 C           1.5768    0.4362   -0.5928 C.ar    1  UNL1       -0.0312
     10 C           2.7571    1.1432   -0.6054 C.ar    1  UNL1        0.0343
     11 N           4.0186    0.4912   -0.7953 N.am    1  UNL1       -0.2802
     12 C           4.8191   -0.0157    0.2487 C.2     1  UNL1        0.2666
     13 O           4.3463    0.1404    1.4234 O.2     1  UNL1       -0.2682
     14 C           6.0863   -0.6718    0.0733 C.ar    1  UNL1        0.1257
     15 C           6.7800   -1.1259    1.1646 C.ar    1  UNL1       -0.0298
     16 C           7.9972   -1.7602    1.0464 C.ar    1  UNL1       -0.0397
     17 C           8.5336   -1.9440   -0.2032 C.ar    1  UNL1        0.0591
     18 CL         10.0826   -2.7452   -0.4290 Cl      1  UNL1       -0.0820
     19 C           7.8097   -1.4731   -1.3052 C.ar    1  UNL1        0.0467
     20 N           6.6043   -0.8485   -1.1425 N.ar    1  UNL1       -0.2489
     21 C           2.7182    2.5094   -0.4308 C.ar    1  UNL1       -0.0370
     22 C           1.4954    3.1118   -0.2503 C.ar    1  UNL1       -0.0172
     23 C           0.3106    2.3660   -0.2422 C.ar    1  UNL1        0.1344
     24 O          -0.8450    3.0722   -0.0533 O.3     1  UNL1       -0.4538
     25 C          -2.0615    2.4117   -0.0305 C.ar    1  UNL1        0.1523
     26 C          -3.1983    3.1663    0.1636 C.ar    1  UNL1        0.0708
     27 N          -4.3786    2.5739    0.1925 N.ar    1  UNL1       -0.2513
     28 C          -4.4594    1.2220    0.0299 C.ar    1  UNL1        0.0717
     29 C          -5.7841    0.6225    0.0706 C.ar    1  UNL1        0.0060
     30 C          -5.9761   -0.7344   -0.0829 C.ar    1  UNL1       -0.0342
     31 C          -7.2726   -1.2386   -0.0327 C.ar    1  UNL1        0.0313
     32 N          -8.3125   -0.4222    0.1607 N.ar    1  UNL1       -0.2276
     33 C          -8.1263    0.9037    0.3108 C.ar    1  UNL1        0.2138
     34 F          -9.1683    1.7602    0.5094 F       1  UNL1       -0.1839
     35 C          -6.8706    1.4541    0.2700 C.ar    1  UNL1        0.0019
     36 C          -3.3411    0.4621   -0.1633 C.ar    1  UNL1       -0.0264
     37 C          -2.0905    1.0595   -0.1977 C.ar    1  UNL1        0.0304
     38 H          -0.2254   -3.6117    1.7334 H       1  UNL1        0.1466
     39 H          -1.8058   -3.0679    2.3239 H       1  UNL1        0.1466
     40 H          -2.0890   -0.2481   -2.1830 H       1  UNL1        0.0328
     41 H          -0.3797    0.1075   -2.4950 H       1  UNL1        0.0328
     42 H          -1.3184   -2.2502   -2.8132 H       1  UNL1        0.0698
     43 H           0.2541   -2.1723   -1.8889 H       1  UNL1        0.0698
     44 H           1.6587   -0.6428   -0.7327 H       1  UNL1        0.0641
     45 H           4.3557    0.3913   -1.7746 H       1  UNL1        0.1552
     46 H           6.3821   -0.9970    2.1831 H       1  UNL1        0.0641
     47 H           8.5325   -2.1118    1.9027 H       1  UNL1        0.0633
     48 H           8.2539   -1.6304   -2.2745 H       1  UNL1        0.0844
     49 H           3.6198    3.1102   -0.4329 H       1  UNL1        0.0637
     50 H           1.4644    4.1957   -0.1118 H       1  UNL1        0.0655
     51 H          -3.1386    4.2352    0.2925 H       1  UNL1        0.0867
     52 H          -5.1435   -1.4115   -0.2407 H       1  UNL1        0.0639
     53 H          -7.3652   -2.3092   -0.1589 H       1  UNL1        0.0831
     54 H          -6.7351    2.5126    0.3910 H       1  UNL1        0.0669
     55 H          -3.3997   -0.5932   -0.2906 H       1  UNL1        0.0644
@<TRIPOS>BOND
     1     1     2    1
     2     2     3    2
     3     3     4    1
     4     4     5    1
     5     5     6    1
     6     6     7    1
     7     4     8    1
     8     8     9   ar
     9     9    10   ar
    10    10    11    1
    11    11    12   am
    12    12    13    2
    13    12    14    1
    14    14    15   ar
    15    15    16   ar
    16    16    17   ar
    17    17    18    1
    18    17    19   ar
    19    19    20   ar
    20    10    21   ar
    21    21    22   ar
    22    22    23   ar
    23    23    24    1
    24    24    25    1
    25    25    26   ar
    26    26    27   ar
    27    27    28   ar
    28    28    29    1
    29    29    30   ar
    30    30    31   ar
    31    31    32   ar
    32    32    33   ar
    33    33    34    1
    34    33    35   ar
    35    28    36   ar
    36    36    37   ar
    37     7     2    1
    38    23     8   ar
    39    37    25   ar
    40    37     4    1
    41    20    14   ar
    42    35    29   ar
    43     1    38    1
    44     1    39    1
    45     5    40    1
    46     5    41    1
    47     6    42    1
    48     6    43    1
    49     9    44    1
    50    11    45    1
    51    15    46    1
    52    16    47    1
    53    19    48    1
    54    21    49    1
    55    22    50    1
    56    26    51    1
    57    30    52    1
    58    31    53    1
    59    35    54    1
    60    36    55    1
