
     RDKit          3D

 55 60  0  0  0  0  0  0  0  0999 V2000
   -1.0563   -2.9709    1.6093 N   0  0  0  0  0  0  0  0  0  0  0  0
   -1.1184   -2.0433    0.5230 C   0  0  0  0  0  0  0  0  0  0  0  0
   -0.8680   -0.8053    0.6425 N   0  0  0  0  0  0  0  0  0  0  0  0
   -0.9122    0.1901   -0.4142 C   0  0  0  0  0  0  0  0  0  0  0  0
   -1.0653   -0.4207   -1.7788 C   0  0  0  0  0  0  0  0  0  0  0  0
   -0.8074   -1.8866   -1.8721 C   0  0  0  0  0  0  0  0  0  0  0  0
   -1.4738   -2.5054   -0.7587 O   0  0  0  0  0  0  0  0  0  0  0  0
    0.3297    1.0089   -0.4142 C   0  0  0  0  0  0  0  0  0  0  0  0
    1.5768    0.4362   -0.5928 C   0  0  0  0  0  0  0  0  0  0  0  0
    2.7571    1.1432   -0.6054 C   0  0  0  0  0  0  0  0  0  0  0  0
    4.0186    0.4912   -0.7953 N   0  0  0  0  0  0  0  0  0  0  0  0
    4.8191   -0.0157    0.2487 C   0  0  0  0  0  0  0  0  0  0  0  0
    4.3463    0.1404    1.4234 O   0  0  0  0  0  0  0  0  0  0  0  0
    6.0863   -0.6718    0.0733 C   0  0  0  0  0  0  0  0  0  0  0  0
    6.7800   -1.1259    1.1646 C   0  0  0  0  0  0  0  0  0  0  0  0
    7.9972   -1.7602    1.0464 C   0  0  0  0  0  0  0  0  0  0  0  0
    8.5336   -1.9440   -0.2032 C   0  0  0  0  0  0  0  0  0  0  0  0
   10.0826   -2.7452   -0.4290 Cl  0  0  0  0  0  0  0  0  0  0  0  0
    7.8097   -1.4731   -1.3052 C   0  0  0  0  0  0  0  0  0  0  0  0
    6.6043   -0.8485   -1.1425 N   0  0  0  0  0  0  0  0  0  0  0  0
    2.7182    2.5094   -0.4308 C   0  0  0  0  0  0  0  0  0  0  0  0
    1.4954    3.1118   -0.2503 C   0  0  0  0  0  0  0  0  0  0  0  0
    0.3106    2.3660   -0.2422 C   0  0  0  0  0  0  0  0  0  0  0  0
   -0.8450    3.0722   -0.0533 O   0  0  0  0  0  0  0  0  0  0  0  0
   -2.0615    2.4117   -0.0305 C   0  0  0  0  0  0  0  0  0  0  0  0
   -3.1983    3.1663    0.1636 C   0  0  0  0  0  0  0  0  0  0  0  0
   -4.3786    2.5739    0.1925 N   0  0  0  0  0  0  0  0  0  0  0  0
   -4.4594    1.2220    0.0299 C   0  0  0  0  0  0  0  0  0  0  0  0
   -5.7841    0.6225    0.0706 C   0  0  0  0  0  0  0  0  0  0  0  0
   -5.9761   -0.7344   -0.0829 C   0  0  0  0  0  0  0  0  0  0  0  0
   -7.2726   -1.2386   -0.0327 C   0  0  0  0  0  0  0  0  0  0  0  0
   -8.3125   -0.4222    0.1607 N   0  0  0  0  0  0  0  0  0  0  0  0
   -8.1263    0.9037    0.3108 C   0  0  0  0  0  0  0  0  0  0  0  0
   -9.1683    1.7602    0.5094 F   0  0  0  0  0  0  0  0  0  0  0  0
   -6.8706    1.4541    0.2700 C   0  0  0  0  0  0  0  0  0  0  0  0
   -3.3411    0.4621   -0.1633 C   0  0  0  0  0  0  0  0  0  0  0  0
   -2.0905    1.0595   -0.1977 C   0  0  0  0  0  0  0  0  0  0  0  0
   -0.2254   -3.6117    1.7334 H   0  0  0  0  0  0  0  0  0  0  0  0
   -1.8058   -3.0679    2.3239 H   0  0  0  0  0  0  0  0  0  0  0  0
   -2.0890   -0.2481   -2.1830 H   0  0  0  0  0  0  0  0  0  0  0  0
   -0.3797    0.1075   -2.4950 H   0  0  0  0  0  0  0  0  0  0  0  0
   -1.3184   -2.2502   -2.8132 H   0  0  0  0  0  0  0  0  0  0  0  0
    0.2541   -2.1723   -1.8889 H   0  0  0  0  0  0  0  0  0  0  0  0
    1.6587   -0.6428   -0.7327 H   0  0  0  0  0  0  0  0  0  0  0  0
    4.3557    0.3913   -1.7746 H   0  0  0  0  0  0  0  0  0  0  0  0
    6.3821   -0.9970    2.1831 H   0  0  0  0  0  0  0  0  0  0  0  0
    8.5325   -2.1118    1.9027 H   0  0  0  0  0  0  0  0  0  0  0  0
    8.2539   -1.6304   -2.2745 H   0  0  0  0  0  0  0  0  0  0  0  0
    3.6198    3.1102   -0.4329 H   0  0  0  0  0  0  0  0  0  0  0  0
    1.4644    4.1957   -0.1118 H   0  0  0  0  0  0  0  0  0  0  0  0
   -3.1386    4.2352    0.2925 H   0  0  0  0  0  0  0  0  0  0  0  0
   -5.1435   -1.4115   -0.2407 H   0  0  0  0  0  0  0  0  0  0  0  0
   -7.3652   -2.3092   -0.1589 H   0  0  0  0  0  0  0  0  0  0  0  0
   -6.7351    2.5126    0.3910 H   0  0  0  0  0  0  0  0  0  0  0  0
   -3.3997   -0.5932   -0.2906 H   0  0  0  0  0  0  0  0  0  0  0  0
  1  2  1  0
  2  3  2  0
  3  4  1  0
  4  5  1  0
  5  6  1  0
  6  7  1  0
  4  8  1  0
  8  9  2  0
  9 10  1  0
 10 11  1  0
 11 12  1  0
 12 13  2  0
 12 14  1  0
 14 15  2  0
 15 16  1  0
 16 17  2  0
 17 18  1  0
 17 19  1  0
 19 20  2  0
 10 21  2  0
 21 22  1  0
 22 23  2  0
 23 24  1  0
 24 25  1  0
 25 26  2  0
 26 27  1  0
 27 28  2  0
 28 29  1  0
 29 30  2  0
 30 31  1  0
 31 32  2  0
 32 33  1  0
 33 34  1  0
 33 35  2  0
 28 36  1  0
 36 37  2  0
  7  2  1  0
 23  8  1  0
 37 25  1  0
 37  4  1  0
 20 14  1  0
 35 29  1  0
  1 38  1  0
  1 39  1  0
  5 40  1  0
  5 41  1  0
  6 42  1  0
  6 43  1  0
  9 44  1  0
 11 45  1  0
 15 46  1  0
 16 47  1  0
 19 48  1  0
 21 49  1  0
 22 50  1  0
 26 51  1  0
 30 52  1  0
 31 53  1  0
 35 54  1  0
 36 55  1  0
M  END
$$$$
