@<TRIPOS>MOLECULE
*****
 44 45 0 0 0
SMALL
GASTEIGER

@<TRIPOS>ATOM
      1 CA         -5.0626    0.7352   -1.9785 C.3     1  UNL1        0.1037
      2 N          -5.6385   -0.6079   -2.0521 N.3     1  UNL1       -0.3184
      3 C          -5.3115    1.2412   -0.6006 C.3     1  UNL1       -0.0191
      4 C          -4.7311    0.3959    0.4585 C.3     1  UNL1        0.0262
      5 C          -3.2591    0.2760    0.4814 C.2     1  UNL1        0.2173
      6 O          -2.0538    0.5016    0.1535 O.2     1  UNL1       -0.2755
      7 N          -2.8478   -0.7014    1.4906 N.am    1  UNL1       -0.2855
      8 C          -1.3980   -0.6658    1.3475 C.ar    1  UNL1        0.0336
      9 C          -0.7927   -1.5023    0.3957 C.ar    1  UNL1       -0.0370
     10 C           0.6008   -1.4200    0.2896 C.ar    1  UNL1       -0.0182
     11 C           1.3478   -0.5614    1.0786 C.ar    1  UNL1        0.1211
     12 O           2.6854   -0.6770    0.7701 O.3     1  UNL1       -0.4874
     13 C           3.7478    0.0115    1.3493 C.3     1  UNL1        0.1146
     14 C           4.9865   -0.4675    0.6392 C.ar    1  UNL1       -0.0104
     15 C           5.7555   -1.5452    1.0240 C.ar    1  UNL1       -0.0554
     16 C           6.8552   -1.8606    0.2771 C.ar    1  UNL1       -0.0614
     17 C           7.1765   -1.1032   -0.8400 C.ar    1  UNL1       -0.0617
     18 C           6.4250   -0.0044   -1.2636 C.ar    1  UNL1       -0.0614
     19 C           5.3190    0.2699   -0.4665 C.ar    1  UNL1       -0.0554
     20 C           0.7178    0.2542    2.0139 C.ar    1  UNL1       -0.0182
     21 C          -0.6533    0.1865    2.1325 C.ar    1  UNL1       -0.0370
     22 C          -3.6592    0.7295   -2.3754 C.2     1  UNL1        0.3217
     23 O          -2.3615    0.4854   -2.7770 O.3     1  UNL1       -0.4795
     24 OXT        -3.5562   -0.5028   -2.5812 O.2     1  UNL1       -0.2493
     25 HA         -5.6695    1.3802   -2.6969 H       1  UNL1        0.0574
     26 H1         -6.6219   -0.6399   -1.7094 H       1  UNL1        0.1190
     27 H2         -5.0780   -1.2738   -1.5072 H       1  UNL1        0.1190
     28 H          -4.9716    2.3051   -0.4855 H       1  UNL1        0.0290
     29 H          -6.4191    1.3059   -0.4433 H       1  UNL1        0.0290
     30 H          -5.2014   -0.6365    0.4669 H       1  UNL1        0.0359
     31 H          -5.0368    0.7930    1.4776 H       1  UNL1        0.0359
     32 H          -3.3667   -1.3108    2.1818 H       1  UNL1        0.1548
     33 H          -1.4379   -2.1389   -0.1807 H       1  UNL1        0.0637
     34 H           0.9486   -2.1060   -0.4726 H       1  UNL1        0.0655
     35 H           3.6270    1.0996    1.2038 H       1  UNL1        0.0748
     36 H           3.9043   -0.1812    2.4288 H       1  UNL1        0.0748
     37 H           5.4521   -2.0873    1.8964 H       1  UNL1        0.0621
     38 H           7.4932   -2.6845    0.5209 H       1  UNL1        0.0618
     39 H           8.0474   -1.3264   -1.4630 H       1  UNL1        0.0618
     40 H           6.7016    0.5654   -2.1404 H       1  UNL1        0.0618
     41 H           4.7391    1.1295   -0.8136 H       1  UNL1        0.0621
     42 H           1.3945    0.8693    2.5689 H       1  UNL1        0.0655
     43 H          -1.1119    0.8308    2.8690 H       1  UNL1        0.0637
     44 H          -1.6850    1.2478   -2.6682 H       1  UNL1        0.2951
@<TRIPOS>BOND
     1     1     2    1
     2     1     3    1
     3     3     4    1
     4     4     5    1
     5     5     6    2
     6     5     7   am
     7     7     8    1
     8     8     9   ar
     9     9    10   ar
    10    10    11   ar
    11    11    12    1
    12    12    13    1
    13    13    14    1
    14    14    15   ar
    15    15    16   ar
    16    16    17   ar
    17    17    18   ar
    18    18    19   ar
    19    11    20   ar
    20    20    21   ar
    21     1    22    1
    22    22    23    1
    23    22    24    2
    24    21     8   ar
    25    19    14   ar
    26     1    25    1
    27     2    26    1
    28     2    27    1
    29     3    28    1
    30     3    29    1
    31     4    30    1
    32     4    31    1
    33     7    32    1
    34     9    33    1
    35    10    34    1
    36    13    35    1
    37    13    36    1
    38    15    37    1
    39    16    38    1
    40    17    39    1
    41    18    40    1
    42    19    41    1
    43    20    42    1
    44    21    43    1
    45    23    44    1
