@<TRIPOS>MOLECULE
*****
 38 40 0 0 0
SMALL
GASTEIGER

@<TRIPOS>ATOM
      1 O          -4.9302   -3.1238   -1.5386 O.3     1  UNL1       -0.4783
      2 C          -4.0505   -2.4673   -0.7050 C.2     1  UNL1        0.3427
      3 O          -4.4017   -2.6189    0.5031 O.2     1  UNL1       -0.2472
      4 C          -2.8914   -1.7218   -1.2939 C.3     1  UNL1        0.1857
      5 O          -2.1442   -1.0545   -0.3354 O.3     1  UNL1       -0.4800
      6 C          -2.6929   -0.0069    0.4863 C.ar    1  UNL1        0.1361
      7 C          -3.9645    0.4251    0.3840 C.ar    1  UNL1        0.0161
      8 C          -4.2564    1.4397    1.2872 C.ar    1  UNL1        0.1269
      9 F          -5.5280    1.8107    1.1257 F       1  UNL1       -0.2054
     10 C          -3.2046    1.8376    2.1356 C.ar    1  UNL1       -0.0255
     11 C          -1.9458    1.1677    1.9900 C.ar    1  UNL1       -0.0434
     12 C          -1.5154    0.0561    1.0476 C.ar    1  UNL1        0.0785
     13 C          -0.2524    0.1237    1.6497 C.2     1  UNL1        0.2479
     14 O          -0.0825   -0.8113    0.8080 O.2     1  UNL1       -0.2701
     15 N           0.7177    0.5774    2.5110 N.am    1  UNL1       -0.3051
     16 C           1.9885   -0.0658    2.4445 C.3     1  UNL1        0.0607
     17 C           2.6669    0.0467    1.1132 C.ar    1  UNL1        0.0968
     18 N           2.8437   -0.4101    0.0936 N.ar    1  UNL1       -0.2393
     19 C           3.5522   -0.0447   -0.9493 C.ar    1  UNL1        0.1192
     20 C           4.2218    1.1364   -0.7783 C.ar    1  UNL1        0.0774
     21 S           3.7438    1.5927    0.8981 S.2     1  UNL1       -0.0675
     22 C           5.0605    1.8190   -1.6606 C.ar    1  UNL1        0.1420
     23 F           5.6560    2.9884   -1.3444 F       1  UNL1       -0.2042
     24 C           5.2414    1.1996   -2.9078 C.ar    1  UNL1        0.0129
     25 C           4.5684   -0.0130   -3.1144 C.ar    1  UNL1        0.1633
     26 F           4.7829   -0.5680   -4.3476 F       1  UNL1       -0.2023
     27 C           3.7655   -0.6162   -2.1989 C.ar    1  UNL1        0.1849
     28 F           3.1868   -1.8108   -2.5717 F       1  UNL1       -0.2002
     29 H          -5.5069   -3.8956   -1.2754 H       1  UNL1        0.2952
     30 H          -3.2369   -1.0784   -2.1256 H       1  UNL1        0.0815
     31 H          -2.2544   -2.4989   -1.7677 H       1  UNL1        0.0815
     32 H          -4.5080   -0.0869   -0.3824 H       1  UNL1        0.0683
     33 H          -3.7064    2.6269    2.7250 H       1  UNL1        0.0646
     34 H          -1.5549    1.8332    2.8298 H       1  UNL1        0.0627
     35 H           0.2504    1.3355    3.0346 H       1  UNL1        0.1494
     36 H           2.6292    0.3932    3.2335 H       1  UNL1        0.0532
     37 H           1.8784   -1.1760    2.6449 H       1  UNL1        0.0532
     38 H           5.8742    1.6594   -3.6479 H       1  UNL1        0.0676
@<TRIPOS>BOND
     1     1     2    1
     2     2     3    2
     3     2     4    1
     4     4     5    1
     5     5     6    1
     6     6     7   ar
     7     7     8   ar
     8     8     9    1
     9     8    10   ar
    10    10    11   ar
    11    11    12   ar
    12    12    13    1
    13    13    14    2
    14    13    15   am
    15    15    16    1
    16    16    17    1
    17    17    18   ar
    18    18    19   ar
    19    19    20   ar
    20    20    21   ar
    21    20    22   ar
    22    22    23    1
    23    22    24   ar
    24    24    25   ar
    25    25    26    1
    26    25    27   ar
    27    27    28    1
    28    12     6   ar
    29    21    17   ar
    30    27    19   ar
    31     1    29    1
    32     4    30    1
    33     4    31    1
    34     7    32    1
    35    10    33    1
    36    11    34    1
    37    15    35    1
    38    16    36    1
    39    16    37    1
    40    24    38    1
