@<TRIPOS>MOLECULE
*****
 48 50 0 0 0
SMALL
GASTEIGER

@<TRIPOS>ATOM
      1 C           8.8460    0.5974    1.0547 C.3     1  UNL1        0.0789
      2 O           8.0010   -0.5210    0.9776 O.3     1  UNL1       -0.4936
      3 C           6.6789   -0.3725    0.5842 C.ar    1  UNL1        0.1381
      4 C           6.1833    0.8714    0.2659 C.ar    1  UNL1       -0.0163
      5 C           4.8464    0.9680   -0.1242 C.ar    1  UNL1       -0.0277
      6 C           4.0189   -0.1266   -0.1998 C.ar    1  UNL1        0.1259
      7 C           2.6403    0.0704   -0.6161 C.2     1  UNL1        0.2666
      8 O           2.2118    1.2107   -0.9005 O.2     1  UNL1       -0.2682
      9 N           1.6955   -0.9910   -0.7294 N.am    1  UNL1       -0.2802
     10 C           0.3448   -0.7958   -1.1376 C.ar    1  UNL1        0.0341
     11 C           0.0006   -0.8630   -2.4715 C.ar    1  UNL1       -0.0404
     12 C          -1.2868   -0.6838   -2.9331 C.ar    1  UNL1       -0.0597
     13 C          -2.2716   -0.4222   -1.9739 C.ar    1  UNL1       -0.0561
     14 C          -1.9807   -0.3447   -0.6275 C.ar    1  UNL1       -0.0156
     15 C          -3.0776   -0.0540    0.3443 C.3     1  UNL1        0.1232
     16 C          -2.5356   -0.1131    1.7738 C.3     1  UNL1        0.1196
     17 F          -2.0298   -1.3369    2.0838 F       1  UNL1       -0.2462
     18 C          -4.1614   -1.0765    0.2550 C.3     1  UNL1        0.0250
     19 C          -5.5231   -0.5738   -0.0579 C.3     1  UNL1        0.1998
     20 C          -6.3895   -0.2560    1.1222 C.3     1  UNL1        0.4266
     21 F          -5.8937    0.7034    1.9547 F       1  UNL1       -0.1669
     22 F          -6.7197   -1.3853    1.8530 F       1  UNL1       -0.1669
     23 F          -7.5949    0.2315    0.6158 F       1  UNL1       -0.1669
     24 O          -5.4962    0.5718   -0.8843 O.2     1  UNL1       -0.4534
     25 C          -4.6390    1.5958   -0.5245 C.2     1  UNL1        0.2766
     26 N          -4.9856    2.9680   -0.7787 N.pl3   1  UNL1       -0.3134
     27 N          -3.5336    1.2840    0.0387 N.2     1  UNL1       -0.2229
     28 C          -0.6788   -0.5330   -0.2375 C.ar    1  UNL1       -0.0349
     29 N           4.5403   -1.3190    0.1184 N.ar    1  UNL1       -0.2467
     30 C           5.8312   -1.4569    0.5015 C.ar    1  UNL1        0.0700
     31 H           9.9069    0.2528    1.1551 H       1  UNL1        0.0660
     32 H           8.7655    1.2453    0.1655 H       1  UNL1        0.0660
     33 H           8.6290    1.1407    2.0096 H       1  UNL1        0.0660
     34 H           6.7938    1.7480    0.3117 H       1  UNL1        0.0655
     35 H           4.4675    1.9390   -0.3704 H       1  UNL1        0.0641
     36 H           2.0236   -1.9512   -0.4990 H       1  UNL1        0.1552
     37 H           0.7860   -1.0673   -3.1903 H       1  UNL1        0.0636
     38 H          -1.5572   -0.7365   -3.9812 H       1  UNL1        0.0618
     39 H          -3.2973   -0.2737   -2.2776 H       1  UNL1        0.0621
     40 H          -1.7197    0.6615    1.8432 H       1  UNL1        0.0643
     41 H          -3.3177    0.1551    2.4865 H       1  UNL1        0.0643
     42 H          -4.1919   -1.7385    1.1515 H       1  UNL1        0.0331
     43 H          -3.8759   -1.7893   -0.5785 H       1  UNL1        0.0331
     44 H          -6.0726   -1.3839   -0.6229 H       1  UNL1        0.0826
     45 H          -5.3292    3.2211   -1.7191 H       1  UNL1        0.1466
     46 H          -4.8746    3.6374   -0.0077 H       1  UNL1        0.1466
     47 H          -0.4018   -0.4784    0.7896 H       1  UNL1        0.0640
     48 H           6.2242   -2.4296    0.7519 H       1  UNL1        0.0867
@<TRIPOS>BOND
     1     1     2    1
     2     2     3    1
     3     3     4   ar
     4     4     5   ar
     5     5     6   ar
     6     6     7    1
     7     7     8    2
     8     7     9   am
     9     9    10    1
    10    10    11   ar
    11    11    12   ar
    12    12    13   ar
    13    13    14   ar
    14    14    15    1
    15    15    16    1
    16    16    17    1
    17    15    18    1
    18    18    19    1
    19    19    20    1
    20    20    21    1
    21    20    22    1
    22    20    23    1
    23    19    24    1
    24    24    25    1
    25    25    26    1
    26    25    27    2
    27    14    28   ar
    28     6    29   ar
    29    29    30   ar
    30    30     3   ar
    31    28    10   ar
    32    27    15    1
    33     1    31    1
    34     1    32    1
    35     1    33    1
    36     4    34    1
    37     5    35    1
    38     9    36    1
    39    11    37    1
    40    12    38    1
    41    13    39    1
    42    16    40    1
    43    16    41    1
    44    18    42    1
    45    18    43    1
    46    19    44    1
    47    26    45    1
    48    26    46    1
    49    28    47    1
    50    30    48    1
