
     RDKit          3D

 43 44  0  0  0  0  0  0  0  0999 V2000
   -2.8630   -1.8339    1.8742 C   0  0  0  0  0  0  0  0  0  0  0  0
   -1.5324   -2.4283    1.4008 C   0  0  0  0  0  0  0  0  0  0  0  0
   -1.2132   -3.5548    2.3281 C   0  0  0  0  0  0  0  0  0  0  0  0
   -1.7432   -2.8573   -0.0422 C   0  0  1  0  0  0  0  0  0  0  0  0
   -0.5802   -3.4284   -0.6462 N   0  0  0  0  0  0  0  0  0  0  0  0
   -0.0742   -2.4596   -1.9577 S   0  0  0  0  0  6  0  0  0  0  0  0
   -1.1633   -2.3930   -3.0215 O   0  0  0  0  0  0  0  0  0  0  0  0
    1.1086   -3.1091   -2.6594 O   0  0  0  0  0  0  0  0  0  0  0  0
    0.3829   -0.8419   -1.5163 C   0  0  0  0  0  0  0  0  0  0  0  0
   -0.4693    0.2290   -1.4292 C   0  0  0  0  0  0  0  0  0  0  0  0
    0.0163    1.4826   -1.0706 C   0  0  0  0  0  0  0  0  0  0  0  0
    1.3423    1.7265   -0.7880 C   0  0  0  0  0  0  0  0  0  0  0  0
    1.8355    3.0202   -0.4135 C   0  0  0  0  0  0  0  0  0  0  0  0
    1.0331    3.8909    0.3152 C   0  0  0  0  0  0  0  0  0  0  0  0
    1.5159    5.1353    0.6528 C   0  0  0  0  0  0  0  0  0  0  0  0
    2.7708    5.5707    0.3021 C   0  0  0  0  0  0  0  0  0  0  0  0
    3.2171    6.9032    0.6912 C   0  0  0  0  0  0  0  0  0  0  0  0
    3.5564    7.9652    1.0019 N   0  0  0  0  0  0  0  0  0  0  0  0
    3.5619    4.7087   -0.4177 C   0  0  0  0  0  0  0  0  0  0  0  0
    3.1184    3.4375   -0.7843 C   0  0  0  0  0  0  0  0  0  0  0  0
    2.2115    0.6309   -0.8778 C   0  0  0  0  0  0  0  0  0  0  0  0
    1.7207   -0.5916   -1.2300 C   0  0  0  0  0  0  0  0  0  0  0  0
   -2.9187   -3.7887   -0.1487 C   0  0  0  0  0  0  0  0  0  0  0  0
   -2.7447   -4.9270   -0.6870 O   0  0  0  0  0  0  0  0  0  0  0  0
   -4.1872   -3.4920    0.3010 O   0  0  0  0  0  0  0  0  0  0  0  0
   -2.6986   -1.1168    2.7251 H   0  0  0  0  0  0  0  0  0  0  0  0
   -3.4770   -2.6548    2.3333 H   0  0  0  0  0  0  0  0  0  0  0  0
   -3.3849   -1.3758    1.0134 H   0  0  0  0  0  0  0  0  0  0  0  0
   -0.7621   -1.6484    1.4580 H   0  0  0  0  0  0  0  0  0  0  0  0
   -0.1286   -3.6974    2.5272 H   0  0  0  0  0  0  0  0  0  0  0  0
   -1.6584   -3.3108    3.3326 H   0  0  0  0  0  0  0  0  0  0  0  0
   -1.6702   -4.5171    2.0407 H   0  0  0  0  0  0  0  0  0  0  0  0
   -2.0251   -1.9413   -0.5920 H   0  0  0  0  0  0  0  0  0  0  0  0
    0.1497   -3.7668   -0.0238 H   0  0  0  0  0  0  0  0  0  0  0  0
   -1.5300    0.0971   -1.6483 H   0  0  0  0  0  0  0  0  0  0  0  0
   -0.7102    2.2840   -1.0174 H   0  0  0  0  0  0  0  0  0  0  0  0
    0.0341    3.5741    0.6081 H   0  0  0  0  0  0  0  0  0  0  0  0
    0.9162    5.8590    1.2291 H   0  0  0  0  0  0  0  0  0  0  0  0
    4.5638    5.0154   -0.7215 H   0  0  0  0  0  0  0  0  0  0  0  0
    3.7437    2.7695   -1.3518 H   0  0  0  0  0  0  0  0  0  0  0  0
    3.2624    0.7711   -0.6637 H   0  0  0  0  0  0  0  0  0  0  0  0
    2.4600   -1.4105   -1.2803 H   0  0  0  0  0  0  0  0  0  0  0  0
   -4.9867   -3.9257   -0.1895 H   0  0  0  0  0  0  0  0  0  0  0  0
  1  2  1  0
  2  3  1  0
  2  4  1  0
  4  5  1  0
  5  6  1  0
  6  7  2  0
  6  8  2  0
  6  9  1  0
  9 10  2  0
 10 11  1  0
 11 12  2  0
 12 13  1  0
 13 14  2  0
 14 15  1  0
 15 16  2  0
 16 17  1  0
 17 18  3  0
 16 19  1  0
 19 20  2  0
 12 21  1  0
 21 22  2  0
  4 23  1  0
 23 24  2  0
 23 25  1  0
 22  9  1  0
 20 13  1  0
  1 26  1  0
  1 27  1  0
  1 28  1  0
  2 29  1  0
  3 30  1  0
  3 31  1  0
  3 32  1  0
  4 33  1  6
  5 34  1  0
 10 35  1  0
 11 36  1  0
 14 37  1  0
 15 38  1  0
 19 39  1  0
 20 40  1  0
 21 41  1  0
 22 42  1  0
 25 43  1  0
M  END
$$$$
