@<TRIPOS>MOLECULE
*****
 43 44 0 0 0
SMALL
GASTEIGER

@<TRIPOS>ATOM
      1 C          -2.8630   -1.8339    1.8742 C.3     1  UNL1       -0.0607
      2 C          -1.5324   -2.4283    1.4008 C.3     1  UNL1       -0.0194
      3 C          -1.2132   -3.5548    2.3281 C.3     1  UNL1       -0.0607
      4 C          -1.7432   -2.8573   -0.0422 C.3     1  UNL1        0.1276
      5 N          -0.5802   -3.4284   -0.6462 N.3     1  UNL1       -0.1759
      6 S          -0.0742   -2.4596   -1.9577 S.O2    1  UNL1        0.0591
      7 O          -1.1633   -2.3930   -3.0215 O.2     1  UNL1       -0.1530
      8 O           1.1086   -3.1091   -2.6594 O.2     1  UNL1       -0.1530
      9 C           0.3829   -0.8419   -1.5163 C.ar    1  UNL1        0.1053
     10 C          -0.4693    0.2290   -1.4292 C.ar    1  UNL1       -0.0348
     11 C           0.0163    1.4826   -1.0706 C.ar    1  UNL1       -0.0522
     12 C           1.3423    1.7265   -0.7880 C.ar    1  UNL1       -0.0178
     13 C           1.8355    3.0202   -0.4135 C.ar    1  UNL1       -0.0178
     14 C           1.0331    3.8909    0.3152 C.ar    1  UNL1       -0.0528
     15 C           1.5159    5.1353    0.6528 C.ar    1  UNL1       -0.0438
     16 C           2.7708    5.5707    0.3021 C.ar    1  UNL1        0.0518
     17 C           3.2171    6.9032    0.6912 C.1     1  UNL1        0.0992
     18 N           3.5564    7.9652    1.0019 N.1     1  UNL1       -0.1909
     19 C           3.5619    4.7087   -0.4177 C.ar    1  UNL1       -0.0438
     20 C           3.1184    3.4375   -0.7843 C.ar    1  UNL1       -0.0528
     21 C           2.2115    0.6309   -0.8778 C.ar    1  UNL1       -0.0522
     22 C           1.7207   -0.5916   -1.2300 C.ar    1  UNL1       -0.0348
     23 C          -2.9187   -3.7887   -0.1487 C.2     1  UNL1        0.3238
     24 O          -2.7447   -4.9270   -0.6870 O.2     1  UNL1       -0.2492
     25 O          -4.1872   -3.4920    0.3010 O.3     1  UNL1       -0.4795
     26 H          -2.6986   -1.1168    2.7251 H       1  UNL1        0.0233
     27 H          -3.4770   -2.6548    2.3333 H       1  UNL1        0.0233
     28 H          -3.3849   -1.3758    1.0134 H       1  UNL1        0.0233
     29 H          -0.7621   -1.6484    1.4580 H       1  UNL1        0.0316
     30 H          -0.1286   -3.6974    2.5272 H       1  UNL1        0.0233
     31 H          -1.6584   -3.3108    3.3326 H       1  UNL1        0.0233
     32 H          -1.6702   -4.5171    2.0407 H       1  UNL1        0.0233
     33 H          -2.0251   -1.9413   -0.5920 H       1  UNL1        0.0595
     34 H           0.1497   -3.7668   -0.0238 H       1  UNL1        0.1489
     35 H          -1.5300    0.0971   -1.6483 H       1  UNL1        0.0637
     36 H          -0.7102    2.2840   -1.0174 H       1  UNL1        0.0624
     37 H           0.0341    3.5741    0.6081 H       1  UNL1        0.0624
     38 H           0.9162    5.8590    1.2291 H       1  UNL1        0.0631
     39 H           4.5638    5.0154   -0.7215 H       1  UNL1        0.0631
     40 H           3.7437    2.7695   -1.3518 H       1  UNL1        0.0624
     41 H           3.2624    0.7711   -0.6637 H       1  UNL1        0.0624
     42 H           2.4600   -1.4105   -1.2803 H       1  UNL1        0.0637
     43 H          -4.9867   -3.9257   -0.1895 H       1  UNL1        0.2951
@<TRIPOS>BOND
     1     1     2    1
     2     2     3    1
     3     2     4    1
     4     4     5    1
     5     5     6    1
     6     6     7    2
     7     6     8    2
     8     6     9    1
     9     9    10   ar
    10    10    11   ar
    11    11    12   ar
    12    12    13    1
    13    13    14   ar
    14    14    15   ar
    15    15    16   ar
    16    16    17    1
    17    17    18    3
    18    16    19   ar
    19    19    20   ar
    20    12    21   ar
    21    21    22   ar
    22     4    23    1
    23    23    24    2
    24    23    25    1
    25    22     9   ar
    26    20    13   ar
    27     1    26    1
    28     1    27    1
    29     1    28    1
    30     2    29    1
    31     3    30    1
    32     3    31    1
    33     3    32    1
    34     4    33    1
    35     5    34    1
    36    10    35    1
    37    11    36    1
    38    14    37    1
    39    15    38    1
    40    19    39    1
    41    20    40    1
    42    21    41    1
    43    22    42    1
    44    25    43    1
