@<TRIPOS>MOLECULE
*****
 17 16 0 0 0
SMALL
GASTEIGER

@<TRIPOS>ATOM
      1 CB         -1.4397   -1.3129   -0.4694 C.3     1  ALA1       -0.0362
      2 CA         -0.6764   -0.2795    0.3409 C.3     1  ALA1        0.1186
      3 N           0.6039    0.0226   -0.2733 N.am    1  ALA1       -0.2866
      4 C           1.8039   -0.2931    0.4540 C.2     0  UNK0        0.2977
      5 N           2.9903    0.0501   -0.2528 N.am    0  UNK0       -0.3133
      6 O           1.6704   -0.8177    1.5904 O.2     0  UNK0       -0.2531
      7 C          -1.5184    0.9356    0.4632 C.2     1  ALA1        0.3250
      8 O          -1.0927    2.1971    0.0277 O.3     1  ALA1       -0.4793
      9 OXT        -2.6762    0.9438    0.9625 O.2     1  ALA1       -0.2489
     10 HB1        -1.6266   -1.0141   -1.5088 H       1  ALA1        0.0253
     11 HB2        -0.8003   -2.2396   -0.4530 H       1  ALA1        0.0253
     12 HB3        -2.3651   -1.5102    0.1047 H       1  ALA1        0.0253
     13 HA         -0.5492   -0.7408    1.3486 H       1  ALA1        0.0612
     14 H           0.5236    0.4632   -1.2343 H       1  ALA1        0.1511
     15 H           3.2033    1.0533   -0.1113 H       0  UNK0        0.1465
     16 H           3.6966   -0.4188   -0.8655 H       0  UNK0        0.1465
     17 H          -1.7474    2.9610   -0.1237 H       1  ALA1        0.2951
@<TRIPOS>BOND
     1     1     2    1
     2     2     3    1
     3     3     4   am
     4     4     5   am
     5     4     6    2
     6     2     7    1
     7     7     8    1
     8     7     9    2
     9     1    10    1
    10     1    11    1
    11     1    12    1
    12     2    13    1
    13     3    14    1
    14     5    15    1
    15     5    16    1
    16     8    17    1
