
     RDKit          3D

 45 47  0  0  0  0  0  0  0  0999 V2000
   -2.4259   -0.9484    3.6315 C   0  0  0  0  0  0  0  0  0  0  0  0
   -1.9617   -0.0588    2.5017 C   0  0  1  0  0  0  0  0  0  0  0  0
   -1.4016   -0.9092    1.4282 C   0  0  0  0  0  0  0  0  0  0  0  0
   -0.1654   -0.7352    0.8722 C   0  0  0  0  0  0  0  0  0  0  0  0
    0.2660   -1.5424   -0.1270 C   0  0  0  0  0  0  0  0  0  0  0  0
    1.5315   -1.4399   -0.7773 N   0  0  0  0  0  0  0  0  0  0  0  0
    1.7649   -0.6545   -1.9222 C   0  0  0  0  0  0  0  0  0  0  0  0
    0.7442   -0.0133   -2.3624 O   0  0  0  0  0  0  0  0  0  0  0  0
    3.0506   -0.5406   -2.6023 C   0  0  0  0  0  0  0  0  0  0  0  0
    3.1360    0.2413   -3.7351 C   0  0  0  0  0  0  0  0  0  0  0  0
    4.3044    0.3906   -4.4463 C   0  0  0  0  0  0  0  0  0  0  0  0
    5.4584   -0.2642   -4.0236 C   0  0  0  0  0  0  0  0  0  0  0  0
    6.6871   -0.1434   -4.7494 C   0  0  0  0  0  0  0  0  0  0  0  0
    7.6894   -0.0271   -5.3307 N   0  0  0  0  0  0  0  0  0  0  0  0
    5.3482   -1.0390   -2.8883 C   0  0  0  0  0  0  0  0  0  0  0  0
    4.1742   -1.1575   -2.2186 N   0  0  0  0  0  0  0  0  0  0  0  0
   -0.5493   -2.5761   -0.6120 C   0  0  0  0  0  0  0  0  0  0  0  0
   -1.7739   -2.7536   -0.0650 C   0  0  0  0  0  0  0  0  0  0  0  0
   -2.1984   -1.9269    0.9484 C   0  0  0  0  0  0  0  0  0  0  0  0
   -3.4389   -2.1969    1.4407 F   0  0  0  0  0  0  0  0  0  0  0  0
   -3.1684    0.6525    1.8593 C   0  0  0  0  0  0  0  0  0  0  0  0
   -2.6200    1.7575    0.9403 C   0  0  1  0  0  0  0  0  0  0  0  0
   -3.7814    2.2812    0.1653 C   0  0  0  0  0  0  0  0  0  0  0  0
   -3.4626    3.2778   -0.7105 F   0  0  0  0  0  0  0  0  0  0  0  0
   -4.3063    1.2306   -0.5672 F   0  0  0  0  0  0  0  0  0  0  0  0
   -4.7754    2.6563    1.0497 F   0  0  0  0  0  0  0  0  0  0  0  0
   -2.0444    2.6991    1.8293 O   0  0  0  0  0  0  0  0  0  0  0  0
   -1.0893    2.2059    2.7043 C   0  0  0  0  0  0  0  0  0  0  0  0
   -0.1522    3.1355    3.2540 N   0  0  0  0  0  0  0  0  0  0  0  0
   -1.0847    0.9607    2.9809 N   0  0  0  0  0  0  0  0  0  0  0  0
   -1.8110   -1.8670    3.7372 H   0  0  0  0  0  0  0  0  0  0  0  0
   -3.5016   -1.2249    3.5138 H   0  0  0  0  0  0  0  0  0  0  0  0
   -2.3622   -0.4293    4.6116 H   0  0  0  0  0  0  0  0  0  0  0  0
    0.4636    0.0401    1.2263 H   0  0  0  0  0  0  0  0  0  0  0  0
    2.3203   -1.9833   -0.3706 H   0  0  0  0  0  0  0  0  0  0  0  0
    2.2340    0.7541   -4.0653 H   0  0  0  0  0  0  0  0  0  0  0  0
    4.3839    0.9938   -5.3311 H   0  0  0  0  0  0  0  0  0  0  0  0
    6.2390   -1.5564   -2.5433 H   0  0  0  0  0  0  0  0  0  0  0  0
   -0.2171   -3.2299   -1.4112 H   0  0  0  0  0  0  0  0  0  0  0  0
   -2.4069   -3.5581   -0.4410 H   0  0  0  0  0  0  0  0  0  0  0  0
   -3.7987    1.1444    2.6169 H   0  0  0  0  0  0  0  0  0  0  0  0
   -3.7290   -0.0112    1.1774 H   0  0  0  0  0  0  0  0  0  0  0  0
   -1.8532    1.3543    0.2614 H   0  0  0  0  0  0  0  0  0  0  0  0
    0.8567    3.1440    3.0977 H   0  0  0  0  0  0  0  0  0  0  0  0
   -0.5730    3.8673    3.8738 H   0  0  0  0  0  0  0  0  0  0  0  0
  2  1  1  1
  2  3  1  0
  3  4  2  0
  4  5  1  0
  5  6  1  0
  6  7  1  0
  7  8  2  0
  7  9  1  0
  9 10  2  0
 10 11  1  0
 11 12  2  0
 12 13  1  0
 13 14  3  0
 12 15  1  0
 15 16  2  0
  5 17  2  0
 17 18  1  0
 18 19  2  0
 19 20  1  0
  2 21  1  0
 21 22  1  0
 22 23  1  0
 23 24  1  0
 23 25  1  0
 23 26  1  0
 22 27  1  0
 27 28  1  0
 28 29  1  0
 28 30  2  0
 30  2  1  0
 19  3  1  0
 16  9  1  0
  1 31  1  0
  1 32  1  0
  1 33  1  0
  4 34  1  0
  6 35  1  0
 10 36  1  0
 11 37  1  0
 15 38  1  0
 17 39  1  0
 18 40  1  0
 21 41  1  0
 21 42  1  0
 22 43  1  6
 29 44  1  0
 29 45  1  0
M  END
$$$$
