@<TRIPOS>MOLECULE
*****
 45 47 0 0 0
SMALL
GASTEIGER

@<TRIPOS>ATOM
      1 C          -2.4259   -0.9484    3.6315 C.3     1  UNL1       -0.0352
      2 C          -1.9617   -0.0588    2.5017 C.3     1  UNL1        0.0951
      3 C          -1.4016   -0.9092    1.4282 C.ar    1  UNL1        0.0168
      4 C          -0.1654   -0.7352    0.8722 C.ar    1  UNL1       -0.0323
      5 C           0.2660   -1.5424   -0.1270 C.ar    1  UNL1        0.0342
      6 N           1.5315   -1.4399   -0.7773 N.am    1  UNL1       -0.2802
      7 C           1.7649   -0.6545   -1.9222 C.2     1  UNL1        0.2666
      8 O           0.7442   -0.0133   -2.3624 O.2     1  UNL1       -0.2682
      9 C           3.0506   -0.5406   -2.6023 C.ar    1  UNL1        0.1257
     10 C           3.1360    0.2413   -3.7351 C.ar    1  UNL1       -0.0300
     11 C           4.3044    0.3906   -4.4463 C.ar    1  UNL1       -0.0407
     12 C           5.4584   -0.2642   -4.0236 C.ar    1  UNL1        0.0699
     13 C           6.6871   -0.1434   -4.7494 C.1     1  UNL1        0.1007
     14 N           7.6894   -0.0271   -5.3307 N.1     1  UNL1       -0.1908
     15 C           5.3482   -1.0390   -2.8883 C.ar    1  UNL1        0.0458
     16 N           4.1742   -1.1575   -2.2186 N.ar    1  UNL1       -0.2491
     17 C          -0.5493   -2.5761   -0.6120 C.ar    1  UNL1       -0.0377
     18 C          -1.7739   -2.7536   -0.0650 C.ar    1  UNL1       -0.0243
     19 C          -2.1984   -1.9269    0.9484 C.ar    1  UNL1        0.1290
     20 F          -3.4389   -2.1969    1.4407 F       1  UNL1       -0.2051
     21 C          -3.1684    0.6525    1.8593 C.3     1  UNL1        0.0223
     22 C          -2.6200    1.7575    0.9403 C.3     1  UNL1        0.1997
     23 C          -3.7814    2.2812    0.1653 C.3     1  UNL1        0.4266
     24 F          -3.4626    3.2778   -0.7105 F       1  UNL1       -0.1669
     25 F          -4.3063    1.2306   -0.5672 F       1  UNL1       -0.1669
     26 F          -4.7754    2.6563    1.0497 F       1  UNL1       -0.1669
     27 O          -2.0444    2.6991    1.8293 O.2     1  UNL1       -0.4534
     28 C          -1.0893    2.2059    2.7043 C.2     1  UNL1        0.2765
     29 N          -0.1522    3.1355    3.2540 N.pl3   1  UNL1       -0.3134
     30 N          -1.0847    0.9607    2.9809 N.2     1  UNL1       -0.2257
     31 H          -1.8110   -1.8670    3.7372 H       1  UNL1        0.0256
     32 H          -3.5016   -1.2249    3.5138 H       1  UNL1        0.0256
     33 H          -2.3622   -0.4293    4.6116 H       1  UNL1        0.0256
     34 H           0.4636    0.0401    1.2263 H       1  UNL1        0.0640
     35 H           2.3203   -1.9833   -0.3706 H       1  UNL1        0.1552
     36 H           2.2340    0.7541   -4.0653 H       1  UNL1        0.0641
     37 H           4.3839    0.9938   -5.3311 H       1  UNL1        0.0631
     38 H           6.2390   -1.5564   -2.5433 H       1  UNL1        0.0843
     39 H          -0.2171   -3.2299   -1.4112 H       1  UNL1        0.0637
     40 H          -2.4069   -3.5581   -0.4410 H       1  UNL1        0.0647
     41 H          -3.7987    1.1444    2.6169 H       1  UNL1        0.0330
     42 H          -3.7290   -0.0112    1.1774 H       1  UNL1        0.0330
     43 H          -1.8532    1.3543    0.2614 H       1  UNL1        0.0826
     44 H           0.8567    3.1440    3.0977 H       1  UNL1        0.1466
     45 H          -0.5730    3.8673    3.8738 H       1  UNL1        0.1466
@<TRIPOS>BOND
     1     2     1    1
     2     2     3    1
     3     3     4   ar
     4     4     5   ar
     5     5     6    1
     6     6     7   am
     7     7     8    2
     8     7     9    1
     9     9    10   ar
    10    10    11   ar
    11    11    12   ar
    12    12    13    1
    13    13    14    3
    14    12    15   ar
    15    15    16   ar
    16     5    17   ar
    17    17    18   ar
    18    18    19   ar
    19    19    20    1
    20     2    21    1
    21    21    22    1
    22    22    23    1
    23    23    24    1
    24    23    25    1
    25    23    26    1
    26    22    27    1
    27    27    28    1
    28    28    29    1
    29    28    30    2
    30    30     2    1
    31    19     3   ar
    32    16     9   ar
    33     1    31    1
    34     1    32    1
    35     1    33    1
    36     4    34    1
    37     6    35    1
    38    10    36    1
    39    11    37    1
    40    15    38    1
    41    17    39    1
    42    18    40    1
    43    21    41    1
    44    21    42    1
    45    22    43    1
    46    29    44    1
    47    29    45    1
