
     RDKit          3D

 45 48  0  0  0  0  0  0  0  0999 V2000
   -1.3722    0.3942   -0.7134 O   0  0  0  0  0  0  0  0  0  0  0  0
   -1.5368    0.4351    0.5530 C   0  0  0  0  0  0  0  0  0  0  0  0
   -0.4774    1.0403    1.3614 C   0  0  0  0  0  0  0  0  0  0  0  0
    0.6392    1.5108    0.5107 C   0  0  0  0  0  0  0  0  0  0  0  0
    1.6747    0.7055    0.2218 N   0  0  0  0  0  0  0  0  0  0  0  0
    2.7175    1.0744   -0.5451 C   0  0  0  0  0  0  0  0  0  0  0  0
    3.7743    0.1591   -0.8013 N   0  0  0  0  0  0  0  0  0  0  0  0
    3.7280   -1.1717   -0.2390 C   0  0  0  0  0  0  0  0  0  0  0  0
    4.5888   -2.1477   -0.9620 C   0  0  0  0  0  0  0  0  0  0  0  0
    5.8281   -1.6954   -1.3154 O   0  0  0  0  0  0  0  0  0  0  0  0
    6.0762   -0.3727   -1.0646 C   0  0  0  0  0  0  0  0  0  0  0  0
    4.9286    0.4869   -1.6139 C   0  0  0  0  0  0  0  0  0  0  0  0
    2.6790    2.3587   -1.0403 C   0  0  0  0  0  0  0  0  0  0  0  0
    1.6323    3.2284   -0.7706 C   0  0  0  0  0  0  0  0  0  0  0  0
    1.6406    4.3946   -1.2459 O   0  0  0  0  0  0  0  0  0  0  0  0
    0.6381    2.7656    0.0054 N   0  0  0  0  0  0  0  0  0  0  0  0
   -2.7335   -0.1082    1.0862 N   0  0  0  0  0  0  0  0  0  0  0  0
   -3.1291   -0.1715    2.4820 C   0  0  0  0  0  0  0  0  0  0  0  0
   -4.6239    0.0394    2.3866 C   0  0  0  0  0  0  0  0  0  0  0  0
   -4.9651   -0.6451    1.1247 C   0  0  0  0  0  0  0  0  0  0  0  0
   -6.1106   -1.1909    0.5754 C   0  0  0  0  0  0  0  0  0  0  0  0
   -7.2363   -1.1185    1.3258 F   0  0  0  0  0  0  0  0  0  0  0  0
   -6.1325   -1.7831   -0.6676 C   0  0  0  0  0  0  0  0  0  0  0  0
   -4.9681   -1.8397   -1.4040 C   0  0  0  0  0  0  0  0  0  0  0  0
   -3.8097   -1.3043   -0.8830 C   0  0  0  0  0  0  0  0  0  0  0  0
   -3.8034   -0.7078    0.3772 C   0  0  0  0  0  0  0  0  0  0  0  0
   -0.1017    0.3508    2.1672 H   0  0  0  0  0  0  0  0  0  0  0  0
   -0.8557    1.9427    1.9253 H   0  0  0  0  0  0  0  0  0  0  0  0
    2.6653   -1.5498   -0.2957 H   0  0  0  0  0  0  0  0  0  0  0  0
    3.9824   -1.1680    0.8392 H   0  0  0  0  0  0  0  0  0  0  0  0
    4.7331   -3.0323   -0.2733 H   0  0  0  0  0  0  0  0  0  0  0  0
    4.0342   -2.5797   -1.8360 H   0  0  0  0  0  0  0  0  0  0  0  0
    7.0413   -0.1089   -1.5701 H   0  0  0  0  0  0  0  0  0  0  0  0
    6.1450   -0.2133    0.0330 H   0  0  0  0  0  0  0  0  0  0  0  0
    4.6869    0.0981   -2.6473 H   0  0  0  0  0  0  0  0  0  0  0  0
    5.1914    1.5478   -1.6101 H   0  0  0  0  0  0  0  0  0  0  0  0
    3.5037    2.6813   -1.6601 H   0  0  0  0  0  0  0  0  0  0  0  0
   -0.1836    3.3852    0.2431 H   0  0  0  0  0  0  0  0  0  0  0  0
   -2.9798   -1.2013    2.8995 H   0  0  0  0  0  0  0  0  0  0  0  0
   -2.6389    0.6049    3.1028 H   0  0  0  0  0  0  0  0  0  0  0  0
   -5.1636   -0.3693    3.2583 H   0  0  0  0  0  0  0  0  0  0  0  0
   -4.8241    1.1283    2.2428 H   0  0  0  0  0  0  0  0  0  0  0  0
   -7.0658   -2.2068   -1.0711 H   0  0  0  0  0  0  0  0  0  0  0  0
   -4.9358   -2.2961   -2.3884 H   0  0  0  0  0  0  0  0  0  0  0  0
   -2.8809   -1.3502   -1.4724 H   0  0  0  0  0  0  0  0  0  0  0  0
  1  2  2  0
  2  3  1  0
  3  4  1  0
  4  5  2  0
  5  6  1  0
  6  7  1  0
  7  8  1  0
  8  9  1  0
  9 10  1  0
 10 11  1  0
 11 12  1  0
  6 13  2  0
 13 14  1  0
 14 15  2  0
 14 16  1  0
  2 17  1  0
 17 18  1  0
 18 19  1  0
 19 20  1  0
 20 21  2  0
 21 22  1  0
 21 23  1  0
 23 24  2  0
 24 25  1  0
 25 26  2  0
 16  4  1  0
 26 17  1  0
 12  7  1  0
 26 20  1  0
  3 27  1  0
  3 28  1  0
  8 29  1  0
  8 30  1  0
  9 31  1  0
  9 32  1  0
 11 33  1  0
 11 34  1  0
 12 35  1  0
 12 36  1  0
 13 37  1  0
 16 38  1  0
 18 39  1  0
 18 40  1  0
 19 41  1  0
 19 42  1  0
 23 43  1  0
 24 44  1  0
 25 45  1  0
M  END
$$$$
