@<TRIPOS>MOLECULE
*****
 45 48 0 0 0
SMALL
GASTEIGER

@<TRIPOS>ATOM
      1 O          -1.3722    0.3942   -0.7134 O.2     1  UNL1       -0.2748
      2 C          -1.5368    0.4351    0.5530 C.2     1  UNL1        0.2271
      3 C          -0.4774    1.0403    1.3614 C.3     1  UNL1        0.0826
      4 C           0.6392    1.5108    0.5107 C.ar    1  UNL1        0.1206
      5 N           1.6747    0.7055    0.2218 N.ar    1  UNL1       -0.2186
      6 C           2.7175    1.0744   -0.5451 C.ar    1  UNL1        0.1285
      7 N           3.7743    0.1591   -0.8013 N.pl3   1  UNL1       -0.3106
      8 C           3.7280   -1.1717   -0.2390 C.3     1  UNL1        0.0370
      9 C           4.5888   -2.1477   -0.9620 C.3     1  UNL1        0.0634
     10 O           5.8281   -1.6954   -1.3154 O.3     1  UNL1       -0.3767
     11 C           6.0762   -0.3727   -1.0646 C.3     1  UNL1        0.0634
     12 C           4.9286    0.4869   -1.6139 C.3     1  UNL1        0.0370
     13 C           2.6790    2.3587   -1.0403 C.ar    1  UNL1        0.0427
     14 C           1.6323    3.2284   -0.7706 C.ar    1  UNL1        0.2533
     15 O           1.6406    4.3946   -1.2459 O.2     1  UNL1       -0.2677
     16 N           0.6381    2.7656    0.0054 N.ar    1  UNL1       -0.3104
     17 N          -2.7335   -0.1082    1.0862 N.am    1  UNL1       -0.2704
     18 C          -3.1291   -0.1715    2.4820 C.3     1  UNL1        0.0239
     19 C          -4.6239    0.0394    2.3866 C.3     1  UNL1       -0.0069
     20 C          -4.9651   -0.6451    1.1247 C.ar    1  UNL1        0.0107
     21 C          -6.1106   -1.1909    0.5754 C.ar    1  UNL1        0.1284
     22 F          -7.2363   -1.1185    1.3258 F       1  UNL1       -0.2051
     23 C          -6.1325   -1.7831   -0.6676 C.ar    1  UNL1       -0.0261
     24 C          -4.9681   -1.8397   -1.4040 C.ar    1  UNL1       -0.0573
     25 C          -3.8097   -1.3043   -0.8830 C.ar    1  UNL1       -0.0398
     26 C          -3.8034   -0.7078    0.3772 C.ar    1  UNL1        0.0422
     27 H          -0.1017    0.3508    2.1672 H       1  UNL1        0.0438
     28 H          -0.8557    1.9427    1.9253 H       1  UNL1        0.0438
     29 H           2.6653   -1.5498   -0.2957 H       1  UNL1        0.0487
     30 H           3.9824   -1.1680    0.8392 H       1  UNL1        0.0487
     31 H           4.7331   -3.0323   -0.2733 H       1  UNL1        0.0575
     32 H           4.0342   -2.5797   -1.8360 H       1  UNL1        0.0575
     33 H           7.0413   -0.1089   -1.5701 H       1  UNL1        0.0575
     34 H           6.1450   -0.2133    0.0330 H       1  UNL1        0.0575
     35 H           4.6869    0.0981   -2.6473 H       1  UNL1        0.0487
     36 H           5.1914    1.5478   -1.6101 H       1  UNL1        0.0487
     37 H           3.5037    2.6813   -1.6601 H       1  UNL1        0.0706
     38 H          -0.1836    3.3852    0.2431 H       1  UNL1        0.1700
     39 H          -2.9798   -1.2013    2.8995 H       1  UNL1        0.0472
     40 H          -2.6389    0.6049    3.1028 H       1  UNL1        0.0472
     41 H          -5.1636   -0.3693    3.2583 H       1  UNL1        0.0330
     42 H          -4.8241    1.1283    2.2428 H       1  UNL1        0.0330
     43 H          -7.0658   -2.2068   -1.0711 H       1  UNL1        0.0646
     44 H          -4.9358   -2.2961   -2.3884 H       1  UNL1        0.0619
     45 H          -2.8809   -1.3502   -1.4724 H       1  UNL1        0.0636
@<TRIPOS>BOND
     1     1     2    2
     2     2     3    1
     3     3     4    1
     4     4     5   ar
     5     5     6   ar
     6     6     7    1
     7     7     8    1
     8     8     9    1
     9     9    10    1
    10    10    11    1
    11    11    12    1
    12     6    13   ar
    13    13    14   ar
    14    14    15    2
    15    14    16   ar
    16     2    17   am
    17    17    18    1
    18    18    19    1
    19    19    20    1
    20    20    21   ar
    21    21    22    1
    22    21    23   ar
    23    23    24   ar
    24    24    25   ar
    25    25    26   ar
    26    16     4   ar
    27    26    17    1
    28    12     7    1
    29    26    20   ar
    30     3    27    1
    31     3    28    1
    32     8    29    1
    33     8    30    1
    34     9    31    1
    35     9    32    1
    36    11    33    1
    37    11    34    1
    38    12    35    1
    39    12    36    1
    40    13    37    1
    41    16    38    1
    42    18    39    1
    43    18    40    1
    44    19    41    1
    45    19    42    1
    46    23    43    1
    47    24    44    1
    48    25    45    1
