@<TRIPOS>MOLECULE
*****
 46 50 0 0 0
SMALL
GASTEIGER

@<TRIPOS>ATOM
      1 N          -2.1811   -3.2968    0.2747 N.pl3   1  UNL1       -0.3134
      2 C          -2.0174   -2.0213   -0.3626 C.2     1  UNL1        0.2763
      3 N          -2.2968   -0.9420    0.2129 N.2     1  UNL1       -0.2205
      4 C          -2.1919    0.4111   -0.2783 C.3     1  UNL1        0.1265
      5 C          -1.8502    0.4181   -1.7445 C.3     1  UNL1        0.0155
      6 C          -1.9812   -0.8776   -2.4362 C.3     1  UNL1        0.0953
      7 O          -1.5338   -1.9528   -1.6642 O.2     1  UNL1       -0.4658
      8 C          -1.1007    1.0389    0.5126 C.ar    1  UNL1        0.0287
      9 C           0.1746    0.4808    0.3262 C.ar    1  UNL1       -0.0312
     10 C           1.2400    0.9888    0.9994 C.ar    1  UNL1        0.0343
     11 N           2.5444    0.5081    0.8856 N.am    1  UNL1       -0.2802
     12 C           2.9506   -0.5637    0.0666 C.2     1  UNL1        0.2666
     13 O           2.1701   -1.1860   -0.6385 O.2     1  UNL1       -0.2682
     14 C           4.3861   -0.9272    0.0821 C.ar    1  UNL1        0.1257
     15 C           4.8597   -1.9720   -0.6989 C.ar    1  UNL1       -0.0298
     16 C           6.1950   -2.3051   -0.6802 C.ar    1  UNL1       -0.0397
     17 C           7.0704   -1.5915    0.1239 C.ar    1  UNL1        0.0591
     18 CL          8.7720   -2.0380    0.1289 Cl      1  UNL1       -0.0820
     19 C           6.5697   -0.5644    0.8837 C.ar    1  UNL1        0.0467
     20 N           5.2657   -0.2675    0.8414 N.ar    1  UNL1       -0.2489
     21 C           1.0377    2.0677    1.8717 C.ar    1  UNL1       -0.0370
     22 C          -0.2038    2.6136    2.0555 C.ar    1  UNL1       -0.0172
     23 C          -1.2952    2.0802    1.3549 C.ar    1  UNL1        0.1346
     24 O          -2.5385    2.6656    1.5731 O.3     1  UNL1       -0.4508
     25 C          -3.5990    2.1030    0.8563 C.ar    1  UNL1        0.1883
     26 C          -3.4842    1.0577   -0.0074 C.ar    1  UNL1        0.0343
     27 C          -4.6430    0.5967   -0.6567 C.ar    1  UNL1       -0.0153
     28 C          -5.8716    1.1607   -0.4505 C.ar    1  UNL1        0.1329
     29 CL         -7.3097    0.5460   -1.2928 Cl      1  UNL1       -0.0619
     30 N          -5.9711    2.1909    0.4030 N.ar    1  UNL1       -0.2045
     31 C          -4.8848    2.6470    1.0325 C.ar    1  UNL1        0.2574
     32 F          -4.9671    3.7047    1.9133 F       1  UNL1       -0.1799
     33 H          -1.3430   -3.8897    0.4439 H       1  UNL1        0.1466
     34 H          -3.1369   -3.5777    0.5429 H       1  UNL1        0.1466
     35 H          -0.7617    0.7217   -1.8156 H       1  UNL1        0.0328
     36 H          -2.3742    1.2480   -2.2722 H       1  UNL1        0.0328
     37 H          -1.2780   -0.8386   -3.3354 H       1  UNL1        0.0698
     38 H          -2.9794   -1.1146   -2.8639 H       1  UNL1        0.0698
     39 H           0.2637   -0.3663   -0.3755 H       1  UNL1        0.0641
     40 H           3.2996    0.9959    1.4709 H       1  UNL1        0.1552
     41 H           4.1554   -2.5117   -1.3165 H       1  UNL1        0.0641
     42 H           6.5970   -3.1176   -1.2799 H       1  UNL1        0.0633
     43 H           7.2444    0.0113    1.5253 H       1  UNL1        0.0844
     44 H           1.8770    2.4792    2.4116 H       1  UNL1        0.0637
     45 H          -0.3332    3.4323    2.7229 H       1  UNL1        0.0655
     46 H          -4.5457   -0.2458   -1.3457 H       1  UNL1        0.0652
@<TRIPOS>BOND
     1     1     2    1
     2     2     3    2
     3     3     4    1
     4     4     5    1
     5     5     6    1
     6     6     7    1
     7     4     8    1
     8     8     9   ar
     9     9    10   ar
    10    10    11    1
    11    11    12   am
    12    12    13    2
    13    12    14    1
    14    14    15   ar
    15    15    16   ar
    16    16    17   ar
    17    17    18    1
    18    17    19   ar
    19    19    20   ar
    20    10    21   ar
    21    21    22   ar
    22    22    23   ar
    23    23    24    1
    24    24    25    1
    25    25    26   ar
    26    26    27   ar
    27    27    28   ar
    28    28    29    1
    29    28    30   ar
    30    30    31   ar
    31    31    32    1
    32     7     2    1
    33    23     8   ar
    34    31    25   ar
    35    26     4    1
    36    20    14   ar
    37     1    33    1
    38     1    34    1
    39     5    35    1
    40     5    36    1
    41     6    37    1
    42     6    38    1
    43     9    39    1
    44    11    40    1
    45    15    41    1
    46    16    42    1
    47    19    43    1
    48    21    44    1
    49    22    45    1
    50    27    46    1
