
     RDKit          3D

 62 65  0  0  0  0  0  0  0  0999 V2000
    0.0779    1.9278   -2.0953 C   0  0  0  0  0  0  0  0  0  0  0  0
    0.1020    0.4370   -1.8476 C   0  0  1  0  0  0  0  0  0  0  0  0
    1.4386    0.0992   -1.3096 C   0  0  0  0  0  0  0  0  0  0  0  0
    1.6832   -1.1509   -0.7959 C   0  0  0  0  0  0  0  0  0  0  0  0
    2.9301   -1.5186   -0.2757 C   0  0  0  0  0  0  0  0  0  0  0  0
    3.9496   -0.6236   -0.2684 C   0  0  0  0  0  0  0  0  0  0  0  0
    5.2727   -0.9286    0.2536 C   0  0  0  0  0  0  0  0  0  0  0  0
    5.5348   -2.1669    0.7686 C   0  0  0  0  0  0  0  0  0  0  0  0
    6.8100   -2.4421    1.2651 C   0  0  0  0  0  0  0  0  0  0  0  0
    7.7607   -1.4515    1.2174 C   0  0  0  0  0  0  0  0  0  0  0  0
    8.9313   -1.6809    1.6650 O   0  0  0  0  0  0  0  0  0  0  0  0
    7.4612   -0.2444    0.7016 N   0  0  0  0  0  0  0  0  0  0  0  0
    8.5271    0.7400    0.6923 C   0  0  0  0  0  0  0  0  0  0  0  0
    6.2568   -0.0021    0.2388 N   0  0  0  0  0  0  0  0  0  0  0  0
    3.7314    0.6407   -0.7789 C   0  0  0  0  0  0  0  0  0  0  0  0
    2.4807    0.9970   -1.2962 C   0  0  0  0  0  0  0  0  0  0  0  0
   -0.9542    0.0003   -1.0010 N   0  0  0  0  0  0  0  0  0  0  0  0
   -1.9926   -0.9309   -1.3952 C   0  0  0  0  0  0  0  0  0  0  0  0
   -3.3541   -0.2636   -1.0728 C   0  0  0  0  0  0  0  0  0  0  0  0
   -3.5055    0.0522    0.3455 C   0  0  2  0  0  0  0  0  0  0  0  0
   -4.4072   -0.7099    1.2183 C   0  0  0  0  0  0  0  0  0  0  0  0
   -4.2954   -2.1365    1.4693 C   0  0  0  0  0  0  0  0  0  0  0  0
   -4.5021   -3.0340    0.2846 C   0  0  0  0  0  0  0  0  0  0  0  0
   -4.3756   -4.3849    0.6528 O   0  0  0  0  0  0  0  0  0  0  0  0
   -3.9344    1.5092    0.4821 C   0  0  0  0  0  0  0  0  0  0  0  0
   -4.5426    2.1985   -0.5292 C   0  0  0  0  0  0  0  0  0  0  0  0
   -4.9045    3.5336   -0.3958 C   0  0  0  0  0  0  0  0  0  0  0  0
   -4.6507    4.1921    0.7810 C   0  0  0  0  0  0  0  0  0  0  0  0
   -4.9998    5.5157    0.9382 F   0  0  0  0  0  0  0  0  0  0  0  0
   -4.0395    3.5040    1.8037 C   0  0  0  0  0  0  0  0  0  0  0  0
   -3.6881    2.1841    1.6542 C   0  0  0  0  0  0  0  0  0  0  0  0
   -2.2150    0.0684    1.0001 O   0  0  0  0  0  0  0  0  0  0  0  0
   -1.0673    0.4704    0.3529 C   0  0  0  0  0  0  0  0  0  0  0  0
   -0.1958    1.1800    0.8853 O   0  0  0  0  0  0  0  0  0  0  0  0
   -0.9454    2.2448   -2.4498 H   0  0  0  0  0  0  0  0  0  0  0  0
    0.4227    2.5254   -1.2472 H   0  0  0  0  0  0  0  0  0  0  0  0
    0.7499    2.1312   -2.9543 H   0  0  0  0  0  0  0  0  0  0  0  0
    0.0193   -0.0390   -2.8613 H   0  0  0  0  0  0  0  0  0  0  0  0
    0.8990   -1.9203   -0.7732 H   0  0  0  0  0  0  0  0  0  0  0  0
    3.0464   -2.5108    0.1076 H   0  0  0  0  0  0  0  0  0  0  0  0
    4.8042   -2.9690    0.8195 H   0  0  0  0  0  0  0  0  0  0  0  0
    7.0508   -3.4177    1.6816 H   0  0  0  0  0  0  0  0  0  0  0  0
    8.1442    1.7791    0.7505 H   0  0  0  0  0  0  0  0  0  0  0  0
    9.1587    0.5853    1.5853 H   0  0  0  0  0  0  0  0  0  0  0  0
    9.1784    0.5849   -0.2026 H   0  0  0  0  0  0  0  0  0  0  0  0
    4.5486    1.3507   -0.7704 H   0  0  0  0  0  0  0  0  0  0  0  0
    2.3374    1.9762   -1.6836 H   0  0  0  0  0  0  0  0  0  0  0  0
   -1.9645   -1.0086   -2.4984 H   0  0  0  0  0  0  0  0  0  0  0  0
   -1.8724   -1.9083   -0.9582 H   0  0  0  0  0  0  0  0  0  0  0  0
   -4.1684   -0.7194   -1.6209 H   0  0  0  0  0  0  0  0  0  0  0  0
   -3.1934    0.7258   -1.6430 H   0  0  0  0  0  0  0  0  0  0  0  0
   -5.4866   -0.5222    0.8695 H   0  0  0  0  0  0  0  0  0  0  0  0
   -4.4644   -0.1971    2.2439 H   0  0  0  0  0  0  0  0  0  0  0  0
   -5.1160   -2.4692    2.1948 H   0  0  0  0  0  0  0  0  0  0  0  0
   -3.3792   -2.4464    2.0445 H   0  0  0  0  0  0  0  0  0  0  0  0
   -5.6083   -2.9355    0.0395 H   0  0  0  0  0  0  0  0  0  0  0  0
   -3.9854   -2.8000   -0.6248 H   0  0  0  0  0  0  0  0  0  0  0  0
   -4.2919   -4.9733   -0.1130 H   0  0  0  0  0  0  0  0  0  0  0  0
   -4.7897    1.7250   -1.4826 H   0  0  0  0  0  0  0  0  0  0  0  0
   -5.3790    4.0070   -1.2381 H   0  0  0  0  0  0  0  0  0  0  0  0
   -3.8394    4.0103    2.7222 H   0  0  0  0  0  0  0  0  0  0  0  0
   -3.1992    1.6103    2.4537 H   0  0  0  0  0  0  0  0  0  0  0  0
  1  2  1  0
  2  3  1  0
  3  4  2  0
  4  5  1  0
  5  6  2  0
  6  7  1  0
  7  8  1  0
  8  9  2  0
  9 10  1  0
 10 11  2  0
 10 12  1  0
 12 13  1  0
 12 14  1  0
  6 15  1  0
 15 16  2  0
  2 17  1  0
 17 18  1  0
 18 19  1  0
 19 20  1  0
 20 21  1  1
 21 22  1  0
 22 23  1  0
 23 24  1  0
 20 25  1  0
 25 26  2  0
 26 27  1  0
 27 28  2  0
 28 29  1  0
 28 30  1  0
 30 31  2  0
 20 32  1  0
 32 33  1  0
 33 34  2  0
 16  3  1  0
 33 17  1  0
 14  7  2  0
 31 25  1  0
  1 35  1  0
  1 36  1  0
  1 37  1  0
  2 38  1  6
  4 39  1  0
  5 40  1  0
  8 41  1  0
  9 42  1  0
 13 43  1  0
 13 44  1  0
 13 45  1  0
 15 46  1  0
 16 47  1  0
 18 48  1  0
 18 49  1  0
 19 50  1  0
 19 51  1  0
 21 52  1  0
 21 53  1  0
 22 54  1  0
 22 55  1  0
 23 56  1  0
 23 57  1  0
 24 58  1  0
 26 59  1  0
 27 60  1  0
 30 61  1  0
 31 62  1  0
M  END
$$$$
