@<TRIPOS>MOLECULE
*****
 62 65 0 0 0
SMALL
GASTEIGER

@<TRIPOS>ATOM
      1 C           0.0779    1.9278   -2.0953 C.3     1  UNL1       -0.0421
      2 C           0.1020    0.4370   -1.8476 C.3     1  UNL1        0.0515
      3 C           1.4386    0.0992   -1.3096 C.ar    1  UNL1       -0.0271
      4 C           1.6832   -1.1509   -0.7959 C.ar    1  UNL1       -0.0562
      5 C           2.9301   -1.5186   -0.2757 C.ar    1  UNL1       -0.0522
      6 C           3.9496   -0.6236   -0.2684 C.ar    1  UNL1        0.0021
      7 C           5.2727   -0.9286    0.2536 C.ar    1  UNL1        0.0916
      8 C           5.5348   -2.1669    0.7686 C.ar    1  UNL1       -0.0289
      9 C           6.8100   -2.4421    1.2651 C.ar    1  UNL1        0.0064
     10 C           7.7607   -1.4515    1.2174 C.ar    1  UNL1        0.2670
     11 O           8.9313   -1.6809    1.6650 O.2     1  UNL1       -0.2662
     12 N           7.4612   -0.2444    0.7016 N.ar    1  UNL1       -0.2321
     13 C           8.5271    0.7400    0.6923 C.3     1  UNL1        0.0340
     14 N           6.2568   -0.0021    0.2388 N.ar    1  UNL1       -0.1685
     15 C           3.7314    0.6407   -0.7789 C.ar    1  UNL1       -0.0522
     16 C           2.4807    0.9970   -1.2962 C.ar    1  UNL1       -0.0562
     17 N          -0.9542    0.0003   -1.0010 N.am    1  UNL1       -0.2605
     18 C          -1.9926   -0.9309   -1.3952 C.3     1  UNL1        0.0224
     19 C          -3.3541   -0.2636   -1.0728 C.3     1  UNL1        0.0075
     20 C          -3.5055    0.0522    0.3455 C.3     1  UNL1        0.1415
     21 C          -4.4072   -0.7099    1.2183 C.3     1  UNL1       -0.0064
     22 C          -4.2954   -2.1365    1.4693 C.3     1  UNL1       -0.0258
     23 C          -4.5021   -3.0340    0.2846 C.3     1  UNL1        0.0443
     24 O          -4.3756   -4.3849    0.6528 O.3     1  UNL1       -0.3950
     25 C          -3.9344    1.5092    0.4821 C.ar    1  UNL1       -0.0040
     26 C          -4.5426    2.1985   -0.5292 C.ar    1  UNL1       -0.0521
     27 C          -4.9045    3.5336   -0.3958 C.ar    1  UNL1       -0.0261
     28 C          -4.6507    4.1921    0.7810 C.ar    1  UNL1        0.1234
     29 F          -4.9998    5.5157    0.9382 F       1  UNL1       -0.2055
     30 C          -4.0395    3.5040    1.8037 C.ar    1  UNL1       -0.0261
     31 C          -3.6881    2.1841    1.6542 C.ar    1  UNL1       -0.0521
     32 O          -2.2150    0.0684    1.0001 O.3     1  UNL1       -0.4388
     33 C          -1.0673    0.4704    0.3529 C.2     1  UNL1        0.4042
     34 O          -0.1958    1.1800    0.8853 O.2     1  UNL1       -0.2262
     35 H          -0.9454    2.2448   -2.4498 H       1  UNL1        0.0251
     36 H           0.4227    2.5254   -1.2472 H       1  UNL1        0.0251
     37 H           0.7499    2.1312   -2.9543 H       1  UNL1        0.0251
     38 H           0.0193   -0.0390   -2.8613 H       1  UNL1        0.0549
     39 H           0.8990   -1.9203   -0.7732 H       1  UNL1        0.0621
     40 H           3.0464   -2.5108    0.1076 H       1  UNL1        0.0624
     41 H           4.8042   -2.9690    0.8195 H       1  UNL1        0.0641
     42 H           7.0508   -3.4177    1.6816 H       1  UNL1        0.0673
     43 H           8.1442    1.7791    0.7505 H       1  UNL1        0.0474
     44 H           9.1587    0.5853    1.5853 H       1  UNL1        0.0474
     45 H           9.1784    0.5849   -0.2026 H       1  UNL1        0.0474
     46 H           4.5486    1.3507   -0.7704 H       1  UNL1        0.0624
     47 H           2.3374    1.9762   -1.6836 H       1  UNL1        0.0621
     48 H          -1.9645   -1.0086   -2.4984 H       1  UNL1        0.0467
     49 H          -1.8724   -1.9083   -0.9582 H       1  UNL1        0.0467
     50 H          -4.1684   -0.7194   -1.6209 H       1  UNL1        0.0322
     51 H          -3.1934    0.7258   -1.6430 H       1  UNL1        0.0322
     52 H          -5.4866   -0.5222    0.8695 H       1  UNL1        0.0308
     53 H          -4.4644   -0.1971    2.2439 H       1  UNL1        0.0308
     54 H          -5.1160   -2.4692    2.1948 H       1  UNL1        0.0289
     55 H          -3.3792   -2.4464    2.0445 H       1  UNL1        0.0289
     56 H          -5.6083   -2.9355    0.0395 H       1  UNL1        0.0557
     57 H          -3.9854   -2.8000   -0.6248 H       1  UNL1        0.0557
     58 H          -4.2919   -4.9733   -0.1130 H       1  UNL1        0.2094
     59 H          -4.7897    1.7250   -1.4826 H       1  UNL1        0.0622
     60 H          -5.3790    4.0070   -1.2381 H       1  UNL1        0.0646
     61 H          -3.8394    4.0103    2.7222 H       1  UNL1        0.0646
     62 H          -3.1992    1.6103    2.4537 H       1  UNL1        0.0622
@<TRIPOS>BOND
     1     1     2    1
     2     2     3    1
     3     3     4   ar
     4     4     5   ar
     5     5     6   ar
     6     6     7    1
     7     7     8   ar
     8     8     9   ar
     9     9    10   ar
    10    10    11    2
    11    10    12   ar
    12    12    13    1
    13    12    14   ar
    14     6    15   ar
    15    15    16   ar
    16     2    17    1
    17    17    18    1
    18    18    19    1
    19    19    20    1
    20    20    21    1
    21    21    22    1
    22    22    23    1
    23    23    24    1
    24    20    25    1
    25    25    26   ar
    26    26    27   ar
    27    27    28   ar
    28    28    29    1
    29    28    30   ar
    30    30    31   ar
    31    20    32    1
    32    32    33    1
    33    33    34    2
    34    16     3   ar
    35    33    17   am
    36    14     7   ar
    37    31    25   ar
    38     1    35    1
    39     1    36    1
    40     1    37    1
    41     2    38    1
    42     4    39    1
    43     5    40    1
    44     8    41    1
    45     9    42    1
    46    13    43    1
    47    13    44    1
    48    13    45    1
    49    15    46    1
    50    16    47    1
    51    18    48    1
    52    18    49    1
    53    19    50    1
    54    19    51    1
    55    21    52    1
    56    21    53    1
    57    22    54    1
    58    22    55    1
    59    23    56    1
    60    23    57    1
    61    24    58    1
    62    26    59    1
    63    27    60    1
    64    30    61    1
    65    31    62    1
