
     RDKit          3D

 61 61  0  0  0  0  0  0  0  0999 V2000
   -2.7627   -3.5632   -2.9793 C   0  0  0  0  0  0  0  0  0  0  0  0
   -2.8232   -2.8339   -1.7190 N   0  0  0  0  0  0  0  0  0  0  0  0
   -2.1823   -1.5908   -1.5276 C   0  0  0  0  0  0  0  0  0  0  0  0
   -1.5317   -1.1230   -2.5128 O   0  0  0  0  0  0  0  0  0  0  0  0
   -2.2630   -0.8684   -0.2376 C   0  0  1  0  0  0  0  0  0  0  0  0
   -1.3735    0.3165   -0.2830 N   0  0  0  0  0  0  0  0  0  0  0  0
   -0.3066    0.4023    0.6150 C   0  0  0  0  0  0  0  0  0  0  0  0
   -0.1801   -0.5800    1.4251 O   0  0  0  0  0  0  0  0  0  0  0  0
    0.6596    1.4895    0.7107 C   0  0  2  0  0  0  0  0  0  0  0  0
    1.7403    1.1565    1.6866 C   0  0  0  0  0  0  0  0  0  0  0  0
    2.5523   -0.0588    1.3609 C   0  0  0  0  0  0  0  0  0  0  0  0
    3.2452    0.0834    0.0243 C   0  0  0  0  0  0  0  0  0  0  0  0
    4.0401   -1.1056   -0.2935 C   0  0  0  0  0  0  0  0  0  0  0  0
    3.4370   -2.1390   -0.9877 C   0  0  0  0  0  0  0  0  0  0  0  0
    4.1299   -3.2660   -1.3089 C   0  0  0  0  0  0  0  0  0  0  0  0
    5.4545   -3.4008   -0.9465 C   0  0  0  0  0  0  0  0  0  0  0  0
    6.0320   -2.3585   -0.2562 C   0  0  0  0  0  0  0  0  0  0  0  0
    5.3601   -1.2043    0.0848 C   0  0  0  0  0  0  0  0  0  0  0  0
    0.0934    2.8271    1.1148 C   0  0  2  0  0  0  0  0  0  0  0  0
   -0.9489    3.3647    0.1679 C   0  0  0  0  0  0  0  0  0  0  0  0
    1.2071    3.7667    1.0964 N   0  0  0  0  0  0  0  0  0  0  0  0
    1.8803    3.9746   -0.0569 O   0  0  0  0  0  0  0  0  0  0  0  0
    1.6162    4.4780    2.2511 C   0  0  0  0  0  0  0  0  0  0  0  0
    1.0483    4.3470    3.3662 O   0  0  0  0  0  0  0  0  0  0  0  0
   -3.6588   -0.4092    0.1106 C   0  0  0  0  0  0  0  0  0  0  0  0
   -4.6713   -1.4964    0.2492 C   0  0  0  0  0  0  0  0  0  0  0  0
   -4.1871    0.5484   -0.9644 C   0  0  0  0  0  0  0  0  0  0  0  0
   -3.6613    0.3881    1.4029 C   0  0  0  0  0  0  0  0  0  0  0  0
   -2.1371   -4.4740   -2.8034 H   0  0  0  0  0  0  0  0  0  0  0  0
   -2.4208   -2.9526   -3.8133 H   0  0  0  0  0  0  0  0  0  0  0  0
   -3.7834   -3.9435   -3.2003 H   0  0  0  0  0  0  0  0  0  0  0  0
   -3.3652   -3.3086   -0.9737 H   0  0  0  0  0  0  0  0  0  0  0  0
   -1.9366   -1.5679    0.5547 H   0  0  0  0  0  0  0  0  0  0  0  0
   -1.5445    1.0617   -0.9755 H   0  0  0  0  0  0  0  0  0  0  0  0
    1.1309    1.6527   -0.2988 H   0  0  0  0  0  0  0  0  0  0  0  0
    2.4559    2.0244    1.6950 H   0  0  0  0  0  0  0  0  0  0  0  0
    1.3126    1.0695    2.7059 H   0  0  0  0  0  0  0  0  0  0  0  0
    3.4050   -0.0569    2.1112 H   0  0  0  0  0  0  0  0  0  0  0  0
    2.0630   -1.0221    1.5163 H   0  0  0  0  0  0  0  0  0  0  0  0
    2.5677    0.2877   -0.8055 H   0  0  0  0  0  0  0  0  0  0  0  0
    3.9205    0.9679    0.1141 H   0  0  0  0  0  0  0  0  0  0  0  0
    2.4031   -2.0467   -1.2769 H   0  0  0  0  0  0  0  0  0  0  0  0
    3.6186   -4.0506   -1.8531 H   0  0  0  0  0  0  0  0  0  0  0  0
    5.9996   -4.3116   -1.2109 H   0  0  0  0  0  0  0  0  0  0  0  0
    7.0746   -2.4136    0.0538 H   0  0  0  0  0  0  0  0  0  0  0  0
    5.8028   -0.3851    0.6237 H   0  0  0  0  0  0  0  0  0  0  0  0
   -0.3009    2.8208    2.1541 H   0  0  0  0  0  0  0  0  0  0  0  0
   -0.9343    4.4865    0.3306 H   0  0  0  0  0  0  0  0  0  0  0  0
   -0.5849    3.2323   -0.8617 H   0  0  0  0  0  0  0  0  0  0  0  0
   -1.9660    2.9759    0.3620 H   0  0  0  0  0  0  0  0  0  0  0  0
    1.9631    4.9322   -0.2819 H   0  0  0  0  0  0  0  0  0  0  0  0
    2.4435    5.1695    2.2160 H   0  0  0  0  0  0  0  0  0  0  0  0
   -4.3713   -2.3337    0.9091 H   0  0  0  0  0  0  0  0  0  0  0  0
   -5.1527   -1.8092   -0.7014 H   0  0  0  0  0  0  0  0  0  0  0  0
   -5.5376   -1.0229    0.8229 H   0  0  0  0  0  0  0  0  0  0  0  0
   -3.6623    1.5116   -0.9509 H   0  0  0  0  0  0  0  0  0  0  0  0
   -5.2603    0.7347   -0.6672 H   0  0  0  0  0  0  0  0  0  0  0  0
   -4.2096    0.0624   -1.9437 H   0  0  0  0  0  0  0  0  0  0  0  0
   -3.5802   -0.3778    2.2245 H   0  0  0  0  0  0  0  0  0  0  0  0
   -4.6037    0.9222    1.5546 H   0  0  0  0  0  0  0  0  0  0  0  0
   -2.7555    1.0199    1.5063 H   0  0  0  0  0  0  0  0  0  0  0  0
  1  2  1  0
  2  3  1  0
  3  4  2  0
  3  5  1  0
  5  6  1  0
  6  7  1  0
  7  8  2  0
  7  9  1  0
  9 10  1  0
 10 11  1  0
 11 12  1  0
 12 13  1  0
 13 14  2  0
 14 15  1  0
 15 16  2  0
 16 17  1  0
 17 18  2  0
  9 19  1  0
 19 20  1  0
 19 21  1  0
 21 22  1  0
 21 23  1  0
 23 24  2  0
  5 25  1  0
 25 26  1  0
 25 27  1  0
 25 28  1  0
 18 13  1  0
  1 29  1  0
  1 30  1  0
  1 31  1  0
  2 32  1  0
  5 33  1  1
  6 34  1  0
  9 35  1  6
 10 36  1  0
 10 37  1  0
 11 38  1  0
 11 39  1  0
 12 40  1  0
 12 41  1  0
 14 42  1  0
 15 43  1  0
 16 44  1  0
 17 45  1  0
 18 46  1  0
 19 47  1  1
 20 48  1  0
 20 49  1  0
 20 50  1  0
 22 51  1  0
 23 52  1  0
 26 53  1  0
 26 54  1  0
 26 55  1  0
 27 56  1  0
 27 57  1  0
 27 58  1  0
 28 59  1  0
 28 60  1  0
 28 61  1  0
M  END
$$$$
