@<TRIPOS>MOLECULE
*****
 61 61 0 0 0
SMALL
GASTEIGER

@<TRIPOS>ATOM
      1 C          -2.7627   -3.5632   -2.9793 C.3     1  UNL1        0.0001
      2 N          -2.8232   -2.8339   -1.7190 N.am    1  UNL1       -0.3168
      3 C          -2.1823   -1.5908   -1.5276 C.2     1  UNL1        0.2336
      4 O          -1.5317   -1.1230   -2.5128 O.2     1  UNL1       -0.2738
      5 C          -2.2630   -0.8684   -0.2376 C.3     1  UNL1        0.1042
      6 N          -1.3735    0.3165   -0.2830 N.am    1  UNL1       -0.3032
      7 C          -0.3066    0.4023    0.6150 C.2     1  UNL1        0.2186
      8 O          -0.1801   -0.5800    1.4251 O.2     1  UNL1       -0.2754
      9 C           0.6596    1.4895    0.7107 C.3     1  UNL1        0.0562
     10 C           1.7403    1.1565    1.6866 C.3     1  UNL1       -0.0398
     11 C           2.5523   -0.0588    1.3609 C.3     1  UNL1       -0.0483
     12 C           3.2452    0.0834    0.0243 C.3     1  UNL1       -0.0277
     13 C           4.0401   -1.1056   -0.2935 C.ar    1  UNL1       -0.0474
     14 C           3.4370   -2.1390   -0.9877 C.ar    1  UNL1       -0.0586
     15 C           4.1299   -3.2660   -1.3089 C.ar    1  UNL1       -0.0615
     16 C           5.4545   -3.4008   -0.9465 C.ar    1  UNL1       -0.0617
     17 C           6.0320   -2.3585   -0.2562 C.ar    1  UNL1       -0.0615
     18 C           5.3601   -1.2043    0.0848 C.ar    1  UNL1       -0.0586
     19 C           0.0934    2.8271    1.1148 C.3     1  UNL1        0.0609
     20 C          -0.9489    3.3647    0.1679 C.3     1  UNL1       -0.0434
     21 N           1.2071    3.7667    1.0964 N.am    1  UNL1       -0.1828
     22 O           1.8803    3.9746   -0.0569 O.3     1  UNL1       -0.2924
     23 C           1.6162    4.4780    2.2511 C.2     1  UNL1        0.2253
     24 O           1.0483    4.3470    3.3662 O.2     1  UNL1       -0.2772
     25 C          -3.6588   -0.4092    0.1106 C.3     1  UNL1       -0.0108
     26 C          -4.6713   -1.4964    0.2492 C.3     1  UNL1       -0.0579
     27 C          -4.1871    0.5484   -0.9644 C.3     1  UNL1       -0.0579
     28 C          -3.6613    0.3881    1.4029 C.3     1  UNL1       -0.0579
     29 H          -2.1371   -4.4740   -2.8034 H       1  UNL1        0.0426
     30 H          -2.4208   -2.9526   -3.8133 H       1  UNL1        0.0426
     31 H          -3.7834   -3.9435   -3.2003 H       1  UNL1        0.0426
     32 H          -3.3652   -3.3086   -0.9737 H       1  UNL1        0.1484
     33 H          -1.9366   -1.5679    0.5547 H       1  UNL1        0.0600
     34 H          -1.5445    1.0617   -0.9755 H       1  UNL1        0.1495
     35 H           1.1309    1.6527   -0.2988 H       1  UNL1        0.0413
     36 H           2.4559    2.0244    1.6950 H       1  UNL1        0.0273
     37 H           1.3126    1.0695    2.7059 H       1  UNL1        0.0273
     38 H           3.4050   -0.0569    2.1112 H       1  UNL1        0.0269
     39 H           2.0630   -1.0221    1.5163 H       1  UNL1        0.0269
     40 H           2.5677    0.2877   -0.8055 H       1  UNL1        0.0313
     41 H           3.9205    0.9679    0.1141 H       1  UNL1        0.0313
     42 H           2.4031   -2.0467   -1.2769 H       1  UNL1        0.0620
     43 H           3.6186   -4.0506   -1.8531 H       1  UNL1        0.0618
     44 H           5.9996   -4.3116   -1.2109 H       1  UNL1        0.0618
     45 H           7.0746   -2.4136    0.0538 H       1  UNL1        0.0618
     46 H           5.8028   -0.3851    0.6237 H       1  UNL1        0.0620
     47 H          -0.3009    2.8208    2.1541 H       1  UNL1        0.0530
     48 H          -0.9343    4.4865    0.3306 H       1  UNL1        0.0249
     49 H          -0.5849    3.2323   -0.8617 H       1  UNL1        0.0249
     50 H          -1.9660    2.9759    0.3620 H       1  UNL1        0.0249
     51 H           1.9631    4.9322   -0.2819 H       1  UNL1        0.2417
     52 H           2.4435    5.1695    2.2160 H       1  UNL1        0.1274
     53 H          -4.3713   -2.3337    0.9091 H       1  UNL1        0.0236
     54 H          -5.1527   -1.8092   -0.7014 H       1  UNL1        0.0236
     55 H          -5.5376   -1.0229    0.8229 H       1  UNL1        0.0236
     56 H          -3.6623    1.5116   -0.9509 H       1  UNL1        0.0236
     57 H          -5.2603    0.7347   -0.6672 H       1  UNL1        0.0236
     58 H          -4.2096    0.0624   -1.9437 H       1  UNL1        0.0236
     59 H          -3.5802   -0.3778    2.2245 H       1  UNL1        0.0236
     60 H          -4.6037    0.9222    1.5546 H       1  UNL1        0.0236
     61 H          -2.7555    1.0199    1.5063 H       1  UNL1        0.0236
@<TRIPOS>BOND
     1     1     2    1
     2     2     3   am
     3     3     4    2
     4     3     5    1
     5     5     6    1
     6     6     7   am
     7     7     8    2
     8     7     9    1
     9     9    10    1
    10    10    11    1
    11    11    12    1
    12    12    13    1
    13    13    14   ar
    14    14    15   ar
    15    15    16   ar
    16    16    17   ar
    17    17    18   ar
    18     9    19    1
    19    19    20    1
    20    19    21    1
    21    21    22    1
    22    21    23   am
    23    23    24    2
    24     5    25    1
    25    25    26    1
    26    25    27    1
    27    25    28    1
    28    18    13   ar
    29     1    29    1
    30     1    30    1
    31     1    31    1
    32     2    32    1
    33     5    33    1
    34     6    34    1
    35     9    35    1
    36    10    36    1
    37    10    37    1
    38    11    38    1
    39    11    39    1
    40    12    40    1
    41    12    41    1
    42    14    42    1
    43    15    43    1
    44    16    44    1
    45    17    45    1
    46    18    46    1
    47    19    47    1
    48    20    48    1
    49    20    49    1
    50    20    50    1
    51    22    51    1
    52    23    52    1
    53    26    53    1
    54    26    54    1
    55    26    55    1
    56    27    56    1
    57    27    57    1
    58    27    58    1
    59    28    59    1
    60    28    60    1
    61    28    61    1
