@<TRIPOS>MOLECULE
*****
 48 50 0 0 0
SMALL
GASTEIGER

@<TRIPOS>ATOM
      1 C          -2.0327   -0.0079   -1.9195 C.3     1  UNL1       -0.0455
      2 C          -1.6533   -0.1256   -0.4876 C.3     1  UNL1        0.0306
      3 N          -1.0667    1.0305    0.1224 N.3     1  UNL1       -0.3095
      4 C           0.1316    1.4952   -0.4633 C.3     1  UNL1       -0.0033
      5 C           1.3398    0.6210   -0.3202 C.3     1  UNL1       -0.0364
      6 C           2.5366    1.2871   -1.0170 C.3     1  UNL1       -0.0265
      7 C           3.7472    0.4532   -0.8978 C.ar    1  UNL1       -0.0468
      8 C           4.6092    0.6108    0.1672 C.ar    1  UNL1       -0.0469
      9 C           5.7239   -0.1983    0.2254 C.ar    1  UNL1        0.0551
     10 C           5.9854   -1.1539   -0.7588 C.ar    1  UNL1       -0.0501
     11 C           5.1147   -1.3056   -1.8258 C.ar    1  UNL1       -0.0610
     12 C           4.0043   -0.4905   -1.8716 C.ar    1  UNL1       -0.0585
     13 C           6.6890   -0.0576    1.3717 C.3     1  UNL1        0.4174
     14 F           7.1746    1.2433    1.2825 F       1  UNL1       -0.1659
     15 F           5.9627   -0.1285    2.5381 F       1  UNL1       -0.1659
     16 F           7.6719   -1.0048    1.2663 F       1  UNL1       -0.1659
     17 C          -2.7098   -0.7801    0.3233 C.ar    1  UNL1       -0.0231
     18 C          -2.6871   -2.1331    0.6466 C.ar    1  UNL1       -0.0565
     19 C          -3.6312   -2.7928    1.4041 C.ar    1  UNL1       -0.0609
     20 C          -4.6892   -2.0659    1.8869 C.ar    1  UNL1       -0.0540
     21 C          -4.7653   -0.7203    1.5978 C.ar    1  UNL1       -0.0176
     22 C          -5.8718   -0.0619    2.1241 C.ar    1  UNL1       -0.0540
     23 C          -5.9567    1.2832    1.8361 C.ar    1  UNL1       -0.0612
     24 C          -5.0163    1.9739    1.0721 C.ar    1  UNL1       -0.0612
     25 C          -3.9652    1.2221    0.6045 C.ar    1  UNL1       -0.0537
     26 C          -3.7951   -0.1193    0.8386 C.ar    1  UNL1       -0.0132
     27 H          -1.4162   -0.6315   -2.6199 H       1  UNL1        0.0248
     28 H          -3.0649   -0.4583   -2.0329 H       1  UNL1        0.0248
     29 H          -2.1349    1.0062   -2.3099 H       1  UNL1        0.0248
     30 H          -0.8013   -0.8824   -0.4826 H       1  UNL1        0.0507
     31 H          -1.0569    0.9314    1.1473 H       1  UNL1        0.1225
     32 H           0.3825    2.4648    0.0551 H       1  UNL1        0.0424
     33 H          -0.0513    1.8064   -1.5157 H       1  UNL1        0.0424
     34 H           1.1570   -0.3186   -0.8826 H       1  UNL1        0.0281
     35 H           1.6247    0.4383    0.7157 H       1  UNL1        0.0281
     36 H           2.7229    2.2791   -0.5312 H       1  UNL1        0.0314
     37 H           2.3567    1.4866   -2.0777 H       1  UNL1        0.0314
     38 H           4.4402    1.3383    0.9473 H       1  UNL1        0.0626
     39 H           6.8801   -1.7443   -0.6315 H       1  UNL1        0.0623
     40 H           5.4007   -2.0683   -2.5355 H       1  UNL1        0.0618
     41 H           3.3746   -0.6776   -2.7432 H       1  UNL1        0.0620
     42 H          -1.8697   -2.7485    0.2890 H       1  UNL1        0.0621
     43 H          -3.5415   -3.8512    1.6109 H       1  UNL1        0.0618
     44 H          -5.4405   -2.5628    2.4844 H       1  UNL1        0.0624
     45 H          -6.6281   -0.5476    2.7192 H       1  UNL1        0.0624
     46 H          -6.8031    1.8729    2.2150 H       1  UNL1        0.0618
     47 H          -5.1295    3.0248    0.8757 H       1  UNL1        0.0618
     48 H          -3.2523    1.7681    0.0123 H       1  UNL1        0.0624
@<TRIPOS>BOND
     1     1     2    1
     2     2     3    1
     3     3     4    1
     4     4     5    1
     5     5     6    1
     6     6     7    1
     7     7     8   ar
     8     8     9   ar
     9     9    10   ar
    10    10    11   ar
    11    11    12   ar
    12     9    13    1
    13    13    14    1
    14    13    15    1
    15    13    16    1
    16     2    17    1
    17    17    18   ar
    18    18    19   ar
    19    19    20   ar
    20    20    21   ar
    21    21    22   ar
    22    22    23   ar
    23    23    24   ar
    24    24    25   ar
    25    25    26   ar
    26    12     7   ar
    27    26    17   ar
    28    26    21   ar
    29     1    27    1
    30     1    28    1
    31     1    29    1
    32     2    30    1
    33     3    31    1
    34     4    32    1
    35     4    33    1
    36     5    34    1
    37     5    35    1
    38     6    36    1
    39     6    37    1
    40     8    38    1
    41    10    39    1
    42    11    40    1
    43    12    41    1
    44    18    42    1
    45    19    43    1
    46    20    44    1
    47    22    45    1
    48    23    46    1
    49    24    47    1
    50    25    48    1
