
     RDKit          3D

 58 60  0  0  0  0  0  0  0  0999 V2000
    4.5608   -1.6947    0.8330 C   0  0  0  0  0  0  0  0  0  0  0  0
    4.2138   -0.3061    0.6481 N   0  0  0  0  0  0  0  0  0  0  0  0
    2.7994   -0.2510    0.2357 C   0  0  0  0  0  0  0  0  0  0  0  0
    1.8940   -0.6467    1.3526 C   0  0  0  0  0  0  0  0  0  0  0  0
    0.5640   -0.5958    1.0039 O   0  0  0  0  0  0  0  0  0  0  0  0
   -0.1733    0.4872    0.6863 C   0  0  0  0  0  0  0  0  0  0  0  0
    0.4068    1.7595    0.7302 C   0  0  0  0  0  0  0  0  0  0  0  0
   -0.3544    2.8763    0.4096 C   0  0  0  0  0  0  0  0  0  0  0  0
   -1.6709    2.7208    0.0530 C   0  0  0  0  0  0  0  0  0  0  0  0
   -2.4740    3.8732   -0.2951 C   0  0  0  0  0  0  0  0  0  0  0  0
   -2.2505    5.0934    0.2889 C   0  0  0  0  0  0  0  0  0  0  0  0
   -3.0205    6.1740   -0.0695 C   0  0  0  0  0  0  0  0  0  0  0  0
   -4.0229    6.0305   -1.0218 C   0  0  0  0  0  0  0  0  0  0  0  0
   -4.2249    4.7923   -1.5915 C   0  0  0  0  0  0  0  0  0  0  0  0
   -3.4616    3.7166   -1.2377 C   0  0  0  0  0  0  0  0  0  0  0  0
   -2.2200    1.4676    0.0182 C   0  0  0  0  0  0  0  0  0  0  0  0
   -1.4894    0.3110    0.3334 C   0  0  0  0  0  0  0  0  0  0  0  0
   -2.1045   -0.9852    0.2568 C   0  0  0  0  0  0  0  0  0  0  0  0
   -3.3798   -0.9642   -0.0021 O   0  0  0  0  0  0  0  0  0  0  0  0
   -1.4802   -2.3109    0.4346 C   0  0  0  0  0  0  0  0  0  0  0  0
   -2.6185   -3.2869    0.7358 C   0  0  0  0  0  0  0  0  0  0  0  0
   -3.1409   -3.8243   -0.5596 C   0  0  0  0  0  0  0  0  0  0  0  0
   -2.0908   -4.8402   -1.0346 C   0  0  0  0  0  0  0  0  0  0  0  0
   -0.7322   -4.1854   -1.0702 C   0  0  0  0  0  0  0  0  0  0  0  0
   -0.8195   -2.6872   -0.8727 C   0  0  0  0  0  0  0  0  0  0  0  0
    4.9663    0.3422   -0.4006 C   0  0  0  0  0  0  0  0  0  0  0  0
    6.4012    0.4880   -0.0503 C   0  0  0  0  0  0  0  0  0  0  0  0
    7.1316    1.0526   -0.9070 O   0  0  0  0  0  0  0  0  0  0  0  0
    6.9595    0.0559    1.1179 O   0  0  0  0  0  0  0  0  0  0  0  0
    3.9045   -2.3705    0.2256 H   0  0  0  0  0  0  0  0  0  0  0  0
    5.5921   -1.9033    0.4452 H   0  0  0  0  0  0  0  0  0  0  0  0
    4.4215   -2.0075    1.8831 H   0  0  0  0  0  0  0  0  0  0  0  0
    2.7777   -1.0940   -0.5573 H   0  0  0  0  0  0  0  0  0  0  0  0
    2.5644    0.6340   -0.3438 H   0  0  0  0  0  0  0  0  0  0  0  0
    2.1922   -1.6243    1.8076 H   0  0  0  0  0  0  0  0  0  0  0  0
    2.1076    0.0973    2.1888 H   0  0  0  0  0  0  0  0  0  0  0  0
    1.4239    1.8941    1.0388 H   0  0  0  0  0  0  0  0  0  0  0  0
    0.0847    3.8666    0.4386 H   0  0  0  0  0  0  0  0  0  0  0  0
   -1.4560    5.2161    1.0460 H   0  0  0  0  0  0  0  0  0  0  0  0
   -2.8562    7.1622    0.3902 H   0  0  0  0  0  0  0  0  0  0  0  0
   -4.6388    6.8623   -1.3184 H   0  0  0  0  0  0  0  0  0  0  0  0
   -5.0017    4.6310   -2.3452 H   0  0  0  0  0  0  0  0  0  0  0  0
   -3.6289    2.7258   -1.7000 H   0  0  0  0  0  0  0  0  0  0  0  0
   -3.2597    1.3506   -0.2595 H   0  0  0  0  0  0  0  0  0  0  0  0
   -0.8287   -2.3315    1.3030 H   0  0  0  0  0  0  0  0  0  0  0  0
   -2.2626   -4.1252    1.3668 H   0  0  0  0  0  0  0  0  0  0  0  0
   -3.4105   -2.7401    1.2936 H   0  0  0  0  0  0  0  0  0  0  0  0
   -4.0871   -4.3911   -0.4241 H   0  0  0  0  0  0  0  0  0  0  0  0
   -3.2555   -3.0899   -1.3568 H   0  0  0  0  0  0  0  0  0  0  0  0
   -2.3913   -5.2785   -1.9961 H   0  0  0  0  0  0  0  0  0  0  0  0
   -2.0401   -5.6224   -0.2504 H   0  0  0  0  0  0  0  0  0  0  0  0
   -0.0255   -4.5952   -0.3452 H   0  0  0  0  0  0  0  0  0  0  0  0
   -0.3153   -4.3531   -2.0830 H   0  0  0  0  0  0  0  0  0  0  0  0
   -1.3022   -2.2098   -1.7555 H   0  0  0  0  0  0  0  0  0  0  0  0
    0.2188   -2.3310   -0.8632 H   0  0  0  0  0  0  0  0  0  0  0  0
    4.4843    1.3308   -0.5753 H   0  0  0  0  0  0  0  0  0  0  0  0
    4.8492   -0.2558   -1.3255 H   0  0  0  0  0  0  0  0  0  0  0  0
    7.9704   -0.1098    1.2238 H   0  0  0  0  0  0  0  0  0  0  0  0
  1  2  1  0
  2  3  1  0
  3  4  1  0
  4  5  1  0
  5  6  1  0
  6  7  2  0
  7  8  1  0
  8  9  2  0
  9 10  1  0
 10 11  2  0
 11 12  1  0
 12 13  2  0
 13 14  1  0
 14 15  2  0
  9 16  1  0
 16 17  2  0
 17 18  1  0
 18 19  2  0
 18 20  1  0
 20 21  1  0
 21 22  1  0
 22 23  1  0
 23 24  1  0
 24 25  1  0
  2 26  1  0
 26 27  1  0
 27 28  2  0
 27 29  1  0
 17  6  1  0
 25 20  1  0
 15 10  1  0
  1 30  1  0
  1 31  1  0
  1 32  1  0
  3 33  1  0
  3 34  1  0
  4 35  1  0
  4 36  1  0
  7 37  1  0
  8 38  1  0
 11 39  1  0
 12 40  1  0
 13 41  1  0
 14 42  1  0
 15 43  1  0
 16 44  1  0
 20 45  1  0
 21 46  1  0
 21 47  1  0
 22 48  1  0
 22 49  1  0
 23 50  1  0
 23 51  1  0
 24 52  1  0
 24 53  1  0
 25 54  1  0
 25 55  1  0
 26 56  1  0
 26 57  1  0
 29 58  1  0
M  END
$$$$
