@<TRIPOS>MOLECULE
*****
 58 60 0 0 0
SMALL
GASTEIGER

@<TRIPOS>ATOM
      1 C           4.5608   -1.6947    0.8330 C.3     1  UNL1       -0.0121
      2 N           4.2138   -0.3061    0.6481 N.3     1  UNL1       -0.2923
      3 C           2.7994   -0.2510    0.2357 C.3     1  UNL1        0.0334
      4 C           1.8940   -0.6467    1.3526 C.3     1  UNL1        0.1023
      5 O           0.5640   -0.5958    1.0039 O.3     1  UNL1       -0.4900
      6 C          -0.1733    0.4872    0.6863 C.ar    1  UNL1        0.1311
      7 C           0.4068    1.7595    0.7302 C.ar    1  UNL1       -0.0187
      8 C          -0.3544    2.8763    0.4096 C.ar    1  UNL1       -0.0505
      9 C          -1.6709    2.7208    0.0530 C.ar    1  UNL1       -0.0170
     10 C          -2.4740    3.8732   -0.2951 C.ar    1  UNL1       -0.0179
     11 C          -2.2505    5.0934    0.2889 C.ar    1  UNL1       -0.0540
     12 C          -3.0205    6.1740   -0.0695 C.ar    1  UNL1       -0.0612
     13 C          -4.0229    6.0305   -1.0218 C.ar    1  UNL1       -0.0617
     14 C          -4.2249    4.7923   -1.5915 C.ar    1  UNL1       -0.0612
     15 C          -3.4616    3.7166   -1.2377 C.ar    1  UNL1       -0.0540
     16 C          -2.2200    1.4676    0.0182 C.ar    1  UNL1       -0.0400
     17 C          -1.4894    0.3110    0.3334 C.ar    1  UNL1        0.0598
     18 C          -2.1045   -0.9852    0.2568 C.2     1  UNL1        0.1697
     19 O          -3.3798   -0.9642   -0.0021 O.2     1  UNL1       -0.2916
     20 C          -1.4802   -2.3109    0.4346 C.3     1  UNL1        0.0223
     21 C          -2.6185   -3.2869    0.7358 C.3     1  UNL1       -0.0432
     22 C          -3.1409   -3.8243   -0.5596 C.3     1  UNL1       -0.0524
     23 C          -2.0908   -4.8402   -1.0346 C.3     1  UNL1       -0.0530
     24 C          -0.7322   -4.1854   -1.0702 C.3     1  UNL1       -0.0524
     25 C          -0.8195   -2.6872   -0.8727 C.3     1  UNL1       -0.0432
     26 C           4.9663    0.3422   -0.4006 C.3     1  UNL1        0.0966
     27 C           6.4012    0.4880   -0.0503 C.2     1  UNL1        0.3189
     28 O           7.1316    1.0526   -0.9070 O.2     1  UNL1       -0.2496
     29 O           6.9595    0.0559    1.1179 O.3     1  UNL1       -0.4797
     30 H           3.9045   -2.3705    0.2256 H       1  UNL1        0.0391
     31 H           5.5921   -1.9033    0.4452 H       1  UNL1        0.0391
     32 H           4.4215   -2.0075    1.8831 H       1  UNL1        0.0391
     33 H           2.7777   -1.0940   -0.5573 H       1  UNL1        0.0460
     34 H           2.5644    0.6340   -0.3438 H       1  UNL1        0.0460
     35 H           2.1922   -1.6243    1.8076 H       1  UNL1        0.0709
     36 H           2.1076    0.0973    2.1888 H       1  UNL1        0.0709
     37 H           1.4239    1.8941    1.0388 H       1  UNL1        0.0654
     38 H           0.0847    3.8666    0.4386 H       1  UNL1        0.0625
     39 H          -1.4560    5.2161    1.0460 H       1  UNL1        0.0624
     40 H          -2.8562    7.1622    0.3902 H       1  UNL1        0.0618
     41 H          -4.6388    6.8623   -1.3184 H       1  UNL1        0.0618
     42 H          -5.0017    4.6310   -2.3452 H       1  UNL1        0.0618
     43 H          -3.6289    2.7258   -1.7000 H       1  UNL1        0.0624
     44 H          -3.2597    1.3506   -0.2595 H       1  UNL1        0.0632
     45 H          -0.8287   -2.3315    1.3030 H       1  UNL1        0.0381
     46 H          -2.2626   -4.1252    1.3668 H       1  UNL1        0.0272
     47 H          -3.4105   -2.7401    1.2936 H       1  UNL1        0.0272
     48 H          -4.0871   -4.3911   -0.4241 H       1  UNL1        0.0265
     49 H          -3.2555   -3.0899   -1.3568 H       1  UNL1        0.0265
     50 H          -2.3913   -5.2785   -1.9961 H       1  UNL1        0.0265
     51 H          -2.0401   -5.6224   -0.2504 H       1  UNL1        0.0265
     52 H          -0.0255   -4.5952   -0.3452 H       1  UNL1        0.0265
     53 H          -0.3153   -4.3531   -2.0830 H       1  UNL1        0.0265
     54 H          -1.3022   -2.2098   -1.7555 H       1  UNL1        0.0272
     55 H           0.2188   -2.3310   -0.8632 H       1  UNL1        0.0272
     56 H           4.4843    1.3308   -0.5753 H       1  UNL1        0.0541
     57 H           4.8492   -0.2558   -1.3255 H       1  UNL1        0.0541
     58 H           7.9704   -0.1098    1.2238 H       1  UNL1        0.2951
@<TRIPOS>BOND
     1     1     2    1
     2     2     3    1
     3     3     4    1
     4     4     5    1
     5     5     6    1
     6     6     7   ar
     7     7     8   ar
     8     8     9   ar
     9     9    10    1
    10    10    11   ar
    11    11    12   ar
    12    12    13   ar
    13    13    14   ar
    14    14    15   ar
    15     9    16   ar
    16    16    17   ar
    17    17    18    1
    18    18    19    2
    19    18    20    1
    20    20    21    1
    21    21    22    1
    22    22    23    1
    23    23    24    1
    24    24    25    1
    25     2    26    1
    26    26    27    1
    27    27    28    2
    28    27    29    1
    29    17     6   ar
    30    25    20    1
    31    15    10   ar
    32     1    30    1
    33     1    31    1
    34     1    32    1
    35     3    33    1
    36     3    34    1
    37     4    35    1
    38     4    36    1
    39     7    37    1
    40     8    38    1
    41    11    39    1
    42    12    40    1
    43    13    41    1
    44    14    42    1
    45    15    43    1
    46    16    44    1
    47    20    45    1
    48    21    46    1
    49    21    47    1
    50    22    48    1
    51    22    49    1
    52    23    50    1
    53    23    51    1
    54    24    52    1
    55    24    53    1
    56    25    54    1
    57    25    55    1
    58    26    56    1
    59    26    57    1
    60    29    58    1
