@<TRIPOS>MOLECULE
*****
 36 39 0 0 0
SMALL
GASTEIGER

@<TRIPOS>ATOM
      1 N           6.2079    3.1963    0.7529 N.1     1  UNL1       -0.1909
      2 C           5.2536    2.5256    0.5833 C.1     1  UNL1        0.0992
      3 C           4.0988    1.7001    0.3994 C.ar    1  UNL1        0.0545
      4 C           3.7812    0.6903    1.2911 C.ar    1  UNL1       -0.0436
      5 C           2.6492   -0.0654    1.1122 C.ar    1  UNL1       -0.0485
      6 C           1.7787    0.1309    0.0561 C.ar    1  UNL1        0.0380
      7 C           0.6203   -0.7505   -0.0515 C.ar    1  UNL1        0.1080
      8 C          -0.7020   -0.3951   -0.1287 C.ar    1  UNL1        0.1537
      9 C          -1.3232    0.9126   -0.0701 C.2     1  UNL1        0.2648
     10 O          -0.7229    1.9879    0.0360 O.2     1  UNL1       -0.2684
     11 N          -2.7443    0.9899   -0.1377 N.am    1  UNL1       -0.3072
     12 C          -3.4329    2.2418   -0.0935 C.3     1  UNL1        0.0236
     13 C          -4.7850    2.2582   -0.7680 C.3     1  UNL1       -0.0328
     14 C          -4.6612    2.4101    0.7369 C.3     1  UNL1       -0.0328
     15 N          -1.3737   -1.5750   -0.2478 N.ar    1  UNL1       -0.2211
     16 C          -0.5263   -2.6040   -0.2443 C.ar    1  UNL1        0.1556
     17 C          -0.7041   -3.9692   -0.3375 C.ar    1  UNL1       -0.0159
     18 C           0.4016   -4.7859   -0.3030 C.ar    1  UNL1       -0.0384
     19 C           1.6749   -4.2419   -0.1764 C.ar    1  UNL1        0.0485
     20 N           1.7895   -2.9125   -0.0898 N.ar    1  UNL1       -0.1729
     21 N           0.7052   -2.1183   -0.1243 N.ar    1  UNL1       -0.2118
     22 C           2.1043    1.1293   -0.8204 C.ar    1  UNL1        0.1338
     23 F           1.3529    1.3773   -1.8998 F       1  UNL1       -0.2048
     24 C           3.2440    1.9121   -0.6642 C.ar    1  UNL1       -0.0084
     25 H           4.4578    0.5353    2.1134 H       1  UNL1        0.0631
     26 H           2.4080   -0.8658    1.8270 H       1  UNL1        0.0625
     27 H          -3.3170    0.1076   -0.2208 H       1  UNL1        0.1493
     28 H          -2.7632    3.1333   -0.1928 H       1  UNL1        0.0498
     29 H          -5.0923    3.1312   -1.3574 H       1  UNL1        0.0284
     30 H          -5.2327    1.3010   -1.1066 H       1  UNL1        0.0284
     31 H          -4.8564    3.4562    1.1007 H       1  UNL1        0.0284
     32 H          -4.9911    1.5720    1.3671 H       1  UNL1        0.0284
     33 H          -1.6762   -4.4069   -0.4349 H       1  UNL1        0.0655
     34 H           0.3367   -5.8755   -0.3715 H       1  UNL1        0.0634
     35 H           2.5682   -4.8389   -0.1464 H       1  UNL1        0.0847
     36 H           3.4719    2.7058   -1.3888 H       1  UNL1        0.0659
@<TRIPOS>BOND
     1     1     2    3
     2     2     3    1
     3     3     4   ar
     4     4     5   ar
     5     5     6   ar
     6     6     7    1
     7     7     8   ar
     8     8     9    1
     9     9    10    2
    10     9    11   am
    11    11    12    1
    12    12    13    1
    13    13    14    1
    14     8    15   ar
    15    15    16   ar
    16    16    17   ar
    17    17    18   ar
    18    18    19   ar
    19    19    20   ar
    20    20    21   ar
    21     6    22   ar
    22    22    23    1
    23    22    24   ar
    24    24     3   ar
    25    21     7   ar
    26    14    12    1
    27    21    16   ar
    28     4    25    1
    29     5    26    1
    30    11    27    1
    31    12    28    1
    32    13    29    1
    33    13    30    1
    34    14    31    1
    35    14    32    1
    36    17    33    1
    37    18    34    1
    38    19    35    1
    39    24    36    1
