@<TRIPOS>MOLECULE
*****
 30 31 0 0 0
SMALL
GASTEIGER

@<TRIPOS>ATOM
      1 C          -0.4486    2.7639   -0.5704 C.3     1  UNL1       -0.0636
      2 C          -0.8252    1.7188    0.3944 C.3     1  UNL1       -0.0293
      3 C          -0.4920    0.3095    0.0890 C.3     1  UNL1        0.1471
      4 C          -1.0420   -0.4693    1.2687 C.2     1  UNL1        0.2336
      5 O          -0.3906   -0.1278    2.3143 O.2     1  UNL1       -0.2743
      6 N          -2.0999   -1.4182    1.2281 N.am    1  UNL1       -0.2986
      7 C          -2.9389   -1.2411    0.0690 C.3     1  UNL1        0.0780
      8 N          -2.1744   -1.1944   -1.1628 N.am    1  UNL1       -0.2986
      9 C          -1.1213   -0.2221   -1.1324 C.2     1  UNL1        0.2336
     10 O          -0.6317    0.2746   -2.2015 O.2     1  UNL1       -0.2743
     11 C           0.9509   -0.0053    0.0347 C.ar    1  UNL1       -0.0237
     12 C           2.0880    0.7556   -0.1018 C.ar    1  UNL1       -0.0571
     13 C           3.3523    0.2181   -0.1381 C.ar    1  UNL1       -0.0615
     14 C           3.5362   -1.1433   -0.0361 C.ar    1  UNL1       -0.0617
     15 C           2.4337   -1.9537    0.1025 C.ar    1  UNL1       -0.0615
     16 C           1.1834   -1.3861    0.1353 C.ar    1  UNL1       -0.0571
     17 H          -1.3575    3.3748   -0.8588 H       1  UNL1        0.0230
     18 H           0.0298    2.4407   -1.5127 H       1  UNL1        0.0230
     19 H           0.2230    3.5059   -0.0958 H       1  UNL1        0.0230
     20 H          -0.3388    1.9471    1.3941 H       1  UNL1        0.0280
     21 H          -1.9247    1.8216    0.6297 H       1  UNL1        0.0280
     22 H          -2.0962   -2.0788    2.0329 H       1  UNL1        0.1502
     23 H          -3.7712   -1.9843    0.0152 H       1  UNL1        0.0670
     24 H          -3.4441   -0.2388    0.1913 H       1  UNL1        0.0670
     25 H          -2.2959   -1.7579   -2.0248 H       1  UNL1        0.1502
     26 H           1.8667    1.8076   -0.1711 H       1  UNL1        0.0621
     27 H           4.1470    0.9597   -0.2511 H       1  UNL1        0.0618
     28 H           4.5557   -1.5162   -0.0704 H       1  UNL1        0.0618
     29 H           2.6293   -3.0117    0.1785 H       1  UNL1        0.0618
     30 H           0.3970   -2.1491    0.2497 H       1  UNL1        0.0621
@<TRIPOS>BOND
     1     1     2    1
     2     2     3    1
     3     3     4    1
     4     4     5    2
     5     4     6   am
     6     6     7    1
     7     7     8    1
     8     8     9   am
     9     9    10    2
    10     3    11    1
    11    11    12   ar
    12    12    13   ar
    13    13    14   ar
    14    14    15   ar
    15    15    16   ar
    16     9     3    1
    17    16    11   ar
    18     1    17    1
    19     1    18    1
    20     1    19    1
    21     2    20    1
    22     2    21    1
    23     6    22    1
    24     7    23    1
    25     7    24    1
    26     8    25    1
    27    12    26    1
    28    13    27    1
    29    14    28    1
    30    15    29    1
    31    16    30    1
