@<TRIPOS>MOLECULE
*****
 61 64 0 0 0
SMALL
GASTEIGER

@<TRIPOS>ATOM
      1 C           3.9552    3.3829    3.0224 C.3     1  UNL1        0.0788
      2 O           5.2592    3.2141    2.5901 O.3     1  UNL1       -0.4937
      3 C           5.6574    2.4273    1.5535 C.ar    1  UNL1        0.1407
      4 C           4.8112    1.6343    0.7661 C.ar    1  UNL1        0.0052
      5 C           5.2049    0.8466   -0.2652 C.ar    1  UNL1        0.0744
      6 C           4.2230   -0.0108   -1.0006 C.3     1  UNL1        0.1097
      7 O           4.9757   -1.1966   -1.2608 O.3     1  UNL1       -0.3844
      8 C           3.1731   -0.4107   -0.0132 C.3     1  UNL1        0.0306
      9 N           2.2936   -1.4608   -0.4101 N.3     1  UNL1       -0.2971
     10 C           1.3956   -1.2001   -1.4917 C.3     1  UNL1        0.0118
     11 C           0.2924   -0.3109   -0.9740 C.3     1  UNL1        0.0118
     12 N          -0.4523   -0.9588    0.0218 N.3     1  UNL1       -0.2971
     13 C          -1.8255   -1.2966   -0.2943 C.3     1  UNL1        0.0292
     14 C          -2.6463   -0.0844   -0.4956 C.3     1  UNL1        0.0931
     15 O          -2.6718    0.7370    0.5985 O.3     1  UNL1       -0.3859
     16 C          -4.0296   -0.4099   -0.9798 C.ar    1  UNL1       -0.0146
     17 C          -4.2260   -0.8534   -2.2702 C.ar    1  UNL1       -0.0550
     18 C          -5.4927   -1.1805   -2.7983 C.ar    1  UNL1       -0.0470
     19 C          -6.5603   -1.0236   -1.9092 C.ar    1  UNL1        0.0656
     20 C          -6.3998   -0.5981   -0.6527 C.ar    1  UNL1        0.0069
     21 C          -5.1112   -0.2763   -0.1509 C.ar    1  UNL1       -0.0376
     22 C          -4.9500    0.1897    1.2249 C.3     1  UNL1       -0.0390
     23 C          -7.7354   -0.5596    0.0166 C.3     1  UNL1        0.1189
     24 O          -8.6580   -0.9102   -1.0126 O.3     1  UNL1       -0.4564
     25 C          -7.9763   -1.2369   -2.1739 C.2     1  UNL1        0.3399
     26 O          -8.5212   -1.6490   -3.2720 O.2     1  UNL1       -0.2449
     27 C           0.1929   -1.9884    0.7845 C.3     1  UNL1        0.0118
     28 C           1.6566   -2.1152    0.7081 C.3     1  UNL1        0.0118
     29 N           6.5453    0.8115   -0.5829 N.ar    1  UNL1       -0.2557
     30 C           7.3835    1.5918    0.1895 C.ar    1  UNL1        0.0489
     31 C           7.0195    2.3445    1.1730 C.ar    1  UNL1        0.1113
     32 C           7.9208    3.1942    1.9763 C.1     1  UNL1        0.1044
     33 N           8.6437    3.8519    2.5977 N.1     1  UNL1       -0.1907
     34 H           3.9306    3.6303    4.1320 H       1  UNL1        0.0660
     35 H           3.2582    2.5539    2.8678 H       1  UNL1        0.0660
     36 H           3.5130    4.2592    2.4581 H       1  UNL1        0.0660
     37 H           3.7639    1.7263    1.0932 H       1  UNL1        0.0673
     38 H           3.8942    0.4959   -1.8913 H       1  UNL1        0.0672
     39 H           4.3608   -1.9174   -1.5644 H       1  UNL1        0.2104
     40 H           2.5560    0.4407    0.3268 H       1  UNL1        0.0456
     41 H           3.6984   -0.7745    0.9093 H       1  UNL1        0.0456
     42 H           1.9487   -0.6395   -2.2749 H       1  UNL1        0.0439
     43 H           0.9279   -2.1291   -1.8605 H       1  UNL1        0.0439
     44 H           0.8289    0.6086   -0.5449 H       1  UNL1        0.0439
     45 H          -0.3750    0.0319   -1.8088 H       1  UNL1        0.0439
     46 H          -1.8700   -2.0206   -1.1163 H       1  UNL1        0.0455
     47 H          -2.2242   -1.8357    0.6038 H       1  UNL1        0.0455
     48 H          -2.1728    0.5327   -1.3187 H       1  UNL1        0.0656
     49 H          -1.7630    1.0374    0.8356 H       1  UNL1        0.2103
     50 H          -3.3625   -0.9532   -2.9046 H       1  UNL1        0.0621
     51 H          -5.6652   -1.5229   -3.7826 H       1  UNL1        0.0626
     52 H          -4.2656   -0.4355    1.8374 H       1  UNL1        0.0278
     53 H          -4.7664    1.2813    1.3164 H       1  UNL1        0.0278
     54 H          -5.9501    0.0599    1.7476 H       1  UNL1        0.0278
     55 H          -7.9475    0.4904    0.2628 H       1  UNL1        0.0749
     56 H          -7.8271   -1.2666    0.8607 H       1  UNL1        0.0749
     57 H          -0.1037   -1.8047    1.8667 H       1  UNL1        0.0439
     58 H          -0.2907   -2.9638    0.5158 H       1  UNL1        0.0439
     59 H           2.1512   -1.7174    1.6223 H       1  UNL1        0.0439
     60 H           1.9310   -3.2136    0.6757 H       1  UNL1        0.0439
     61 H           8.4739    1.5514   -0.0800 H       1  UNL1        0.0844
@<TRIPOS>BOND
     1     1     2    1
     2     2     3    1
     3     3     4   ar
     4     4     5   ar
     5     5     6    1
     6     6     7    1
     7     6     8    1
     8     8     9    1
     9     9    10    1
    10    10    11    1
    11    11    12    1
    12    12    13    1
    13    13    14    1
    14    14    15    1
    15    14    16    1
    16    16    17   ar
    17    17    18   ar
    18    18    19   ar
    19    19    20   ar
    20    20    21   ar
    21    21    22    1
    22    20    23    1
    23    23    24    1
    24    24    25    1
    25    25    26    2
    26    12    27    1
    27    27    28    1
    28     5    29   ar
    29    29    30   ar
    30    30    31   ar
    31    31    32    1
    32    32    33    3
    33    31     3   ar
    34    28     9    1
    35    21    16   ar
    36    25    19    1
    37     1    34    1
    38     1    35    1
    39     1    36    1
    40     4    37    1
    41     6    38    1
    42     7    39    1
    43     8    40    1
    44     8    41    1
    45    10    42    1
    46    10    43    1
    47    11    44    1
    48    11    45    1
    49    13    46    1
    50    13    47    1
    51    14    48    1
    52    15    49    1
    53    17    50    1
    54    18    51    1
    55    22    52    1
    56    22    53    1
    57    22    54    1
    58    23    55    1
    59    23    56    1
    60    27    57    1
    61    27    58    1
    62    28    59    1
    63    28    60    1
    64    30    61    1
