
     RDKit          3D

 61 64  0  0  0  0  0  0  0  0999 V2000
    3.9552    3.3829    3.0224 C   0  0  0  0  0  0  0  0  0  0  0  0
    5.2592    3.2141    2.5901 O   0  0  0  0  0  0  0  0  0  0  0  0
    5.6574    2.4273    1.5535 C   0  0  0  0  0  0  0  0  0  0  0  0
    4.8112    1.6343    0.7661 C   0  0  0  0  0  0  0  0  0  0  0  0
    5.2049    0.8466   -0.2652 C   0  0  0  0  0  0  0  0  0  0  0  0
    4.2230   -0.0108   -1.0006 C   0  0  1  0  0  0  0  0  0  0  0  0
    4.9757   -1.1966   -1.2608 O   0  0  0  0  0  0  0  0  0  0  0  0
    3.1731   -0.4107   -0.0132 C   0  0  0  0  0  0  0  0  0  0  0  0
    2.2936   -1.4608   -0.4101 N   0  0  0  0  0  0  0  0  0  0  0  0
    1.3956   -1.2001   -1.4917 C   0  0  0  0  0  0  0  0  0  0  0  0
    0.2924   -0.3109   -0.9740 C   0  0  0  0  0  0  0  0  0  0  0  0
   -0.4523   -0.9588    0.0218 N   0  0  0  0  0  0  0  0  0  0  0  0
   -1.8255   -1.2966   -0.2943 C   0  0  0  0  0  0  0  0  0  0  0  0
   -2.6463   -0.0844   -0.4956 C   0  0  2  0  0  0  0  0  0  0  0  0
   -2.6718    0.7370    0.5985 O   0  0  0  0  0  0  0  0  0  0  0  0
   -4.0296   -0.4099   -0.9798 C   0  0  0  0  0  0  0  0  0  0  0  0
   -4.2260   -0.8534   -2.2702 C   0  0  0  0  0  0  0  0  0  0  0  0
   -5.4927   -1.1805   -2.7983 C   0  0  0  0  0  0  0  0  0  0  0  0
   -6.5603   -1.0236   -1.9092 C   0  0  0  0  0  0  0  0  0  0  0  0
   -6.3998   -0.5981   -0.6527 C   0  0  0  0  0  0  0  0  0  0  0  0
   -5.1112   -0.2763   -0.1509 C   0  0  0  0  0  0  0  0  0  0  0  0
   -4.9500    0.1897    1.2249 C   0  0  0  0  0  0  0  0  0  0  0  0
   -7.7354   -0.5596    0.0166 C   0  0  0  0  0  0  0  0  0  0  0  0
   -8.6580   -0.9102   -1.0126 O   0  0  0  0  0  0  0  0  0  0  0  0
   -7.9763   -1.2369   -2.1739 C   0  0  0  0  0  0  0  0  0  0  0  0
   -8.5212   -1.6490   -3.2720 O   0  0  0  0  0  0  0  0  0  0  0  0
    0.1929   -1.9884    0.7845 C   0  0  0  0  0  0  0  0  0  0  0  0
    1.6566   -2.1152    0.7081 C   0  0  0  0  0  0  0  0  0  0  0  0
    6.5453    0.8115   -0.5829 N   0  0  0  0  0  0  0  0  0  0  0  0
    7.3835    1.5918    0.1895 C   0  0  0  0  0  0  0  0  0  0  0  0
    7.0195    2.3445    1.1730 C   0  0  0  0  0  0  0  0  0  0  0  0
    7.9208    3.1942    1.9763 C   0  0  0  0  0  0  0  0  0  0  0  0
    8.6437    3.8519    2.5977 N   0  0  0  0  0  0  0  0  0  0  0  0
    3.9306    3.6303    4.1320 H   0  0  0  0  0  0  0  0  0  0  0  0
    3.2582    2.5539    2.8678 H   0  0  0  0  0  0  0  0  0  0  0  0
    3.5130    4.2592    2.4581 H   0  0  0  0  0  0  0  0  0  0  0  0
    3.7639    1.7263    1.0932 H   0  0  0  0  0  0  0  0  0  0  0  0
    3.8942    0.4959   -1.8913 H   0  0  0  0  0  0  0  0  0  0  0  0
    4.3608   -1.9174   -1.5644 H   0  0  0  0  0  0  0  0  0  0  0  0
    2.5560    0.4407    0.3268 H   0  0  0  0  0  0  0  0  0  0  0  0
    3.6984   -0.7745    0.9093 H   0  0  0  0  0  0  0  0  0  0  0  0
    1.9487   -0.6395   -2.2749 H   0  0  0  0  0  0  0  0  0  0  0  0
    0.9279   -2.1291   -1.8605 H   0  0  0  0  0  0  0  0  0  0  0  0
    0.8289    0.6086   -0.5449 H   0  0  0  0  0  0  0  0  0  0  0  0
   -0.3750    0.0319   -1.8088 H   0  0  0  0  0  0  0  0  0  0  0  0
   -1.8700   -2.0206   -1.1163 H   0  0  0  0  0  0  0  0  0  0  0  0
   -2.2242   -1.8357    0.6038 H   0  0  0  0  0  0  0  0  0  0  0  0
   -2.1728    0.5327   -1.3187 H   0  0  0  0  0  0  0  0  0  0  0  0
   -1.7630    1.0374    0.8356 H   0  0  0  0  0  0  0  0  0  0  0  0
   -3.3625   -0.9532   -2.9046 H   0  0  0  0  0  0  0  0  0  0  0  0
   -5.6652   -1.5229   -3.7826 H   0  0  0  0  0  0  0  0  0  0  0  0
   -4.2656   -0.4355    1.8374 H   0  0  0  0  0  0  0  0  0  0  0  0
   -4.7664    1.2813    1.3164 H   0  0  0  0  0  0  0  0  0  0  0  0
   -5.9501    0.0599    1.7476 H   0  0  0  0  0  0  0  0  0  0  0  0
   -7.9475    0.4904    0.2628 H   0  0  0  0  0  0  0  0  0  0  0  0
   -7.8271   -1.2666    0.8607 H   0  0  0  0  0  0  0  0  0  0  0  0
   -0.1037   -1.8047    1.8667 H   0  0  0  0  0  0  0  0  0  0  0  0
   -0.2907   -2.9638    0.5158 H   0  0  0  0  0  0  0  0  0  0  0  0
    2.1512   -1.7174    1.6223 H   0  0  0  0  0  0  0  0  0  0  0  0
    1.9310   -3.2136    0.6757 H   0  0  0  0  0  0  0  0  0  0  0  0
    8.4739    1.5514   -0.0800 H   0  0  0  0  0  0  0  0  0  0  0  0
  1  2  1  0
  2  3  1  0
  3  4  2  0
  4  5  1  0
  5  6  1  0
  6  7  1  0
  6  8  1  0
  8  9  1  0
  9 10  1  0
 10 11  1  0
 11 12  1  0
 12 13  1  0
 13 14  1  0
 14 15  1  0
 14 16  1  0
 16 17  2  0
 17 18  1  0
 18 19  2  0
 19 20  1  0
 20 21  2  0
 21 22  1  0
 20 23  1  0
 23 24  1  0
 24 25  1  0
 25 26  2  0
 12 27  1  0
 27 28  1  0
  5 29  2  0
 29 30  1  0
 30 31  2  0
 31 32  1  0
 32 33  3  0
 31  3  1  0
 28  9  1  0
 21 16  1  0
 25 19  1  0
  1 34  1  0
  1 35  1  0
  1 36  1  0
  4 37  1  0
  6 38  1  6
  7 39  1  0
  8 40  1  0
  8 41  1  0
 10 42  1  0
 10 43  1  0
 11 44  1  0
 11 45  1  0
 13 46  1  0
 13 47  1  0
 14 48  1  6
 15 49  1  0
 17 50  1  0
 18 51  1  0
 22 52  1  0
 22 53  1  0
 22 54  1  0
 23 55  1  0
 23 56  1  0
 27 57  1  0
 27 58  1  0
 28 59  1  0
 28 60  1  0
 30 61  1  0
M  END
$$$$
