
     RDKit          3D

116118  0  0  0  0  0  0  0  0999 V2000
   -6.7492    2.0888    1.1215 C   0  0  0  0  0  0  0  0  0  0  0  0
   -6.5731    0.6244    0.9776 C   0  0  0  0  0  0  0  0  0  0  0  0
   -5.9700    0.1442   -0.2893 C   0  0  2  0  0  0  0  0  0  0  0  0
   -5.8760   -1.3722   -0.2539 C   0  0  0  0  0  0  0  0  0  0  0  0
   -4.6295    0.7440   -0.6576 C   0  0  2  0  0  0  0  0  0  0  0  0
   -3.6799    0.5216    0.3906 N   0  0  0  0  0  0  0  0  0  0  0  0
   -2.8227   -0.6419    0.4864 C   0  0  0  0  0  0  0  0  0  0  0  0
   -2.8905   -1.5244   -0.3890 O   0  0  0  0  0  0  0  0  0  0  0  0
   -1.8978   -0.7509    1.6305 C   0  0  0  0  0  0  0  0  0  0  0  0
   -1.4857   -2.0709    2.0880 C   0  0  2  0  0  0  0  0  0  0  0  0
   -0.6031   -1.9874    3.2157 O   0  0  0  0  0  0  0  0  0  0  0  0
   -0.9793   -3.1105    1.1444 C   0  0  2  0  0  0  0  0  0  0  0  0
   -1.0282   -4.4102    1.9491 C   0  0  0  0  0  0  0  0  0  0  0  0
   -0.5592   -5.6228    1.2575 C   0  0  0  0  0  0  0  0  0  0  0  0
   -1.2758   -6.0084    0.0047 C   0  0  0  0  0  0  0  0  0  0  0  0
   -0.2834   -6.8099   -0.8550 C   0  0  0  0  0  0  0  0  0  0  0  0
    0.3910   -7.8490   -0.0267 C   0  0  0  0  0  0  0  0  0  0  0  0
    1.2258   -7.2757    1.0851 C   0  0  0  0  0  0  0  0  0  0  0  0
    0.9596   -5.7580    1.1549 C   0  0  0  0  0  0  0  0  0  0  0  0
    0.3658   -2.8435    0.6910 N   0  0  0  0  0  0  0  0  0  0  0  0
    0.6896   -2.6866   -0.6849 C   0  0  0  0  0  0  0  0  0  0  0  0
   -0.1845   -2.7437   -1.5838 O   0  0  0  0  0  0  0  0  0  0  0  0
    2.1417   -2.4544   -1.0457 C   0  0  0  0  0  0  0  0  0  0  0  0
    3.1539   -2.3408    0.4260 S   0  0  0  0  0  0  0  0  0  0  0  0
    2.9791   -0.7981    1.3062 C   0  0  0  0  0  0  0  0  0  0  0  0
    3.6744    0.3612    0.6245 C   0  0  0  0  0  0  0  0  0  0  0  0
    3.3591    1.4507    1.0735 O   0  0  0  0  0  0  0  0  0  0  0  0
    4.6534    0.1735   -0.4841 C   0  0  2  0  0  0  0  0  0  0  0  0
    5.8315   -0.6666   -0.0189 C   0  0  0  0  0  0  0  0  0  0  0  0
    6.8318   -0.8983   -1.0742 C   0  0  0  0  0  0  0  0  0  0  0  0
    6.7388   -1.9440   -1.9439 C   0  0  0  0  0  0  0  0  0  0  0  0
    7.6965   -2.1732   -2.9355 C   0  0  0  0  0  0  0  0  0  0  0  0
    8.7670   -1.3250   -3.0452 C   0  0  0  0  0  0  0  0  0  0  0  0
    8.8851   -0.2567   -2.1744 C   0  0  0  0  0  0  0  0  0  0  0  0
    7.9119   -0.0614   -1.2008 C   0  0  0  0  0  0  0  0  0  0  0  0
    5.1540    1.4536   -0.9111 N   0  0  0  0  0  0  0  0  0  0  0  0
    5.7498    2.3558    0.0261 C   0  0  0  0  0  0  0  0  0  0  0  0
    5.8596    2.0719    1.2520 O   0  0  0  0  0  0  0  0  0  0  0  0
    6.2382    3.5890   -0.3753 O   0  0  0  0  0  0  0  0  0  0  0  0
    6.8268    4.4756    0.5652 C   0  0  0  0  0  0  0  0  0  0  0  0
    5.8896    4.8946    1.6590 C   0  0  0  0  0  0  0  0  0  0  0  0
    7.9772    3.6987    1.2174 C   0  0  0  0  0  0  0  0  0  0  0  0
    7.4495    5.6436   -0.1774 C   0  0  0  0  0  0  0  0  0  0  0  0
   -4.7282    2.1449   -1.0852 C   0  0  0  0  0  0  0  0  0  0  0  0
   -4.1189    3.0288   -0.4541 O   0  0  0  0  0  0  0  0  0  0  0  0
   -5.5052    2.5038   -2.2104 N   0  0  0  0  0  0  0  0  0  0  0  0
   -5.6204    3.8625   -2.6689 C   0  0  0  0  0  0  0  0  0  0  0  0
   -6.2815    4.7265   -1.6723 C   0  0  0  0  0  0  0  0  0  0  0  0
   -5.6258    5.6005   -0.8463 C   0  0  0  0  0  0  0  0  0  0  0  0
   -6.3197    6.3630    0.0403 N   0  0  0  0  0  0  0  0  0  0  0  0
   -7.6593    6.2978    0.1496 C   0  0  0  0  0  0  0  0  0  0  0  0
   -8.3900    7.1439    1.1280 C   0  0  0  0  0  0  0  0  0  0  0  0
   -8.3251    5.4499   -0.6473 N   0  0  0  0  0  0  0  0  0  0  0  0
   -7.6753    4.6664   -1.5512 C   0  0  0  0  0  0  0  0  0  0  0  0
   -8.3916    3.7817   -2.3897 N   0  0  0  0  0  0  0  0  0  0  0  0
   -6.8984    2.5544    0.1363 H   0  0  0  0  0  0  0  0  0  0  0  0
   -5.8772    2.6254    1.5976 H   0  0  0  0  0  0  0  0  0  0  0  0
   -7.6848    2.3260    1.7046 H   0  0  0  0  0  0  0  0  0  0  0  0
   -6.0030    0.1837    1.8593 H   0  0  0  0  0  0  0  0  0  0  0  0
   -7.5990    0.1496    1.0848 H   0  0  0  0  0  0  0  0  0  0  0  0
   -6.6791    0.3967   -1.1187 H   0  0  0  0  0  0  0  0  0  0  0  0
   -5.4643   -1.7496   -1.1856 H   0  0  0  0  0  0  0  0  0  0  0  0
   -5.3701   -1.6834    0.6752 H   0  0  0  0  0  0  0  0  0  0  0  0
   -6.9203   -1.7845   -0.1592 H   0  0  0  0  0  0  0  0  0  0  0  0
   -4.2973    0.1032   -1.5364 H   0  0  0  0  0  0  0  0  0  0  0  0
   -3.5711    1.2272    1.1468 H   0  0  0  0  0  0  0  0  0  0  0  0
   -0.9620   -0.1667    1.3803 H   0  0  0  0  0  0  0  0  0  0  0  0
   -2.3509   -0.1402    2.4867 H   0  0  0  0  0  0  0  0  0  0  0  0
   -2.4240   -2.5163    2.6125 H   0  0  0  0  0  0  0  0  0  0  0  0
    0.0566   -1.2601    3.0633 H   0  0  0  0  0  0  0  0  0  0  0  0
   -1.6142   -3.1743    0.2583 H   0  0  0  0  0  0  0  0  0  0  0  0
   -0.4501   -4.2554    2.8603 H   0  0  0  0  0  0  0  0  0  0  0  0
   -2.1009   -4.5826    2.2540 H   0  0  0  0  0  0  0  0  0  0  0  0
   -0.8173   -6.4788    1.9919 H   0  0  0  0  0  0  0  0  0  0  0  0
   -1.7034   -5.1891   -0.5675 H   0  0  0  0  0  0  0  0  0  0  0  0
   -2.1144   -6.7293    0.1826 H   0  0  0  0  0  0  0  0  0  0  0  0
   -0.8203   -7.3280   -1.6934 H   0  0  0  0  0  0  0  0  0  0  0  0
    0.4508   -6.1340   -1.3338 H   0  0  0  0  0  0  0  0  0  0  0  0
    1.0594   -8.4331   -0.7113 H   0  0  0  0  0  0  0  0  0  0  0  0
   -0.3818   -8.5677    0.3664 H   0  0  0  0  0  0  0  0  0  0  0  0
    2.2854   -7.5021    1.0145 H   0  0  0  0  0  0  0  0  0  0  0  0
    0.8373   -7.6899    2.0384 H   0  0  0  0  0  0  0  0  0  0  0  0
    1.3932   -5.2522    0.2943 H   0  0  0  0  0  0  0  0  0  0  0  0
    1.3619   -5.4369    2.1399 H   0  0  0  0  0  0  0  0  0  0  0  0
    1.1614   -2.7571    1.3853 H   0  0  0  0  0  0  0  0  0  0  0  0
    2.5243   -3.2437   -1.7282 H   0  0  0  0  0  0  0  0  0  0  0  0
    2.1689   -1.4980   -1.5944 H   0  0  0  0  0  0  0  0  0  0  0  0
    1.9306   -0.5034    1.5435 H   0  0  0  0  0  0  0  0  0  0  0  0
    3.5079   -0.9014    2.2885 H   0  0  0  0  0  0  0  0  0  0  0  0
    4.1470   -0.3162   -1.3550 H   0  0  0  0  0  0  0  0  0  0  0  0
    5.5211   -1.6074    0.4970 H   0  0  0  0  0  0  0  0  0  0  0  0
    6.3823   -0.1052    0.8011 H   0  0  0  0  0  0  0  0  0  0  0  0
    5.9104   -2.6477   -1.8983 H   0  0  0  0  0  0  0  0  0  0  0  0
    7.5723   -3.0163   -3.5875 H   0  0  0  0  0  0  0  0  0  0  0  0
    9.5322   -1.4687   -3.8037 H   0  0  0  0  0  0  0  0  0  0  0  0
    9.7369    0.4128   -2.2640 H   0  0  0  0  0  0  0  0  0  0  0  0
    8.0840    0.7861   -0.5578 H   0  0  0  0  0  0  0  0  0  0  0  0
    5.0945    1.7620   -1.9208 H   0  0  0  0  0  0  0  0  0  0  0  0
    5.8755    4.1845    2.5364 H   0  0  0  0  0  0  0  0  0  0  0  0
    4.8671    5.0299    1.2486 H   0  0  0  0  0  0  0  0  0  0  0  0
    6.2238    5.8800    2.0782 H   0  0  0  0  0  0  0  0  0  0  0  0
    8.3223    2.9295    0.4959 H   0  0  0  0  0  0  0  0  0  0  0  0
    8.7947    4.4424    1.4354 H   0  0  0  0  0  0  0  0  0  0  0  0
    7.6313    3.3242    2.1808 H   0  0  0  0  0  0  0  0  0  0  0  0
    8.1005    6.2047    0.4964 H   0  0  0  0  0  0  0  0  0  0  0  0
    6.6665    6.3251   -0.5518 H   0  0  0  0  0  0  0  0  0  0  0  0
    8.0850    5.2026   -0.9798 H   0  0  0  0  0  0  0  0  0  0  0  0
   -6.0326    1.7507   -2.7531 H   0  0  0  0  0  0  0  0  0  0  0  0
   -6.1860    3.9052   -3.6447 H   0  0  0  0  0  0  0  0  0  0  0  0
   -4.6080    4.3006   -2.8585 H   0  0  0  0  0  0  0  0  0  0  0  0
   -4.5513    5.6774   -0.9119 H   0  0  0  0  0  0  0  0  0  0  0  0
   -8.9264    7.9631    0.5981 H   0  0  0  0  0  0  0  0  0  0  0  0
   -7.6662    7.6194    1.8156 H   0  0  0  0  0  0  0  0  0  0  0  0
   -9.0945    6.5336    1.7456 H   0  0  0  0  0  0  0  0  0  0  0  0
   -9.1793    4.0940   -3.0308 H   0  0  0  0  0  0  0  0  0  0  0  0
   -8.2085    2.7492   -2.4462 H   0  0  0  0  0  0  0  0  0  0  0  0
  1  2  1  0
  2  3  1  0
  3  4  1  0
  3  5  1  0
  5  6  1  0
  6  7  1  0
  7  8  2  0
  7  9  1  0
  9 10  1  0
 10 11  1  0
 10 12  1  0
 12 13  1  0
 13 14  1  0
 14 15  1  0
 15 16  1  0
 16 17  1  0
 17 18  1  0
 18 19  1  0
 12 20  1  0
 20 21  1  0
 21 22  2  0
 21 23  1  0
 23 24  1  0
 24 25  1  0
 25 26  1  0
 26 27  2  0
 26 28  1  0
 28 29  1  0
 29 30  1  0
 30 31  2  0
 31 32  1  0
 32 33  2  0
 33 34  1  0
 34 35  2  0
 28 36  1  0
 36 37  1  0
 37 38  2  0
 37 39  1  0
 39 40  1  0
 40 41  1  0
 40 42  1  0
 40 43  1  0
  5 44  1  0
 44 45  2  0
 44 46  1  0
 46 47  1  0
 47 48  1  0
 48 49  2  0
 49 50  1  0
 50 51  2  0
 51 52  1  0
 51 53  1  0
 53 54  2  0
 54 55  1  0
 19 14  1  0
 35 30  1  0
 54 48  1  0
  1 56  1  0
  1 57  1  0
  1 58  1  0
  2 59  1  0
  2 60  1  0
  3 61  1  6
  4 62  1  0
  4 63  1  0
  4 64  1  0
  5 65  1  6
  6 66  1  0
  9 67  1  0
  9 68  1  0
 10 69  1  1
 11 70  1  0
 12 71  1  6
 13 72  1  0
 13 73  1  0
 14 74  1  0
 15 75  1  0
 15 76  1  0
 16 77  1  0
 16 78  1  0
 17 79  1  0
 17 80  1  0
 18 81  1  0
 18 82  1  0
 19 83  1  0
 19 84  1  0
 20 85  1  0
 23 86  1  0
 23 87  1  0
 25 88  1  0
 25 89  1  0
 28 90  1  6
 29 91  1  0
 29 92  1  0
 31 93  1  0
 32 94  1  0
 33 95  1  0
 34 96  1  0
 35 97  1  0
 36 98  1  0
 41 99  1  0
 41100  1  0
 41101  1  0
 42102  1  0
 42103  1  0
 42104  1  0
 43105  1  0
 43106  1  0
 43107  1  0
 46108  1  0
 47109  1  0
 47110  1  0
 49111  1  0
 52112  1  0
 52113  1  0
 52114  1  0
 55115  1  0
 55116  1  0
M  END
$$$$
