@<TRIPOS>MOLECULE
*****
 116 118 0 0 0
SMALL
GASTEIGER

@<TRIPOS>ATOM
      1 C          -6.7492    2.0888    1.1215 C.3     1  UNL1       -0.0650
      2 C          -6.5731    0.6244    0.9776 C.3     1  UNL1       -0.0512
      3 C          -5.9700    0.1442   -0.2893 C.3     1  UNL1       -0.0171
      4 C          -5.8760   -1.3722   -0.2539 C.3     1  UNL1       -0.0603
      5 C          -4.6295    0.7440   -0.6576 C.3     1  UNL1        0.1019
      6 N          -3.6799    0.5216    0.3906 N.am    1  UNL1       -0.3037
      7 C          -2.8227   -0.6419    0.4864 C.2     1  UNL1        0.2161
      8 O          -2.8905   -1.5244   -0.3890 O.2     1  UNL1       -0.2757
      9 C          -1.8978   -0.7509    1.6305 C.3     1  UNL1        0.0517
     10 C          -1.4857   -2.0709    2.0880 C.3     1  UNL1        0.0817
     11 O          -0.6031   -1.9874    3.2157 O.3     1  UNL1       -0.3895
     12 C          -0.9793   -3.1105    1.1444 C.3     1  UNL1        0.0497
     13 C          -1.0282   -4.4102    1.9491 C.3     1  UNL1       -0.0293
     14 C          -0.5592   -5.6228    1.2575 C.3     1  UNL1       -0.0393
     15 C          -1.2758   -6.0084    0.0047 C.3     1  UNL1       -0.0502
     16 C          -0.2834   -6.8099   -0.8550 C.3     1  UNL1       -0.0528
     17 C           0.3910   -7.8490   -0.0267 C.3     1  UNL1       -0.0530
     18 C           1.2258   -7.2757    1.0851 C.3     1  UNL1       -0.0528
     19 C           0.9596   -5.7580    1.1549 C.3     1  UNL1       -0.0502
     20 N           0.3658   -2.8435    0.6910 N.am    1  UNL1       -0.3093
     21 C           0.6896   -2.6866   -0.6849 C.2     1  UNL1        0.2232
     22 O          -0.1845   -2.7437   -1.5838 O.2     1  UNL1       -0.2749
     23 C           2.1417   -2.4544   -1.0457 C.3     1  UNL1        0.0706
     24 S           3.1539   -2.3408    0.4260 S.3     1  UNL1       -0.1438
     25 C           2.9791   -0.7981    1.3062 C.3     1  UNL1        0.0545
     26 C           3.6744    0.3612    0.6245 C.2     1  UNL1        0.1635
     27 O           3.3591    1.4507    1.0735 O.2     1  UNL1       -0.2945
     28 C           4.6534    0.1735   -0.4841 C.3     1  UNL1        0.0893
     29 C           5.8315   -0.6666   -0.0189 C.3     1  UNL1       -0.0021
     30 C           6.8318   -0.8983   -1.0742 C.ar    1  UNL1       -0.0452
     31 C           6.7388   -1.9440   -1.9439 C.ar    1  UNL1       -0.0585
     32 C           7.6965   -2.1732   -2.9355 C.ar    1  UNL1       -0.0615
     33 C           8.7670   -1.3250   -3.0452 C.ar    1  UNL1       -0.0617
     34 C           8.8851   -0.2567   -2.1744 C.ar    1  UNL1       -0.0615
     35 C           7.9119   -0.0614   -1.2008 C.ar    1  UNL1       -0.0585
     36 N           5.1540    1.4536   -0.9111 N.am    1  UNL1       -0.2711
     37 C           5.7498    2.3558    0.0261 C.2     1  UNL1        0.4013
     38 O           5.8596    2.0719    1.2520 O.2     1  UNL1       -0.2264
     39 O           6.2382    3.5890   -0.3753 O.3     1  UNL1       -0.4447
     40 C           6.8268    4.4756    0.5652 C.3     1  UNL1        0.1068
     41 C           5.8896    4.8946    1.6590 C.3     1  UNL1       -0.0253
     42 C           7.9772    3.6987    1.2174 C.3     1  UNL1       -0.0253
     43 C           7.4495    5.6436   -0.1774 C.3     1  UNL1       -0.0253
     44 C          -4.7282    2.1449   -1.0852 C.2     1  UNL1        0.2339
     45 O          -4.1189    3.0288   -0.4541 O.2     1  UNL1       -0.2738
     46 N          -5.5052    2.5038   -2.2104 N.am    1  UNL1       -0.3095
     47 C          -5.6204    3.8625   -2.6689 C.3     1  UNL1        0.0416
     48 C          -6.2815    4.7265   -1.6723 C.ar    1  UNL1        0.0272
     49 C          -5.6258    5.6005   -0.8463 C.ar    1  UNL1        0.0375
     50 N          -6.3197    6.3630    0.0403 N.ar    1  UNL1       -0.2401
     51 C          -7.6593    6.2978    0.1496 C.ar    1  UNL1        0.1280
     52 C          -8.3900    7.1439    1.1280 C.3     1  UNL1       -0.0046
     53 N          -8.3251    5.4499   -0.6473 N.ar    1  UNL1       -0.2177
     54 C          -7.6753    4.6664   -1.5512 C.ar    1  UNL1        0.1243
     55 N          -8.3916    3.7817   -2.3897 N.pl3   1  UNL1       -0.3428
     56 H          -6.8984    2.5544    0.1363 H       1  UNL1        0.0230
     57 H          -5.8772    2.6254    1.5976 H       1  UNL1        0.0230
     58 H          -7.6848    2.3260    1.7046 H       1  UNL1        0.0230
     59 H          -6.0030    0.1837    1.8593 H       1  UNL1        0.0266
     60 H          -7.5990    0.1496    1.0848 H       1  UNL1        0.0266
     61 H          -6.6791    0.3967   -1.1187 H       1  UNL1        0.0321
     62 H          -5.4643   -1.7496   -1.1856 H       1  UNL1        0.0233
     63 H          -5.3701   -1.6834    0.6752 H       1  UNL1        0.0233
     64 H          -6.9203   -1.7845   -0.1592 H       1  UNL1        0.0233
     65 H          -4.2973    0.1032   -1.5364 H       1  UNL1        0.0597
     66 H          -3.5711    1.2272    1.1468 H       1  UNL1        0.1495
     67 H          -0.9620   -0.1667    1.3803 H       1  UNL1        0.0384
     68 H          -2.3509   -0.1402    2.4867 H       1  UNL1        0.0384
     69 H          -2.4240   -2.5163    2.6125 H       1  UNL1        0.0616
     70 H           0.0566   -1.2601    3.0633 H       1  UNL1        0.2099
     71 H          -1.6142   -3.1743    0.2583 H       1  UNL1        0.0524
     72 H          -0.4501   -4.2554    2.8603 H       1  UNL1        0.0287
     73 H          -2.1009   -4.5826    2.2540 H       1  UNL1        0.0287
     74 H          -0.8173   -6.4788    1.9919 H       1  UNL1        0.0301
     75 H          -1.7034   -5.1891   -0.5675 H       1  UNL1        0.0268
     76 H          -2.1144   -6.7293    0.1826 H       1  UNL1        0.0268
     77 H          -0.8203   -7.3280   -1.6934 H       1  UNL1        0.0265
     78 H           0.4508   -6.1340   -1.3338 H       1  UNL1        0.0265
     79 H           1.0594   -8.4331   -0.7113 H       1  UNL1        0.0265
     80 H          -0.3818   -8.5677    0.3664 H       1  UNL1        0.0265
     81 H           2.2854   -7.5021    1.0145 H       1  UNL1        0.0265
     82 H           0.8373   -7.6899    2.0384 H       1  UNL1        0.0265
     83 H           1.3932   -5.2522    0.2943 H       1  UNL1        0.0268
     84 H           1.3619   -5.4369    2.1399 H       1  UNL1        0.0268
     85 H           1.1614   -2.7571    1.3853 H       1  UNL1        0.1491
     86 H           2.5243   -3.2437   -1.7282 H       1  UNL1        0.0471
     87 H           2.1689   -1.4980   -1.5944 H       1  UNL1        0.0471
     88 H           1.9306   -0.5034    1.5435 H       1  UNL1        0.0455
     89 H           3.5079   -0.9014    2.2885 H       1  UNL1        0.0455
     90 H           4.1470   -0.3162   -1.3550 H       1  UNL1        0.0582
     91 H           5.5211   -1.6074    0.4970 H       1  UNL1        0.0335
     92 H           6.3823   -0.1052    0.8011 H       1  UNL1        0.0335
     93 H           5.9104   -2.6477   -1.8983 H       1  UNL1        0.0620
     94 H           7.5723   -3.0163   -3.5875 H       1  UNL1        0.0618
     95 H           9.5322   -1.4687   -3.8037 H       1  UNL1        0.0618
     96 H           9.7369    0.4128   -2.2640 H       1  UNL1        0.0618
     97 H           8.0840    0.7861   -0.5578 H       1  UNL1        0.0620
     98 H           5.0945    1.7620   -1.9208 H       1  UNL1        0.1527
     99 H           5.8755    4.1845    2.5364 H       1  UNL1        0.0268
    100 H           4.8671    5.0299    1.2486 H       1  UNL1        0.0268
    101 H           6.2238    5.8800    2.0782 H       1  UNL1        0.0268
    102 H           8.3223    2.9295    0.4959 H       1  UNL1        0.0268
    103 H           8.7947    4.4424    1.4354 H       1  UNL1        0.0268
    104 H           7.6313    3.3242    2.1808 H       1  UNL1        0.0268
    105 H           8.1005    6.2047    0.4964 H       1  UNL1        0.0268
    106 H           6.6665    6.3251   -0.5518 H       1  UNL1        0.0268
    107 H           8.0850    5.2026   -0.9798 H       1  UNL1        0.0268
    108 H          -6.0326    1.7507   -2.7531 H       1  UNL1        0.1491
    109 H          -6.1860    3.9052   -3.6447 H       1  UNL1        0.0513
    110 H          -4.6080    4.3006   -2.8585 H       1  UNL1        0.0513
    111 H          -4.5513    5.6774   -0.9119 H       1  UNL1        0.0834
    112 H          -8.9264    7.9631    0.5981 H       1  UNL1        0.0308
    113 H          -7.6662    7.6194    1.8156 H       1  UNL1        0.0308
    114 H          -9.0945    6.5336    1.7456 H       1  UNL1        0.0308
    115 H          -9.1793    4.0940   -3.0308 H       1  UNL1        0.1437
    116 H          -8.2085    2.7492   -2.4462 H       1  UNL1        0.1437
@<TRIPOS>BOND
     1     1     2    1
     2     2     3    1
     3     3     4    1
     4     3     5    1
     5     5     6    1
     6     6     7   am
     7     7     8    2
     8     7     9    1
     9     9    10    1
    10    10    11    1
    11    10    12    1
    12    12    13    1
    13    13    14    1
    14    14    15    1
    15    15    16    1
    16    16    17    1
    17    17    18    1
    18    18    19    1
    19    12    20    1
    20    20    21   am
    21    21    22    2
    22    21    23    1
    23    23    24    1
    24    24    25    1
    25    25    26    1
    26    26    27    2
    27    26    28    1
    28    28    29    1
    29    29    30    1
    30    30    31   ar
    31    31    32   ar
    32    32    33   ar
    33    33    34   ar
    34    34    35   ar
    35    28    36    1
    36    36    37   am
    37    37    38    2
    38    37    39    1
    39    39    40    1
    40    40    41    1
    41    40    42    1
    42    40    43    1
    43     5    44    1
    44    44    45    2
    45    44    46   am
    46    46    47    1
    47    47    48    1
    48    48    49   ar
    49    49    50   ar
    50    50    51   ar
    51    51    52    1
    52    51    53   ar
    53    53    54   ar
    54    54    55    1
    55    19    14    1
    56    35    30   ar
    57    54    48   ar
    58     1    56    1
    59     1    57    1
    60     1    58    1
    61     2    59    1
    62     2    60    1
    63     3    61    1
    64     4    62    1
    65     4    63    1
    66     4    64    1
    67     5    65    1
    68     6    66    1
    69     9    67    1
    70     9    68    1
    71    10    69    1
    72    11    70    1
    73    12    71    1
    74    13    72    1
    75    13    73    1
    76    14    74    1
    77    15    75    1
    78    15    76    1
    79    16    77    1
    80    16    78    1
    81    17    79    1
    82    17    80    1
    83    18    81    1
    84    18    82    1
    85    19    83    1
    86    19    84    1
    87    20    85    1
    88    23    86    1
    89    23    87    1
    90    25    88    1
    91    25    89    1
    92    28    90    1
    93    29    91    1
    94    29    92    1
    95    31    93    1
    96    32    94    1
    97    33    95    1
    98    34    96    1
    99    35    97    1
   100    36    98    1
   101    41    99    1
   102    41   100    1
   103    41   101    1
   104    42   102    1
   105    42   103    1
   106    42   104    1
   107    43   105    1
   108    43   106    1
   109    43   107    1
   110    46   108    1
   111    47   109    1
   112    47   110    1
   113    49   111    1
   114    52   112    1
   115    52   113    1
   116    52   114    1
   117    55   115    1
   118    55   116    1
