
     RDKit          3D

 34 34  0  0  0  0  0  0  0  0999 V2000
    4.7501    2.3217   -0.4835 C   0  0  0  0  0  0  0  0  0  0  0  0
    4.4922    1.1980    0.3078 O   0  0  0  0  0  0  0  0  0  0  0  0
    3.4021    0.3671    0.0876 C   0  0  0  0  0  0  0  0  0  0  0  0
    3.1545   -0.7380    0.8711 C   0  0  0  0  0  0  0  0  0  0  0  0
    2.0401   -1.5417    0.6046 C   0  0  0  0  0  0  0  0  0  0  0  0
    1.1862   -1.2399   -0.4344 C   0  0  0  0  0  0  0  0  0  0  0  0
   -0.1835   -2.2206   -0.7737 S   0  0  0  0  0  6  0  0  0  0  0  0
    0.0796   -3.6767   -0.4559 O   0  0  0  0  0  0  0  0  0  0  0  0
   -0.5642   -2.1856   -2.2452 O   0  0  0  0  0  0  0  0  0  0  0  0
   -1.5858   -1.7448    0.1066 N   0  0  0  0  0  0  0  0  0  0  0  0
   -2.0041   -0.4103   -0.2071 C   0  0  0  0  0  0  0  0  0  0  0  0
   -3.6856   -0.3642   -0.8818 P   0  0  0  0  0  5  0  0  0  0  0  0
   -3.8584   -1.6033   -1.7387 O   0  0  0  0  0  0  0  0  0  0  0  0
   -3.8395    0.9766   -1.8708 O   0  0  0  0  0  0  0  0  0  0  0  0
   -4.8405   -0.3916    0.3516 O   0  0  0  0  0  0  0  0  0  0  0  0
   -1.8714    0.5812    1.3036 P   0  0  0  0  0  5  0  0  0  0  0  0
   -0.4181    0.9754    1.4585 O   0  0  0  0  0  0  0  0  0  0  0  0
   -2.7743    1.9982    1.2118 O   0  0  0  0  0  0  0  0  0  0  0  0
   -2.2874   -0.3280    2.6679 O   0  0  0  0  0  0  0  0  0  0  0  0
    1.4554   -0.1322   -1.2011 C   0  0  0  0  0  0  0  0  0  0  0  0
    2.5561    0.6789   -0.9535 C   0  0  0  0  0  0  0  0  0  0  0  0
    5.7436    2.7216   -0.2116 H   0  0  0  0  0  0  0  0  0  0  0  0
    4.7584    2.0996   -1.5770 H   0  0  0  0  0  0  0  0  0  0  0  0
    3.9674    3.1131   -0.3546 H   0  0  0  0  0  0  0  0  0  0  0  0
    3.8187   -0.9671    1.6742 H   0  0  0  0  0  0  0  0  0  0  0  0
    1.8378   -2.4126    1.2156 H   0  0  0  0  0  0  0  0  0  0  0  0
   -2.3669   -2.4207   -0.0350 H   0  0  0  0  0  0  0  0  0  0  0  0
   -1.3484    0.0704   -0.9600 H   0  0  0  0  0  0  0  0  0  0  0  0
   -4.4810    0.8546   -2.6141 H   0  0  0  0  0  0  0  0  0  0  0  0
   -5.3485    0.4405    0.4312 H   0  0  0  0  0  0  0  0  0  0  0  0
   -3.2456    2.0938    0.3623 H   0  0  0  0  0  0  0  0  0  0  0  0
   -2.0871    0.2282    3.4591 H   0  0  0  0  0  0  0  0  0  0  0  0
    0.7942    0.1109   -2.0170 H   0  0  0  0  0  0  0  0  0  0  0  0
    2.7537    1.5475   -1.5666 H   0  0  0  0  0  0  0  0  0  0  0  0
  1  2  1  0
  2  3  1  0
  3  4  2  0
  4  5  1  0
  5  6  2  0
  6  7  1  0
  7  8  2  0
  7  9  2  0
  7 10  1  0
 10 11  1  0
 11 12  1  0
 12 13  2  0
 12 14  1  0
 12 15  1  0
 11 16  1  0
 16 17  2  0
 16 18  1  0
 16 19  1  0
  6 20  1  0
 20 21  2  0
 21  3  1  0
  1 22  1  0
  1 23  1  0
  1 24  1  0
  4 25  1  0
  5 26  1  0
 10 27  1  0
 11 28  1  0
 14 29  1  0
 15 30  1  0
 18 31  1  0
 19 32  1  0
 20 33  1  0
 21 34  1  0
M  END
$$$$
