@<TRIPOS>MOLECULE
*****
 34 34 0 0 0
SMALL
GASTEIGER

@<TRIPOS>ATOM
      1 C           4.7501    2.3217   -0.4835 C.3     1  UNL1        0.0788
      2 O           4.4922    1.1980    0.3078 O.3     1  UNL1       -0.4951
      3 C           3.4021    0.3671    0.0876 C.ar    1  UNL1        0.1202
      4 C           3.1545   -0.7380    0.8711 C.ar    1  UNL1       -0.0181
      5 C           2.0401   -1.5417    0.6046 C.ar    1  UNL1       -0.0319
      6 C           1.1862   -1.2399   -0.4344 C.ar    1  UNL1        0.1055
      7 S          -0.1835   -2.2206   -0.7737 S.O2    1  UNL1        0.0597
      8 O           0.0796   -3.6767   -0.4559 O.2     1  UNL1       -0.1530
      9 O          -0.5642   -2.1856   -2.2452 O.2     1  UNL1       -0.1530
     10 N          -1.5858   -1.7448    0.1066 N.3     1  UNL1       -0.1641
     11 C          -2.0041   -0.4103   -0.2071 C.3     1  UNL1        0.2298
     12 P          -3.6856   -0.3642   -0.8818 P.3     1  UNL1        0.3579
     13 O          -3.8584   -1.6033   -1.7387 O.2     1  UNL1       -0.2565
     14 O          -3.8395    0.9766   -1.8708 O.3     1  UNL1       -0.3226
     15 O          -4.8405   -0.3916    0.3516 O.3     1  UNL1       -0.3226
     16 P          -1.8714    0.5812    1.3036 P.3     1  UNL1        0.3579
     17 O          -0.4181    0.9754    1.4585 O.2     1  UNL1       -0.2565
     18 O          -2.7743    1.9982    1.2118 O.3     1  UNL1       -0.3226
     19 O          -2.2874   -0.3280    2.6679 O.3     1  UNL1       -0.3226
     20 C           1.4554   -0.1322   -1.2011 C.ar    1  UNL1       -0.0319
     21 C           2.5561    0.6789   -0.9535 C.ar    1  UNL1       -0.0181
     22 H           5.7436    2.7216   -0.2116 H       1  UNL1        0.0660
     23 H           4.7584    2.0996   -1.5770 H       1  UNL1        0.0660
     24 H           3.9674    3.1131   -0.3546 H       1  UNL1        0.0660
     25 H           3.8187   -0.9671    1.6742 H       1  UNL1        0.0655
     26 H           1.8378   -2.4126    1.2156 H       1  UNL1        0.0638
     27 H          -2.3669   -2.4207   -0.0350 H       1  UNL1        0.1497
     28 H          -1.3484    0.0704   -0.9600 H       1  UNL1        0.0732
     29 H          -4.4810    0.8546   -2.6141 H       1  UNL1        0.2198
     30 H          -5.3485    0.4405    0.4312 H       1  UNL1        0.2198
     31 H          -3.2456    2.0938    0.3623 H       1  UNL1        0.2198
     32 H          -2.0871    0.2282    3.4591 H       1  UNL1        0.2198
     33 H           0.7942    0.1109   -2.0170 H       1  UNL1        0.0638
     34 H           2.7537    1.5475   -1.5666 H       1  UNL1        0.0655
@<TRIPOS>BOND
     1     1     2    1
     2     2     3    1
     3     3     4   ar
     4     4     5   ar
     5     5     6   ar
     6     6     7    1
     7     7     8    2
     8     7     9    2
     9     7    10    1
    10    10    11    1
    11    11    12    1
    12    12    13    2
    13    12    14    1
    14    12    15    1
    15    11    16    1
    16    16    17    2
    17    16    18    1
    18    16    19    1
    19     6    20   ar
    20    20    21   ar
    21    21     3   ar
    22     1    22    1
    23     1    23    1
    24     1    24    1
    25     4    25    1
    26     5    26    1
    27    10    27    1
    28    11    28    1
    29    14    29    1
    30    15    30    1
    31    18    31    1
    32    19    32    1
    33    20    33    1
    34    21    34    1
