@<TRIPOS>MOLECULE
*****
 22 22 0 0 0
SMALL
GASTEIGER

@<TRIPOS>ATOM
      1 C          -0.8059   -2.1762    0.8906 C.3     1  UNL1        0.0328
      2 N          -0.1329   -1.0151    0.2877 N.ar    1  UNL1       -0.2439
      3 N           1.0881   -1.2479   -0.0329 N.ar    1  UNL1       -0.1415
      4 C           1.8415   -0.4265   -0.5499 C.ar    1  UNL1        0.2536
      5 S           0.8773    1.0697   -0.7309 S.2     1  UNL1       -0.0109
      6 C          -0.6494    0.2586    0.0345 C.ar    1  UNL1        0.1845
      7 N          -1.9726    0.4232    0.4108 N.am    1  UNL1       -0.1553
      8 C          -2.5106    1.7028    0.1627 C.2     1  UNL1        0.2353
      9 C          -3.9723    1.6272   -0.1840 C.3     1  UNL1        0.0142
     10 O          -1.9988    2.8524    0.1805 O.2     1  UNL1       -0.2739
     11 S           3.5075   -0.3509   -1.1172 S.O2    1  UNL1        0.0814
     12 N           4.5396    0.1608    0.1653 N.3     1  UNL1       -0.2015
     13 O           3.6550    0.4918   -2.3310 O.2     1  UNL1       -0.1512
     14 O           3.8760   -1.7657   -1.4384 O.2     1  UNL1       -0.1512
     15 H          -0.8225   -3.0510    0.2046 H       1  UNL1        0.0473
     16 H          -1.8354   -1.9067    1.1731 H       1  UNL1        0.0473
     17 H          -0.3042   -2.5104    1.8151 H       1  UNL1        0.0473
     18 H          -4.4950    1.4398    0.7697 H       1  UNL1        0.0323
     19 H          -4.1862    0.7786   -0.8586 H       1  UNL1        0.0323
     20 H          -4.3105    2.5621   -0.6871 H       1  UNL1        0.0323
     21 H           4.0785   -0.1259    1.0619 H       1  UNL1        0.1443
     22 H           4.5328    1.2095    0.1692 H       1  UNL1        0.1443
@<TRIPOS>BOND
     1     1     2    1
     2     2     3   ar
     3     3     4   ar
     4     4     5   ar
     5     5     6   ar
     6     6     7    2
     7     7     8    1
     8     8     9    1
     9     8    10    2
    10     4    11    1
    11    11    12    1
    12    11    13    2
    13    11    14    2
    14     6     2   ar
    15     1    15    1
    16     1    16    1
    17     1    17    1
    18     9    18    1
    19     9    19    1
    20     9    20    1
    21    12    21    1
    22    12    22    1
