@<TRIPOS>MOLECULE
*****
 69 74 0 0 0
SMALL
GASTEIGER

@<TRIPOS>ATOM
      1 C          -2.5887   -2.6065   -3.6976 C.3     1  UNL1       -0.0391
      2 C          -1.2721   -2.4275   -3.0194 C.ar    1  UNL1       -0.0427
      3 C          -0.1349   -3.0298   -3.5542 C.ar    1  UNL1       -0.0575
      4 C           1.0764   -2.8612   -2.9434 C.ar    1  UNL1       -0.0493
      5 C           1.2199   -2.1065   -1.8006 C.ar    1  UNL1        0.0376
      6 C           2.5300   -1.9559   -1.1856 C.2     1  UNL1        0.2483
      7 O           3.5279   -2.5187   -1.7486 O.2     1  UNL1       -0.2699
      8 N           2.7614   -1.2214    0.0017 N.am    1  UNL1       -0.2814
      9 C           4.1040   -1.1514    0.5054 C.ar    1  UNL1        0.0354
     10 C           4.5121   -2.1338    1.3810 C.ar    1  UNL1       -0.0404
     11 C           5.7969   -2.0648    1.8654 C.ar    1  UNL1       -0.0583
     12 C           6.6711   -1.0411    1.4934 C.ar    1  UNL1       -0.0405
     13 C           6.2765   -0.0522    0.6191 C.ar    1  UNL1        0.0316
     14 N           7.1075    1.0139    0.2073 N.pl3   1  UNL1       -0.3255
     15 C           6.6365    1.9551   -0.7767 C.3     1  UNL1        0.0357
     16 C           7.8604    2.7113   -1.2693 C.3     1  UNL1        0.0634
     17 O           8.4991    3.3808   -0.2512 O.3     1  UNL1       -0.3767
     18 C           8.8221    2.6281    0.8437 C.3     1  UNL1        0.0634
     19 C           8.4235    1.1751    0.7625 C.3     1  UNL1        0.0357
     20 C           4.9604   -0.1573    0.1471 C.ar    1  UNL1       -0.0194
     21 C           0.0767   -1.5278   -1.3021 C.ar    1  UNL1       -0.0416
     22 C          -1.1715   -1.6707   -1.8860 C.ar    1  UNL1       -0.0141
     23 C          -2.2990   -1.0244   -1.2626 C.ar    1  UNL1       -0.0140
     24 C          -3.4390   -1.7299   -0.9982 C.ar    1  UNL1       -0.0532
     25 C          -4.5404   -1.1038   -0.3977 C.ar    1  UNL1       -0.0486
     26 C          -4.4582    0.2340   -0.0770 C.ar    1  UNL1        0.0446
     27 C          -5.3578    1.0997    0.5068 C.ar    1  UNL1        0.0945
     28 C          -6.7441    0.8094    0.9807 C.3     1  UNL1        0.0075
     29 C          -6.7718    0.3896    2.4203 C.3     1  UNL1       -0.0320
     30 C          -7.3711    1.3917    3.3472 C.3     1  UNL1       -0.0035
     31 N          -8.5815    1.9932    2.8979 N.3     1  UNL1       -0.3159
     32 C          -8.9214    1.7465    1.5327 C.3     1  UNL1       -0.0035
     33 C          -7.6721    1.9690    0.6988 C.3     1  UNL1       -0.0320
     34 N          -4.7432    2.2860    0.5770 N.ar    1  UNL1       -0.0818
     35 O          -3.5361    2.1804    0.0722 O.2     1  UNL1       -0.3544
     36 C          -3.3102    0.9681   -0.3369 C.ar    1  UNL1        0.1681
     37 C          -2.2415    0.3117   -0.9325 C.ar    1  UNL1       -0.0083
     38 H          -2.4352   -2.5444   -4.8017 H       1  UNL1        0.0278
     39 H          -3.2337   -1.7659   -3.4259 H       1  UNL1        0.0278
     40 H          -3.0451   -3.5598   -3.4193 H       1  UNL1        0.0278
     41 H          -0.2495   -3.6251   -4.4563 H       1  UNL1        0.0621
     42 H           1.9319   -3.3490   -3.3968 H       1  UNL1        0.0625
     43 H           1.9710   -0.7576    0.4751 H       1  UNL1        0.1551
     44 H           3.8481   -2.9333    1.6801 H       1  UNL1        0.0636
     45 H           6.1324   -2.8174    2.5456 H       1  UNL1        0.0619
     46 H           7.6833   -1.0331    1.9051 H       1  UNL1        0.0636
     47 H           6.3041    1.3411   -1.6600 H       1  UNL1        0.0486
     48 H           5.8324    2.6068   -0.4403 H       1  UNL1        0.0486
     49 H           7.5038    3.4671   -1.9986 H       1  UNL1        0.0575
     50 H           8.5205    2.0136   -1.8194 H       1  UNL1        0.0575
     51 H           9.9165    2.7025    1.0351 H       1  UNL1        0.0575
     52 H           8.3235    3.0574    1.7468 H       1  UNL1        0.0575
     53 H           8.5231    0.7846    1.8079 H       1  UNL1        0.0486
     54 H           9.1758    0.6717    0.1207 H       1  UNL1        0.0486
     55 H           4.6261    0.6170   -0.5483 H       1  UNL1        0.0655
     56 H           0.1596   -0.9248   -0.3992 H       1  UNL1        0.0631
     57 H          -3.5372   -2.7786   -1.2320 H       1  UNL1        0.0624
     58 H          -5.4288   -1.6807   -0.1992 H       1  UNL1        0.0625
     59 H          -7.1071   -0.0531    0.3785 H       1  UNL1        0.0366
     60 H          -5.6940    0.2656    2.7362 H       1  UNL1        0.0284
     61 H          -7.2278   -0.6129    2.5851 H       1  UNL1        0.0284
     62 H          -7.6109    0.8426    4.3058 H       1  UNL1        0.0424
     63 H          -6.6247    2.1715    3.6786 H       1  UNL1        0.0424
     64 H          -8.5254    3.0402    3.0218 H       1  UNL1        0.1219
     65 H          -9.2547    0.7056    1.4358 H       1  UNL1        0.0424
     66 H          -9.7171    2.4858    1.2530 H       1  UNL1        0.0424
     67 H          -7.9396    2.0571   -0.3552 H       1  UNL1        0.0284
     68 H          -7.2036    2.9066    1.1052 H       1  UNL1        0.0284
     69 H          -1.3255    0.8401   -1.1548 H       1  UNL1        0.0661
@<TRIPOS>BOND
     1     1     2    1
     2     2     3   ar
     3     3     4   ar
     4     4     5   ar
     5     5     6    1
     6     6     7    2
     7     6     8   am
     8     8     9    1
     9     9    10   ar
    10    10    11   ar
    11    11    12   ar
    12    12    13   ar
    13    13    14    1
    14    14    15    1
    15    15    16    1
    16    16    17    1
    17    17    18    1
    18    18    19    1
    19    13    20   ar
    20     5    21   ar
    21    21    22   ar
    22    22    23    1
    23    23    24   ar
    24    24    25   ar
    25    25    26   ar
    26    26    27   ar
    27    27    28    1
    28    28    29    1
    29    29    30    1
    30    30    31    1
    31    31    32    1
    32    32    33    1
    33    27    34   ar
    34    34    35   ar
    35    35    36   ar
    36    36    37   ar
    37    22     2   ar
    38    37    23   ar
    39    20     9   ar
    40    36    26   ar
    41    19    14    1
    42    33    28    1
    43     1    38    1
    44     1    39    1
    45     1    40    1
    46     3    41    1
    47     4    42    1
    48     8    43    1
    49    10    44    1
    50    11    45    1
    51    12    46    1
    52    15    47    1
    53    15    48    1
    54    16    49    1
    55    16    50    1
    56    18    51    1
    57    18    52    1
    58    19    53    1
    59    19    54    1
    60    20    55    1
    61    21    56    1
    62    24    57    1
    63    25    58    1
    64    28    59    1
    65    29    60    1
    66    29    61    1
    67    30    62    1
    68    30    63    1
    69    31    64    1
    70    32    65    1
    71    32    66    1
    72    33    67    1
    73    33    68    1
    74    37    69    1
