
     RDKit          3D

 42 45  0  0  0  0  0  0  0  0999 V2000
    1.5808   -0.4731   -0.7095 C   0  0  2  0  0  0  0  0  0  0  0  0
    2.5973   -1.5258   -0.7533 C   0  0  0  0  0  0  0  0  0  0  0  0
    3.8409   -0.7683   -1.2329 C   0  0  0  0  0  0  0  0  0  0  0  0
    3.5242    0.6812   -0.9423 C   0  0  0  0  0  0  0  0  0  0  0  0
    4.1651    1.6073   -1.3500 O   0  0  0  0  0  0  0  0  0  0  0  0
    2.3291    0.7189   -0.0997 C   0  0  2  0  0  0  0  0  0  0  0  0
    2.7144    0.5096    1.3245 C   0  0  0  0  0  0  0  0  0  0  0  0
    1.4593    1.9229   -0.3221 C   0  0  0  0  0  0  0  0  0  0  0  0
    0.0716    1.7547    0.1875 C   0  0  0  0  0  0  0  0  0  0  0  0
   -0.5497    0.5021   -0.3597 C   0  0  2  0  0  0  0  0  0  0  0  0
   -1.9446    0.2955   -0.0259 C   0  0  0  0  0  0  0  0  0  0  0  0
   -2.4062   -0.8026    0.6702 C   0  0  0  0  0  0  0  0  0  0  0  0
   -1.4331   -1.8459    1.1128 C   0  0  0  0  0  0  0  0  0  0  0  0
   -0.3443   -1.9442    0.0390 C   0  0  0  0  0  0  0  0  0  0  0  0
    0.3634   -0.6430    0.0880 C   0  0  1  0  0  0  0  0  0  0  0  0
   -3.7594   -0.8858    0.9273 C   0  0  0  0  0  0  0  0  0  0  0  0
   -4.6462    0.0954    0.5066 C   0  0  0  0  0  0  0  0  0  0  0  0
   -6.0132   -0.0358    0.7931 O   0  0  0  0  0  0  0  0  0  0  0  0
   -4.1710    1.1911   -0.1902 C   0  0  0  0  0  0  0  0  0  0  0  0
   -2.8044    1.2864   -0.4562 C   0  0  0  0  0  0  0  0  0  0  0  0
    1.3469   -0.1593   -1.7498 H   0  0  0  0  0  0  0  0  0  0  0  0
    2.3478   -2.2563   -1.5693 H   0  0  0  0  0  0  0  0  0  0  0  0
    2.7778   -2.0933    0.1601 H   0  0  0  0  0  0  0  0  0  0  0  0
    4.6663   -1.0596   -0.5737 H   0  0  0  0  0  0  0  0  0  0  0  0
    4.0234   -0.8976   -2.3138 H   0  0  0  0  0  0  0  0  0  0  0  0
    3.7778    0.8444    1.4496 H   0  0  0  0  0  0  0  0  0  0  0  0
    2.7117   -0.5719    1.5520 H   0  0  0  0  0  0  0  0  0  0  0  0
    2.1045    1.0849    2.0482 H   0  0  0  0  0  0  0  0  0  0  0  0
    1.9222    2.7798    0.2361 H   0  0  0  0  0  0  0  0  0  0  0  0
    1.4174    2.1391   -1.3907 H   0  0  0  0  0  0  0  0  0  0  0  0
   -0.5004    2.6708   -0.0789 H   0  0  0  0  0  0  0  0  0  0  0  0
    0.0759    1.6835    1.2879 H   0  0  0  0  0  0  0  0  0  0  0  0
   -0.4619    0.5722   -1.4809 H   0  0  0  0  0  0  0  0  0  0  0  0
   -1.8964   -2.8134    1.3242 H   0  0  0  0  0  0  0  0  0  0  0  0
   -0.9226   -1.4033    2.0176 H   0  0  0  0  0  0  0  0  0  0  0  0
    0.3276   -2.7435    0.3492 H   0  0  0  0  0  0  0  0  0  0  0  0
   -0.8183   -2.1242   -0.9674 H   0  0  0  0  0  0  0  0  0  0  0  0
    0.5700   -0.4323    1.1780 H   0  0  0  0  0  0  0  0  0  0  0  0
   -4.0893   -1.7506    1.4702 H   0  0  0  0  0  0  0  0  0  0  0  0
   -6.5802    0.7978    0.8954 H   0  0  0  0  0  0  0  0  0  0  0  0
   -4.8904    1.9303   -0.4992 H   0  0  0  0  0  0  0  0  0  0  0  0
   -2.4836    2.1622   -1.0041 H   0  0  0  0  0  0  0  0  0  0  0  0
  1  2  1  0
  2  3  1  0
  3  4  1  0
  4  5  2  0
  4  6  1  0
  6  7  1  1
  6  8  1  0
  8  9  1  0
  9 10  1  0
 10 11  1  0
 11 12  2  0
 12 13  1  0
 13 14  1  0
 14 15  1  0
 12 16  1  0
 16 17  2  0
 17 18  1  0
 17 19  1  0
 19 20  2  0
  6  1  1  0
 15 10  1  0
 15  1  1  0
 20 11  1  0
  1 21  1  6
  2 22  1  0
  2 23  1  0
  3 24  1  0
  3 25  1  0
  7 26  1  0
  7 27  1  0
  7 28  1  0
  8 29  1  0
  8 30  1  0
  9 31  1  0
  9 32  1  0
 10 33  1  6
 13 34  1  0
 13 35  1  0
 14 36  1  0
 14 37  1  0
 15 38  1  1
 16 39  1  0
 18 40  1  0
 19 41  1  0
 20 42  1  0
M  END
$$$$
