@<TRIPOS>MOLECULE
*****
 86 91 0 0 0
SMALL
GASTEIGER

@<TRIPOS>ATOM
      1 C           7.1745    1.8512   -4.0036 C.3     1  UNL1        0.0790
      2 O           7.2017    1.5767   -2.6323 O.3     1  UNL1       -0.4914
      3 C           6.0214    1.4256   -1.9391 C.ar    1  UNL1        0.1618
      4 C           4.8149    1.5476   -2.6101 C.ar    1  UNL1       -0.0160
      5 C           3.6048    1.4064   -1.9674 C.ar    1  UNL1       -0.0534
      6 C           3.6133    1.1325   -0.6009 C.ar    1  UNL1       -0.0255
      7 C           4.8178    1.0175    0.0343 C.ar    1  UNL1        0.0158
      8 C           6.0408    1.1553   -0.5899 C.ar    1  UNL1        0.1667
      9 O           7.0695    0.9846    0.3160 O.3     1  UNL1       -0.4836
     10 C           6.5056    0.1467    1.3424 C.3     1  UNL1        0.1161
     11 C           7.3624    0.2489    2.5422 C.3     1  UNL1        0.0151
     12 C           6.8480    1.0159    3.7021 C.3     1  UNL1        0.0768
     13 O           7.9379    1.6779    4.2937 O.3     1  UNL1       -0.3876
     14 C           5.8396    2.0446    3.3290 C.2     1  UNL1       -0.0588
     15 C           5.0408    1.9313    2.3025 C.2     1  UNL1       -0.0715
     16 C           5.1211    0.7363    1.4557 C.3     1  UNL1        0.0558
     17 C           4.1680   -0.3547    1.8996 C.3     1  UNL1       -0.0235
     18 C           3.3373   -0.9162    0.7885 C.3     1  UNL1        0.0004
     19 N           2.0919   -0.2374    0.5993 N.3     1  UNL1       -0.2981
     20 C           1.0450   -1.0365    0.0382 C.3     1  UNL1       -0.0008
     21 C           1.3031   -1.4227   -1.3880 C.3     1  UNL1       -0.0402
     22 C           0.1830   -2.2565   -1.9386 C.3     1  UNL1       -0.0518
     23 C          -0.0270   -3.5308   -1.1805 C.3     1  UNL1       -0.0499
     24 C          -1.1546   -4.3576   -1.7504 C.3     1  UNL1       -0.0186
     25 C          -2.4630   -3.6161   -1.7215 C.3     1  UNL1        0.0896
     26 O          -2.7729   -3.2837   -0.3907 O.3     1  UNL1       -0.4920
     27 C          -3.9386   -2.5937   -0.0591 C.ar    1  UNL1        0.1205
     28 C          -4.2502   -2.2620    1.2310 C.ar    1  UNL1       -0.0196
     29 C          -5.4058   -1.5798    1.5502 C.ar    1  UNL1       -0.0539
     30 C          -6.2662   -1.2248    0.5417 C.ar    1  UNL1       -0.0331
     31 C          -7.5072   -0.5033    0.8108 C.3     1  UNL1        0.0240
     32 N          -7.4586    0.9044    0.7905 N.3     1  UNL1       -0.2982
     33 C          -6.5806    1.5603    1.6912 C.3     1  UNL1       -0.0008
     34 C          -7.1976    2.8819    2.0956 C.3     1  UNL1       -0.0402
     35 C          -7.7417    3.6634    0.9491 C.3     1  UNL1       -0.0507
     36 C          -8.5095    2.8451   -0.0518 C.3     1  UNL1       -0.0402
     37 C          -7.7353    1.5731   -0.4286 C.3     1  UNL1       -0.0008
     38 C          -5.9454   -1.5618   -0.7499 C.ar    1  UNL1       -0.0539
     39 C          -4.7999   -2.2414   -1.0942 C.ar    1  UNL1       -0.0196
     40 C           2.2046    1.0199   -0.1027 C.3     1  UNL1        0.0244
     41 H           6.7461    2.8514   -4.2415 H       1  UNL1        0.0660
     42 H           6.5305    1.1096   -4.5292 H       1  UNL1        0.0660
     43 H           8.2137    1.8566   -4.4284 H       1  UNL1        0.0660
     44 H           4.7793    1.7608   -3.6773 H       1  UNL1        0.0655
     45 H           2.6752    1.5043   -2.5063 H       1  UNL1        0.0622
     46 H           6.4652   -0.8773    0.9027 H       1  UNL1        0.0746
     47 H           8.3771    0.5974    2.2373 H       1  UNL1        0.0329
     48 H           7.5184   -0.8128    2.9151 H       1  UNL1        0.0329
     49 H           6.4031    0.3795    4.4846 H       1  UNL1        0.0639
     50 H           8.5279    2.0285    3.5738 H       1  UNL1        0.2102
     51 H           5.7828    2.9232    3.9547 H       1  UNL1        0.0595
     52 H           4.3293    2.7053    2.0771 H       1  UNL1        0.0580
     53 H           3.5524    0.0418    2.7366 H       1  UNL1        0.0290
     54 H           4.7665   -1.1778    2.3368 H       1  UNL1        0.0290
     55 H           3.9293   -0.9582   -0.1468 H       1  UNL1        0.0427
     56 H           3.0904   -1.9823    1.0668 H       1  UNL1        0.0427
     57 H           0.0889   -0.5253    0.1852 H       1  UNL1        0.0427
     58 H           1.0173   -1.9810    0.6281 H       1  UNL1        0.0427
     59 H           2.2420   -2.0075   -1.4400 H       1  UNL1        0.0278
     60 H           1.4422   -0.5543   -2.0639 H       1  UNL1        0.0278
     61 H          -0.7229   -1.6458   -2.0312 H       1  UNL1        0.0266
     62 H           0.4724   -2.5459   -2.9877 H       1  UNL1        0.0266
     63 H           0.8904   -4.1010   -1.0316 H       1  UNL1        0.0266
     64 H          -0.3785   -3.2345   -0.1482 H       1  UNL1        0.0266
     65 H          -0.9600   -4.6237   -2.8116 H       1  UNL1        0.0298
     66 H          -1.2872   -5.3004   -1.1952 H       1  UNL1        0.0298
     67 H          -3.2567   -4.2569   -2.1716 H       1  UNL1        0.0696
     68 H          -2.4394   -2.6855   -2.3425 H       1  UNL1        0.0696
     69 H          -3.5554   -2.5521    2.0150 H       1  UNL1        0.0654
     70 H          -5.5868   -1.3502    2.5950 H       1  UNL1        0.0622
     71 H          -7.9570   -0.8157    1.7994 H       1  UNL1        0.0476
     72 H          -8.2947   -0.8171    0.0634 H       1  UNL1        0.0476
     73 H          -5.5784    1.8244    1.2430 H       1  UNL1        0.0427
     74 H          -6.4595    0.9382    2.6011 H       1  UNL1        0.0427
     75 H          -8.0025    2.6506    2.8222 H       1  UNL1        0.0278
     76 H          -6.4282    3.5367    2.5970 H       1  UNL1        0.0278
     77 H          -6.9771    4.3004    0.4387 H       1  UNL1        0.0266
     78 H          -8.4771    4.4049    1.3790 H       1  UNL1        0.0266
     79 H          -8.7296    3.4714   -0.9276 H       1  UNL1        0.0278
     80 H          -9.4403    2.4896    0.4574 H       1  UNL1        0.0278
     81 H          -8.4290    0.9480   -1.0268 H       1  UNL1        0.0427
     82 H          -6.8550    1.9244   -0.9961 H       1  UNL1        0.0427
     83 H          -6.6129   -1.2922   -1.5770 H       1  UNL1        0.0622
     84 H          -4.6003   -2.4790   -2.1269 H       1  UNL1        0.0654
     85 H           2.0941    1.8250    0.6567 H       1  UNL1        0.0476
     86 H           1.5011    1.1358   -0.9247 H       1  UNL1        0.0476
@<TRIPOS>BOND
     1     1     2    1
     2     2     3    1
     3     3     4   ar
     4     4     5   ar
     5     5     6   ar
     6     6     7   ar
     7     7     8   ar
     8     8     9    1
     9     9    10    1
    10    10    11    1
    11    11    12    1
    12    12    13    1
    13    12    14    1
    14    14    15    2
    15    15    16    1
    16    16    17    1
    17    17    18    1
    18    18    19    1
    19    19    20    1
    20    20    21    1
    21    21    22    1
    22    22    23    1
    23    23    24    1
    24    24    25    1
    25    25    26    1
    26    26    27    1
    27    27    28   ar
    28    28    29   ar
    29    29    30   ar
    30    30    31    1
    31    31    32    1
    32    32    33    1
    33    33    34    1
    34    34    35    1
    35    35    36    1
    36    36    37    1
    37    30    38   ar
    38    38    39   ar
    39    19    40    1
    40     8     3   ar
    41    16    10    1
    42    39    27   ar
    43    40     6    1
    44    16     7    1
    45    37    32    1
    46     1    41    1
    47     1    42    1
    48     1    43    1
    49     4    44    1
    50     5    45    1
    51    10    46    1
    52    11    47    1
    53    11    48    1
    54    12    49    1
    55    13    50    1
    56    14    51    1
    57    15    52    1
    58    17    53    1
    59    17    54    1
    60    18    55    1
    61    18    56    1
    62    20    57    1
    63    20    58    1
    64    21    59    1
    65    21    60    1
    66    22    61    1
    67    22    62    1
    68    23    63    1
    69    23    64    1
    70    24    65    1
    71    24    66    1
    72    25    67    1
    73    25    68    1
    74    28    69    1
    75    29    70    1
    76    31    71    1
    77    31    72    1
    78    33    73    1
    79    33    74    1
    80    34    75    1
    81    34    76    1
    82    35    77    1
    83    35    78    1
    84    36    79    1
    85    36    80    1
    86    37    81    1
    87    37    82    1
    88    38    83    1
    89    39    84    1
    90    40    85    1
    91    40    86    1
