@<TRIPOS>MOLECULE
*****
 56 59 0 0 0
SMALL
GASTEIGER

@<TRIPOS>ATOM
      1 C           0.6289   -0.4722    0.5733 C.3     1  UNL1       -0.0262
      2 C           1.5595   -0.8593    1.6659 C.3     1  UNL1       -0.0436
      3 C           2.7460   -1.3044    0.7920 C.3     1  UNL1       -0.0072
      4 C           3.9600   -1.1606    1.6319 C.3     1  UNL1       -0.0594
      5 C           2.6822   -0.5152   -0.4680 C.3     1  UNL1        0.1329
      6 O           2.2948   -1.4026   -1.4838 O.3     1  UNL1       -0.3802
      7 C           3.9297    0.1235   -0.8823 C.2     1  UNL1        0.1798
      8 O           4.8514    0.9230   -0.6442 O.2     1  UNL1       -0.2931
      9 C           4.6162   -0.1696   -2.1812 C.3     1  UNL1        0.0838
     10 CL          6.1016    0.8246   -2.2863 Cl      1  UNL1       -0.1173
     11 C           1.5082    0.4163   -0.2815 C.3     1  UNL1        0.0095
     12 C           1.9669    1.6451    0.4456 C.3     1  UNL1       -0.0562
     13 C           0.7387    0.6676   -1.5338 C.3     1  UNL1       -0.0151
     14 C          -0.6619    1.1620   -1.2419 C.3     1  UNL1        0.0910
     15 O          -0.5375    2.4533   -0.7884 O.3     1  UNL1       -0.3886
     16 C          -1.4163    0.2203   -0.3848 C.3     1  UNL1        0.1528
     17 F          -1.2593   -1.0406   -0.9521 F       1  UNL1       -0.2377
     18 C          -0.6752    0.1080    0.9472 C.3     1  UNL1        0.0029
     19 C          -1.3820   -0.8708    1.8576 C.3     1  UNL1       -0.0117
     20 C          -2.8362   -0.4676    1.9316 C.3     1  UNL1        0.1237
     21 F          -3.3991   -1.3378    2.8767 F       1  UNL1       -0.2407
     22 C          -3.5422   -0.5226    0.6493 C.2     1  UNL1       -0.0198
     23 C          -4.5722   -1.3274    0.4415 C.2     1  UNL1       -0.0121
     24 C          -5.1418   -1.2397   -0.8988 C.2     1  UNL1        0.1788
     25 O          -6.1092   -1.9530   -1.1918 O.2     1  UNL1       -0.2879
     26 C          -4.5902   -0.3280   -1.8934 C.2     1  UNL1       -0.0179
     27 C          -3.5564    0.4189   -1.5434 C.2     1  UNL1       -0.0674
     28 C          -2.8668    0.4485   -0.2304 C.3     1  UNL1        0.0469
     29 C          -3.1997    1.8309    0.3403 C.3     1  UNL1       -0.0492
     30 H           0.4257   -1.3855   -0.0375 H       1  UNL1        0.0311
     31 H           1.1529   -1.6816    2.2669 H       1  UNL1        0.0272
     32 H           1.8540   -0.0240    2.3192 H       1  UNL1        0.0272
     33 H           2.5769   -2.3922    0.6452 H       1  UNL1        0.0330
     34 H           4.2343   -0.1501    1.9403 H       1  UNL1        0.0233
     35 H           4.8426   -1.7442    1.2342 H       1  UNL1        0.0233
     36 H           3.7407   -1.6944    2.5842 H       1  UNL1        0.0233
     37 H           2.6113   -1.1537   -2.3678 H       1  UNL1        0.2108
     38 H           4.9617   -1.2304   -2.2414 H       1  UNL1        0.0509
     39 H           4.0309    0.1337   -3.0670 H       1  UNL1        0.0509
     40 H           1.4682    1.8131    1.4238 H       1  UNL1        0.0236
     41 H           3.0592    1.5492    0.7193 H       1  UNL1        0.0236
     42 H           1.9487    2.5270   -0.2276 H       1  UNL1        0.0236
     43 H           0.6325   -0.3026   -2.0541 H       1  UNL1        0.0297
     44 H           1.1828    1.4458   -2.1844 H       1  UNL1        0.0297
     45 H          -1.1837    1.1720   -2.2453 H       1  UNL1        0.0626
     46 H          -0.4158    2.5859    0.1605 H       1  UNL1        0.2099
     47 H          -0.6258    1.0614    1.4977 H       1  UNL1        0.0336
     48 H          -1.2358   -1.9129    1.5770 H       1  UNL1        0.0300
     49 H          -0.9566   -0.7207    2.8698 H       1  UNL1        0.0300
     50 H          -2.9245    0.5294    2.3815 H       1  UNL1        0.0699
     51 H          -4.9216   -1.9734    1.2288 H       1  UNL1        0.0656
     52 H          -5.0366   -0.2889   -2.8765 H       1  UNL1        0.0653
     53 H          -3.2091    1.0751   -2.3558 H       1  UNL1        0.0583
     54 H          -2.5300    2.1156    1.1756 H       1  UNL1        0.0242
     55 H          -3.2970    2.5904   -0.4509 H       1  UNL1        0.0242
     56 H          -4.2239    1.7854    0.8170 H       1  UNL1        0.0242
@<TRIPOS>BOND
     1     1     2    1
     2     2     3    1
     3     3     4    1
     4     3     5    1
     5     5     6    1
     6     5     7    1
     7     7     8    2
     8     7     9    1
     9     9    10    1
    10     5    11    1
    11    11    12    1
    12    11    13    1
    13    13    14    1
    14    14    15    1
    15    14    16    1
    16    16    17    1
    17    16    18    1
    18    18    19    1
    19    19    20    1
    20    20    21    1
    21    20    22    1
    22    22    23    2
    23    23    24    1
    24    24    25    2
    25    24    26    1
    26    26    27    2
    27    27    28    1
    28    28    29    1
    29    11     1    1
    30    28    16    1
    31    18     1    1
    32    28    22    1
    33     1    30    1
    34     2    31    1
    35     2    32    1
    36     3    33    1
    37     4    34    1
    38     4    35    1
    39     4    36    1
    40     6    37    1
    41     9    38    1
    42     9    39    1
    43    12    40    1
    44    12    41    1
    45    12    42    1
    46    13    43    1
    47    13    44    1
    48    14    45    1
    49    15    46    1
    50    18    47    1
    51    19    48    1
    52    19    49    1
    53    20    50    1
    54    23    51    1
    55    26    52    1
    56    27    53    1
    57    29    54    1
    58    29    55    1
    59    29    56    1
