@<TRIPOS>MOLECULE
*****
 60 64 0 0 0
SMALL
GASTEIGER

@<TRIPOS>ATOM
      1 C           2.0405   -1.0352    2.1417 C.3     1  UNL1        0.0103
      2 N           3.2025   -1.3215    1.3273 N.3     1  UNL1       -0.1643
      3 C           4.0805   -0.1732    1.2209 C.3     1  UNL1        0.0499
      4 C           5.5454   -0.5357    1.2419 C.3     1  UNL1        0.0963
      5 C           6.3130    0.7796    1.1135 C.3     1  UNL1        0.0752
      6 O           7.3348    0.6122    0.1706 O.3     1  UNL1       -0.3749
      7 C           8.0037   -0.5703    0.4483 C.3     1  UNL1        0.0711
      8 C           7.1338   -1.7916    0.1441 C.3     1  UNL1        0.0715
      9 O           5.8091   -1.3750    0.1710 O.3     1  UNL1       -0.3707
     10 S           2.7902   -1.9738   -0.2143 S.O2    1  UNL1        0.1115
     11 O           3.8661   -2.9488   -0.6351 O.2     1  UNL1       -0.1379
     12 O           1.5042   -2.7301   -0.0511 O.2     1  UNL1       -0.1379
     13 N           2.5843   -0.7752   -1.4173 N.pl3   1  UNL1       -0.2064
     14 C           1.5758    0.2051   -1.2728 C.ar    1  UNL1        0.0498
     15 C           1.9042    1.5426   -1.5174 C.ar    1  UNL1       -0.0387
     16 C           0.9630    2.5341   -1.3915 C.ar    1  UNL1       -0.0521
     17 C          -0.3222    2.2171   -1.0205 C.ar    1  UNL1       -0.0140
     18 C          -1.1701    3.3227   -0.9328 C.ar    1  UNL1       -0.0519
     19 C          -2.5287    3.4189   -0.7128 C.ar    1  UNL1       -0.0350
     20 C          -3.4042    2.3544   -0.6329 C.ar    1  UNL1        0.0747
     21 N          -4.7051    2.7271   -0.7099 N.ar    1  UNL1       -0.2543
     22 C          -5.6987    1.8325   -0.6506 C.ar    1  UNL1        0.0361
     23 C          -5.4802    0.4693   -0.5075 C.ar    1  UNL1        0.0039
     24 C          -6.6113   -0.4505   -0.4509 C.ar    1  UNL1        0.0210
     25 C          -7.8243   -0.2979   -1.0951 C.ar    1  UNL1        0.0571
     26 N          -8.5822   -1.3630   -0.7802 N.ar    1  UNL1       -0.1793
     27 N          -7.9403   -2.1923    0.0235 N.ar    1  UNL1       -0.2739
     28 C          -8.4492   -3.4580    0.5754 C.3     1  UNL1        0.0302
     29 C          -6.7303   -1.6459    0.2341 C.ar    1  UNL1        0.0329
     30 C          -4.1668    0.0538   -0.4258 C.ar    1  UNL1       -0.0396
     31 C          -3.1695    1.0029   -0.4904 C.ar    1  UNL1        0.0482
     32 C          -1.9169    0.4104   -0.3935 C.ar    1  UNL1        0.1958
     33 O          -1.9127   -0.7332    0.1058 O.2     1  UNL1       -0.2866
     34 C          -0.6780    0.9102   -0.7725 C.ar    1  UNL1        0.0312
     35 C           0.2801   -0.0892   -0.9017 C.ar    1  UNL1       -0.0279
     36 H           1.0780   -1.2384    1.6319 H       1  UNL1        0.0408
     37 H           2.1150   -1.6548    3.0761 H       1  UNL1        0.0408
     38 H           2.0610    0.0465    2.4396 H       1  UNL1        0.0408
     39 H           3.9170    0.5660    2.0401 H       1  UNL1        0.0470
     40 H           3.8774    0.2839    0.2150 H       1  UNL1        0.0470
     41 H           5.8327   -0.9929    2.2104 H       1  UNL1        0.0632
     42 H           5.6585    1.5905    0.7032 H       1  UNL1        0.0586
     43 H           6.6966    1.1291    2.0928 H       1  UNL1        0.0586
     44 H           8.2221   -0.5821    1.5251 H       1  UNL1        0.0583
     45 H           8.9116   -0.6007   -0.1848 H       1  UNL1        0.0583
     46 H           7.3643   -2.0889   -0.8970 H       1  UNL1        0.0583
     47 H           7.3381   -2.6079    0.8807 H       1  UNL1        0.0583
     48 H           3.2119   -0.7702   -2.2666 H       1  UNL1        0.1747
     49 H           2.9400    1.7561   -1.8116 H       1  UNL1        0.0637
     50 H           1.2001    3.5644   -1.5759 H       1  UNL1        0.0624
     51 H          -0.6450    4.2541   -1.0642 H       1  UNL1        0.0624
     52 H          -2.9702    4.4003   -0.5891 H       1  UNL1        0.0639
     53 H          -6.7461    2.1523   -0.7145 H       1  UNL1        0.0836
     54 H          -8.1089    0.5360   -1.7398 H       1  UNL1        0.0854
     55 H          -8.9939   -4.0286   -0.1953 H       1  UNL1        0.0473
     56 H          -7.5711   -4.0033    0.9866 H       1  UNL1        0.0473
     57 H          -9.0982   -3.2149    1.4521 H       1  UNL1        0.0473
     58 H          -5.9614   -2.0975    0.8618 H       1  UNL1        0.0832
     59 H          -3.9549   -0.9994   -0.3134 H       1  UNL1        0.0632
     60 H          -0.0151   -1.1115   -0.7045 H       1  UNL1        0.0644
@<TRIPOS>BOND
     1     1     2    1
     2     2     3    1
     3     3     4    1
     4     4     5    1
     5     5     6    1
     6     6     7    1
     7     7     8    1
     8     8     9    1
     9     2    10    1
    10    10    11    2
    11    10    12    2
    12    10    13    1
    13    13    14    1
    14    14    15   ar
    15    15    16   ar
    16    16    17   ar
    17    17    18   ar
    18    18    19   ar
    19    19    20   ar
    20    20    21   ar
    21    21    22   ar
    22    22    23   ar
    23    23    24    1
    24    24    25   ar
    25    25    26   ar
    26    26    27   ar
    27    27    28    1
    28    27    29   ar
    29    23    30   ar
    30    30    31   ar
    31    31    32   ar
    32    32    33    2
    33    32    34   ar
    34    34    35   ar
    35     9     4    1
    36    35    14   ar
    37    34    17   ar
    38    31    20   ar
    39    29    24   ar
    40     1    36    1
    41     1    37    1
    42     1    38    1
    43     3    39    1
    44     3    40    1
    45     4    41    1
    46     5    42    1
    47     5    43    1
    48     7    44    1
    49     7    45    1
    50     8    46    1
    51     8    47    1
    52    13    48    1
    53    15    49    1
    54    16    50    1
    55    18    51    1
    56    19    52    1
    57    22    53    1
    58    25    54    1
    59    28    55    1
    60    28    56    1
    61    28    57    1
    62    29    58    1
    63    30    59    1
    64    35    60    1
