@<TRIPOS>MOLECULE
*****
 38 40 0 0 0
SMALL
GASTEIGER

@<TRIPOS>ATOM
      1 C          -5.7649   -1.6366   -0.0164 C.3     1  UNL1        0.0788
      2 O          -4.9369   -0.5268   -0.1279 O.3     1  UNL1       -0.4951
      3 C          -3.5659   -0.5809   -0.1430 C.ar    1  UNL1        0.1208
      4 C          -2.8986   -1.7795   -0.0453 C.ar    1  UNL1       -0.0180
      5 C          -1.5076   -1.7729   -0.0662 C.ar    1  UNL1       -0.0337
      6 C          -0.7462   -0.6314   -0.1797 C.ar    1  UNL1        0.0571
      7 C          -1.4426    0.5611   -0.2763 C.ar    1  UNL1        0.0074
      8 C          -2.8252    0.5960   -0.2594 C.ar    1  UNL1       -0.0105
      9 C          -0.4925    1.5526   -0.3793 C.ar    1  UNL1       -0.0110
     10 C          -0.7734    3.0090   -0.5013 C.3     1  UNL1        0.0719
     11 C          -1.1735    3.6004    0.7851 C.2     1  UNL1        0.3091
     12 O          -1.2504    2.8865    1.8184 O.2     1  UNL1       -0.2507
     13 O          -1.4751    4.9412    0.9074 O.3     1  UNL1       -0.4804
     14 C           0.7533    0.9533   -0.3444 C.ar    1  UNL1        0.0176
     15 N           0.6022   -0.3656   -0.2227 N.ar    1  UNL1       -0.2828
     16 C           1.5901   -1.3557   -0.1126 C.2     1  UNL1        0.2629
     17 O           1.2372   -2.6010   -0.0498 O.2     1  UNL1       -0.2667
     18 C           3.0280   -1.1250   -0.0614 C.ar    1  UNL1        0.0399
     19 C           3.8659   -2.1143   -0.5927 C.ar    1  UNL1       -0.0480
     20 C           5.2183   -1.9498   -0.5088 C.ar    1  UNL1       -0.0427
     21 C           5.8276   -0.8634    0.0703 C.ar    1  UNL1        0.0410
     22 CL          7.5700   -0.7557    0.1215 Cl      1  UNL1       -0.0835
     23 C           5.0104    0.1074    0.5927 C.ar    1  UNL1       -0.0427
     24 C           3.6335   -0.0471    0.5152 C.ar    1  UNL1       -0.0480
     25 H          -5.9496   -1.8604    1.0761 H       1  UNL1        0.0660
     26 H          -5.3862   -2.5456   -0.4876 H       1  UNL1        0.0660
     27 H          -6.7780   -1.4234   -0.4575 H       1  UNL1        0.0660
     28 H          -3.4459   -2.7102    0.0474 H       1  UNL1        0.0655
     29 H          -1.0070   -2.7199    0.0119 H       1  UNL1        0.0640
     30 H          -3.3400    1.5380   -0.3370 H       1  UNL1        0.0661
     31 H           0.1122    3.4817   -0.9612 H       1  UNL1        0.0427
     32 H          -1.6167    3.1538   -1.2115 H       1  UNL1        0.0427
     33 H          -1.4495    5.4526    1.7925 H       1  UNL1        0.2951
     34 H           1.6381    1.5586   -0.4372 H       1  UNL1        0.0817
     35 H           3.3857   -2.9647   -1.0452 H       1  UNL1        0.0626
     36 H           5.8284   -2.7648   -0.9465 H       1  UNL1        0.0632
     37 H           5.4803    0.9662    1.0508 H       1  UNL1        0.0632
     38 H           3.0446    0.7362    0.9817 H       1  UNL1        0.0626
@<TRIPOS>BOND
     1     1     2    1
     2     2     3    1
     3     3     4   ar
     4     4     5   ar
     5     5     6   ar
     6     6     7   ar
     7     7     8   ar
     8     7     9   ar
     9     9    10    1
    10    10    11    1
    11    11    12    2
    12    11    13    1
    13     9    14   ar
    14    14    15   ar
    15    15    16   am
    16    16    17    2
    17    16    18    1
    18    18    19   ar
    19    19    20   ar
    20    20    21   ar
    21    21    22    1
    22    21    23   ar
    23    23    24   ar
    24     8     3   ar
    25    24    18   ar
    26    15     6   ar
    27     1    25    1
    28     1    26    1
    29     1    27    1
    30     4    28    1
    31     5    29    1
    32     8    30    1
    33    10    31    1
    34    10    32    1
    35    13    33    1
    36    14    34    1
    37    19    35    1
    38    20    36    1
    39    23    37    1
    40    24    38    1
