
     RDKit          3D

 38 40  0  0  0  0  0  0  0  0999 V2000
   -5.7649   -1.6366   -0.0164 C   0  0  0  0  0  0  0  0  0  0  0  0
   -4.9369   -0.5268   -0.1279 O   0  0  0  0  0  0  0  0  0  0  0  0
   -3.5659   -0.5809   -0.1430 C   0  0  0  0  0  0  0  0  0  0  0  0
   -2.8986   -1.7795   -0.0453 C   0  0  0  0  0  0  0  0  0  0  0  0
   -1.5076   -1.7729   -0.0662 C   0  0  0  0  0  0  0  0  0  0  0  0
   -0.7462   -0.6314   -0.1797 C   0  0  0  0  0  0  0  0  0  0  0  0
   -1.4426    0.5611   -0.2763 C   0  0  0  0  0  0  0  0  0  0  0  0
   -2.8252    0.5960   -0.2594 C   0  0  0  0  0  0  0  0  0  0  0  0
   -0.4925    1.5526   -0.3793 C   0  0  0  0  0  0  0  0  0  0  0  0
   -0.7734    3.0090   -0.5013 C   0  0  0  0  0  0  0  0  0  0  0  0
   -1.1735    3.6004    0.7851 C   0  0  0  0  0  0  0  0  0  0  0  0
   -1.2504    2.8865    1.8184 O   0  0  0  0  0  0  0  0  0  0  0  0
   -1.4751    4.9412    0.9074 O   0  0  0  0  0  0  0  0  0  0  0  0
    0.7533    0.9533   -0.3444 C   0  0  0  0  0  0  0  0  0  0  0  0
    0.6022   -0.3656   -0.2227 N   0  0  0  0  0  0  0  0  0  0  0  0
    1.5901   -1.3557   -0.1126 C   0  0  0  0  0  0  0  0  0  0  0  0
    1.2372   -2.6010   -0.0498 O   0  0  0  0  0  0  0  0  0  0  0  0
    3.0280   -1.1250   -0.0614 C   0  0  0  0  0  0  0  0  0  0  0  0
    3.8659   -2.1143   -0.5927 C   0  0  0  0  0  0  0  0  0  0  0  0
    5.2183   -1.9498   -0.5088 C   0  0  0  0  0  0  0  0  0  0  0  0
    5.8276   -0.8634    0.0703 C   0  0  0  0  0  0  0  0  0  0  0  0
    7.5700   -0.7557    0.1215 Cl  0  0  0  0  0  0  0  0  0  0  0  0
    5.0104    0.1074    0.5927 C   0  0  0  0  0  0  0  0  0  0  0  0
    3.6335   -0.0471    0.5152 C   0  0  0  0  0  0  0  0  0  0  0  0
   -5.9496   -1.8604    1.0761 H   0  0  0  0  0  0  0  0  0  0  0  0
   -5.3862   -2.5456   -0.4876 H   0  0  0  0  0  0  0  0  0  0  0  0
   -6.7780   -1.4234   -0.4575 H   0  0  0  0  0  0  0  0  0  0  0  0
   -3.4459   -2.7102    0.0474 H   0  0  0  0  0  0  0  0  0  0  0  0
   -1.0070   -2.7199    0.0119 H   0  0  0  0  0  0  0  0  0  0  0  0
   -3.3400    1.5380   -0.3370 H   0  0  0  0  0  0  0  0  0  0  0  0
    0.1122    3.4817   -0.9612 H   0  0  0  0  0  0  0  0  0  0  0  0
   -1.6167    3.1538   -1.2115 H   0  0  0  0  0  0  0  0  0  0  0  0
   -1.4495    5.4526    1.7925 H   0  0  0  0  0  0  0  0  0  0  0  0
    1.6381    1.5586   -0.4372 H   0  0  0  0  0  0  0  0  0  0  0  0
    3.3857   -2.9647   -1.0452 H   0  0  0  0  0  0  0  0  0  0  0  0
    5.8284   -2.7648   -0.9465 H   0  0  0  0  0  0  0  0  0  0  0  0
    5.4803    0.9662    1.0508 H   0  0  0  0  0  0  0  0  0  0  0  0
    3.0446    0.7362    0.9817 H   0  0  0  0  0  0  0  0  0  0  0  0
  1  2  1  0
  2  3  1  0
  3  4  2  0
  4  5  1  0
  5  6  2  0
  6  7  1  0
  7  8  2  0
  7  9  1  0
  9 10  1  0
 10 11  1  0
 11 12  2  0
 11 13  1  0
  9 14  2  0
 14 15  1  0
 15 16  1  0
 16 17  2  0
 16 18  1  0
 18 19  2  0
 19 20  1  0
 20 21  2  0
 21 22  1  0
 21 23  1  0
 23 24  2  0
  8  3  1  0
 24 18  1  0
 15  6  1  0
  1 25  1  0
  1 26  1  0
  1 27  1  0
  4 28  1  0
  5 29  1  0
  8 30  1  0
 10 31  1  0
 10 32  1  0
 13 33  1  0
 14 34  1  0
 19 35  1  0
 20 36  1  0
 23 37  1  0
 24 38  1  0
M  END
$$$$
