@<TRIPOS>MOLECULE
*****
 36 38 0 0 0
SMALL
GASTEIGER

@<TRIPOS>ATOM
      1 C           3.4336   -0.1725    1.2642 C.3     1  UNL1        0.0130
      2 N           3.0776   -0.4128   -0.1252 N.ar    1  UNL1       -0.3350
      3 C           3.9529   -0.9238   -1.0231 C.ar    1  UNL1        0.1202
      4 C           3.3955   -1.0636   -2.2724 C.ar    1  UNL1       -0.0256
      5 C           2.0924   -0.6028   -2.1094 C.ar    1  UNL1       -0.0350
      6 C           1.9023   -0.2033   -0.7851 C.ar    1  UNL1        0.0498
      7 C           0.7225    0.3444   -0.1266 C.ar    1  UNL1       -0.0010
      8 C           0.9391    1.4325    0.6936 C.ar    1  UNL1       -0.0509
      9 C          -0.1364    1.9881    1.3384 C.ar    1  UNL1       -0.0394
     10 C          -1.3871    1.4815    1.1755 C.ar    1  UNL1        0.0410
     11 N          -2.5546    1.9903    1.8008 N.am    1  UNL1       -0.2790
     12 C          -3.7792    1.3358    1.5159 C.2     1  UNL1        0.2332
     13 S          -5.1160    1.9441    2.2521 S.2     1  UNL1        0.0061
     14 O          -3.9765    0.2491    0.6931 O.3     1  UNL1       -0.4630
     15 C          -2.8902   -0.3354    0.0233 C.3     1  UNL1        0.1336
     16 C          -3.1385   -0.1187   -1.4709 C.3     1  UNL1       -0.0208
     17 C          -2.7697   -1.8130    0.3285 C.3     1  UNL1       -0.0208
     18 C          -1.6557    0.3982    0.3690 C.ar    1  UNL1        0.0170
     19 C          -0.5638   -0.1738   -0.2919 C.ar    1  UNL1       -0.0439
     20 C           5.3249   -1.2951   -0.7489 C.1     1  UNL1        0.1173
     21 N           6.4294   -1.5806   -0.5185 N.1     1  UNL1       -0.1893
     22 H           2.5093   -0.1791    1.8998 H       1  UNL1        0.0456
     23 H           3.9604    0.7789    1.3260 H       1  UNL1        0.0456
     24 H           4.0811   -1.0403    1.5833 H       1  UNL1        0.0456
     25 H           3.8701   -1.4441   -3.1644 H       1  UNL1        0.0646
     26 H           1.3368   -0.5518   -2.8614 H       1  UNL1        0.0639
     27 H           1.8887    1.9107    0.8913 H       1  UNL1        0.0625
     28 H          -0.0632    2.8470    2.0045 H       1  UNL1        0.0636
     29 H          -2.4921    2.8022    2.4317 H       1  UNL1        0.1555
     30 H          -2.5800    0.7696   -1.8337 H       1  UNL1        0.0271
     31 H          -4.1982    0.0908   -1.6678 H       1  UNL1        0.0271
     32 H          -2.8356   -0.9957   -2.0657 H       1  UNL1        0.0271
     33 H          -2.4129   -2.3246   -0.5892 H       1  UNL1        0.0271
     34 H          -2.0524   -1.9071    1.1570 H       1  UNL1        0.0271
     35 H          -3.7511   -2.1949    0.6634 H       1  UNL1        0.0271
     36 H          -0.5632   -1.0305   -0.9703 H       1  UNL1        0.0629
@<TRIPOS>BOND
     1     1     2    1
     2     2     3   ar
     3     3     4   ar
     4     4     5   ar
     5     5     6   ar
     6     6     7    1
     7     7     8   ar
     8     8     9   ar
     9     9    10   ar
    10    10    11    1
    11    11    12    1
    12    12    13    2
    13    12    14    1
    14    14    15    1
    15    15    16    1
    16    15    17    1
    17    15    18    1
    18    18    19   ar
    19     3    20    1
    20    20    21    3
    21     6     2   ar
    22    19     7   ar
    23    18    10   ar
    24     1    22    1
    25     1    23    1
    26     1    24    1
    27     4    25    1
    28     5    26    1
    29     8    27    1
    30     9    28    1
    31    11    29    1
    32    16    30    1
    33    16    31    1
    34    16    32    1
    35    17    33    1
    36    17    34    1
    37    17    35    1
    38    19    36    1
