
     RDKit          3D

 52 56  0  0  0  0  0  0  0  0999 V2000
   -2.7955    3.3209    2.1266 N   0  0  0  0  0  0  0  0  0  0  0  0
   -1.9374    2.4336    1.4282 C   0  0  0  0  0  0  0  0  0  0  0  0
   -1.6247    1.2380    1.7346 N   0  0  0  0  0  0  0  0  0  0  0  0
   -0.7419    0.6646    0.7928 C   0  0  2  0  0  0  0  0  0  0  0  0
   -1.3792   -0.5165    0.1146 C   0  0  0  0  0  0  0  0  0  0  0  0
   -1.7269   -1.6089    0.8771 C   0  0  0  0  0  0  0  0  0  0  0  0
   -2.3192   -2.7350    0.3254 C   0  0  0  0  0  0  0  0  0  0  0  0
   -2.5686   -2.7666   -1.0206 C   0  0  0  0  0  0  0  0  0  0  0  0
   -3.1587   -3.8936   -1.5572 O   0  0  0  0  0  0  0  0  0  0  0  0
   -4.5696   -3.9666   -1.6311 C   0  0  0  0  0  0  0  0  0  0  0  0
   -5.1639   -3.8774   -0.3869 F   0  0  0  0  0  0  0  0  0  0  0  0
   -4.9862   -5.1659   -2.1746 F   0  0  0  0  0  0  0  0  0  0  0  0
   -5.0655   -2.9684   -2.4807 F   0  0  0  0  0  0  0  0  0  0  0  0
   -2.2325   -1.6856   -1.8199 C   0  0  0  0  0  0  0  0  0  0  0  0
   -1.6377   -0.5682   -1.2328 C   0  0  0  0  0  0  0  0  0  0  0  0
    0.5162    0.1610    1.3814 C   0  0  0  0  0  0  0  0  0  0  0  0
    0.7639    0.1641    2.7358 C   0  0  0  0  0  0  0  0  0  0  0  0
    1.9510   -0.3180    3.2628 C   0  0  0  0  0  0  0  0  0  0  0  0
    2.9136   -0.8142    2.4252 C   0  0  0  0  0  0  0  0  0  0  0  0
    2.6929   -0.8312    1.0471 C   0  0  0  0  0  0  0  0  0  0  0  0
    3.6965   -1.3521    0.1593 C   0  0  0  0  0  0  0  0  0  0  0  0
    4.5070   -2.3905    0.6289 C   0  0  0  0  0  0  0  0  0  0  0  0
    5.4709   -2.9462   -0.1179 N   0  0  0  0  0  0  0  0  0  0  0  0
    5.6863   -2.4986   -1.3837 C   0  0  0  0  0  0  0  0  0  0  0  0
    4.9202   -1.5070   -1.8469 N   0  0  0  0  0  0  0  0  0  0  0  0
    3.9385   -0.9213   -1.1242 C   0  0  0  0  0  0  0  0  0  0  0  0
    1.4825   -0.3368    0.5437 C   0  0  0  0  0  0  0  0  0  0  0  0
   -0.4910    1.7547   -0.1951 C   0  0  0  0  0  0  0  0  0  0  0  0
    0.2609    1.8162   -1.2544 N   0  0  0  0  0  0  0  0  0  0  0  0
    0.3486    3.0069   -2.0780 C   0  0  0  0  0  0  0  0  0  0  0  0
    0.0213    4.2418   -1.2516 C   0  0  0  0  0  0  0  0  0  0  0  0
   -1.2949    4.0718   -0.5378 C   0  0  0  0  0  0  0  0  0  0  0  0
   -1.2644    2.8475    0.2116 N   0  0  0  0  0  0  0  0  0  0  0  0
   -2.5693    3.5676    3.1021 H   0  0  0  0  0  0  0  0  0  0  0  0
   -3.6326    3.7169    1.6746 H   0  0  0  0  0  0  0  0  0  0  0  0
   -1.5448   -1.6180    1.9394 H   0  0  0  0  0  0  0  0  0  0  0  0
   -2.5922   -3.5949    0.9302 H   0  0  0  0  0  0  0  0  0  0  0  0
   -2.4415   -1.7451   -2.8644 H   0  0  0  0  0  0  0  0  0  0  0  0
   -1.3905    0.2478   -1.8635 H   0  0  0  0  0  0  0  0  0  0  0  0
    0.0168    0.5497    3.3901 H   0  0  0  0  0  0  0  0  0  0  0  0
    2.0976   -0.2936    4.3320 H   0  0  0  0  0  0  0  0  0  0  0  0
    3.8441   -1.1916    2.8386 H   0  0  0  0  0  0  0  0  0  0  0  0
    4.3482   -2.7568    1.6329 H   0  0  0  0  0  0  0  0  0  0  0  0
    6.4759   -2.9913   -1.9235 H   0  0  0  0  0  0  0  0  0  0  0  0
    3.3300   -0.1237   -1.5120 H   0  0  0  0  0  0  0  0  0  0  0  0
    1.3730   -0.3776   -0.5292 H   0  0  0  0  0  0  0  0  0  0  0  0
   -0.2420    2.9528   -2.9912 H   0  0  0  0  0  0  0  0  0  0  0  0
    1.4121    3.1135   -2.3742 H   0  0  0  0  0  0  0  0  0  0  0  0
    0.7930    4.3944   -0.4684 H   0  0  0  0  0  0  0  0  0  0  0  0
    0.0452    5.1141   -1.9041 H   0  0  0  0  0  0  0  0  0  0  0  0
   -1.4055    4.9263    0.1648 H   0  0  0  0  0  0  0  0  0  0  0  0
   -2.1301    4.0567   -1.2757 H   0  0  0  0  0  0  0  0  0  0  0  0
  1  2  1  0
  2  3  2  0
  3  4  1  0
  4  5  1  6
  5  6  2  0
  6  7  1  0
  7  8  2  0
  8  9  1  0
  9 10  1  0
 10 11  1  0
 10 12  1  0
 10 13  1  0
  8 14  1  0
 14 15  2  0
  4 16  1  0
 16 17  2  0
 17 18  1  0
 18 19  2  0
 19 20  1  0
 20 21  1  0
 21 22  2  0
 22 23  1  0
 23 24  2  0
 24 25  1  0
 25 26  2  0
 20 27  2  0
  4 28  1  0
 28 29  2  0
 29 30  1  0
 30 31  1  0
 31 32  1  0
 32 33  1  0
 33  2  1  0
 15  5  1  0
 27 16  1  0
 33 28  1  0
 26 21  1  0
  1 34  1  0
  1 35  1  0
  6 36  1  0
  7 37  1  0
 14 38  1  0
 15 39  1  0
 17 40  1  0
 18 41  1  0
 19 42  1  0
 22 43  1  0
 24 44  1  0
 26 45  1  0
 27 46  1  0
 30 47  1  0
 30 48  1  0
 31 49  1  0
 31 50  1  0
 32 51  1  0
 32 52  1  0
M  END
$$$$
