@<TRIPOS>MOLECULE
*****
 52 56 0 0 0
SMALL
GASTEIGER

@<TRIPOS>ATOM
      1 N          -2.7955    3.3209    2.1266 N.pl3   1  UNL1       -0.2440
      2 C          -1.9374    2.4336    1.4282 C.cat   1  UNL1        0.4035
      3 N          -1.6247    1.2380    1.7346 N.2     1  UNL1       -0.0797
      4 C          -0.7419    0.6646    0.7928 C.3     1  UNL1        0.2765
      5 C          -1.3792   -0.5165    0.1146 C.ar    1  UNL1        0.0123
      6 C          -1.7269   -1.6089    0.8771 C.ar    1  UNL1       -0.0505
      7 C          -2.3192   -2.7350    0.3254 C.ar    1  UNL1       -0.0192
      8 C          -2.5686   -2.7666   -1.0206 C.ar    1  UNL1        0.1300
      9 O          -3.1587   -3.8936   -1.5572 O.3     1  UNL1       -0.4057
     10 C          -4.5696   -3.9666   -1.6311 C.3     1  UNL1        0.5752
     11 F          -5.1639   -3.8774   -0.3869 F       1  UNL1       -0.1328
     12 F          -4.9862   -5.1659   -2.1746 F       1  UNL1       -0.1328
     13 F          -5.0655   -2.9684   -2.4807 F       1  UNL1       -0.1328
     14 C          -2.2325   -1.6856   -1.8199 C.ar    1  UNL1       -0.0192
     15 C          -1.6377   -0.5682   -1.2328 C.ar    1  UNL1       -0.0505
     16 C           0.5162    0.1610    1.3814 C.ar    1  UNL1        0.0126
     17 C           0.7639    0.1641    2.7358 C.ar    1  UNL1       -0.0539
     18 C           1.9510   -0.3180    3.2628 C.ar    1  UNL1       -0.0608
     19 C           2.9136   -0.8142    2.4252 C.ar    1  UNL1       -0.0539
     20 C           2.6929   -0.8312    1.0471 C.ar    1  UNL1       -0.0146
     21 C           3.6965   -1.3521    0.1593 C.ar    1  UNL1        0.0183
     22 C           4.5070   -2.3905    0.6289 C.ar    1  UNL1        0.0385
     23 N           5.4709   -2.9462   -0.1179 N.ar    1  UNL1       -0.2431
     24 C           5.6863   -2.4986   -1.3837 C.ar    1  UNL1        0.1159
     25 N           4.9202   -1.5070   -1.8469 N.ar    1  UNL1       -0.2431
     26 C           3.9385   -0.9213   -1.1242 C.ar    1  UNL1        0.0385
     27 C           1.4825   -0.3368    0.5437 C.ar    1  UNL1       -0.0462
     28 C          -0.4910    1.7547   -0.1951 C.2     1  UNL1        0.3456
     29 N           0.2609    1.8162   -1.2544 N.2     1  UNL1       -0.0826
     30 C           0.3486    3.0069   -2.0780 C.3     1  UNL1        0.1354
     31 C           0.0213    4.2418   -1.2516 C.3     1  UNL1        0.0258
     32 C          -1.2949    4.0718   -0.5378 C.3     1  UNL1        0.0948
     33 N          -1.2644    2.8475    0.2116 N.pl3   1  UNL1       -0.1308
     34 H          -2.5693    3.5676    3.1021 H       1  UNL1        0.2420
     35 H          -3.6326    3.7169    1.6746 H       1  UNL1        0.2420
     36 H          -1.5448   -1.6180    1.9394 H       1  UNL1        0.0623
     37 H          -2.5922   -3.5949    0.9302 H       1  UNL1        0.0654
     38 H          -2.4415   -1.7451   -2.8644 H       1  UNL1        0.0654
     39 H          -1.3905    0.2478   -1.8635 H       1  UNL1        0.0623
     40 H           0.0168    0.5497    3.3901 H       1  UNL1        0.0622
     41 H           2.0976   -0.2936    4.3320 H       1  UNL1        0.0618
     42 H           3.8441   -1.1916    2.8386 H       1  UNL1        0.0624
     43 H           4.3482   -2.7568    1.6329 H       1  UNL1        0.0837
     44 H           6.4759   -2.9913   -1.9235 H       1  UNL1        0.1047
     45 H           3.3300   -0.1237   -1.5120 H       1  UNL1        0.0837
     46 H           1.3730   -0.3776   -0.5292 H       1  UNL1        0.0628
     47 H          -0.2420    2.9528   -2.9912 H       1  UNL1        0.0792
     48 H           1.4121    3.1135   -2.3742 H       1  UNL1        0.0792
     49 H           0.7930    4.3944   -0.4684 H       1  UNL1        0.0341
     50 H           0.0452    5.1141   -1.9041 H       1  UNL1        0.0341
     51 H          -1.4055    4.9263    0.1648 H       1  UNL1        0.0733
     52 H          -2.1301    4.0567   -1.2757 H       1  UNL1        0.0733
@<TRIPOS>BOND
     1     1     2    1
     2     2     3    2
     3     3     4    1
     4     4     5    1
     5     5     6   ar
     6     6     7   ar
     7     7     8   ar
     8     8     9    1
     9     9    10    1
    10    10    11    1
    11    10    12    1
    12    10    13    1
    13     8    14   ar
    14    14    15   ar
    15     4    16    1
    16    16    17   ar
    17    17    18   ar
    18    18    19   ar
    19    19    20   ar
    20    20    21    1
    21    21    22   ar
    22    22    23   ar
    23    23    24   ar
    24    24    25   ar
    25    25    26   ar
    26    20    27   ar
    27     4    28    1
    28    28    29    2
    29    29    30    1
    30    30    31    1
    31    31    32    1
    32    32    33    1
    33    33     2    1
    34    15     5   ar
    35    27    16   ar
    36    33    28    1
    37    26    21   ar
    38     1    34    1
    39     1    35    1
    40     6    36    1
    41     7    37    1
    42    14    38    1
    43    15    39    1
    44    17    40    1
    45    18    41    1
    46    19    42    1
    47    22    43    1
    48    24    44    1
    49    26    45    1
    50    27    46    1
    51    30    47    1
    52    30    48    1
    53    31    49    1
    54    31    50    1
    55    32    51    1
    56    32    52    1
