
     RDKit          3D

 62 66  0  0  0  0  0  0  0  0999 V2000
   -4.0304   -1.7201    3.4133 C   0  0  0  0  0  0  0  0  0  0  0  0
   -3.7409   -1.8082    1.9574 C   0  0  0  0  0  0  0  0  0  0  0  0
   -2.7411   -1.0864    1.3529 C   0  0  0  0  0  0  0  0  0  0  0  0
   -2.4571   -1.1576   -0.0095 C   0  0  0  0  0  0  0  0  0  0  0  0
   -1.4186   -0.3977   -0.5936 N   0  0  0  0  0  0  0  0  0  0  0  0
   -0.0657   -0.8257   -0.6784 C   0  0  0  0  0  0  0  0  0  0  0  0
    0.4559   -1.8933   -0.2566 O   0  0  0  0  0  0  0  0  0  0  0  0
    0.7067    0.2156   -1.3742 C   0  0  0  0  0  0  0  0  0  0  0  0
    1.9350    0.5596   -1.8387 C   0  0  0  0  0  0  0  0  0  0  0  0
    3.1564   -0.1653   -1.7518 N   0  0  0  0  0  0  0  0  0  0  0  0
    4.0466   -0.0004   -0.6449 C   0  0  0  0  0  0  0  0  0  0  0  0
    3.7464    0.7959    0.2646 O   0  0  0  0  0  0  0  0  0  0  0  0
    5.2235   -0.6943   -0.5544 O   0  0  0  0  0  0  0  0  0  0  0  0
    6.1525   -0.5947    0.4918 C   0  0  0  0  0  0  0  0  0  0  0  0
    5.5388   -0.9743    1.8104 C   0  0  0  0  0  0  0  0  0  0  0  0
    6.8107    0.7538    0.5655 C   0  0  0  0  0  0  0  0  0  0  0  0
    7.2491   -1.6225    0.2021 C   0  0  0  0  0  0  0  0  0  0  0  0
    1.7936    1.7921   -2.4395 C   0  0  0  0  0  0  0  0  0  0  0  0
    0.4970    2.1847   -2.3377 N   0  0  0  0  0  0  0  0  0  0  0  0
    0.0458    3.4550   -2.9013 C   0  0  0  0  0  0  0  0  0  0  0  0
   -0.1887    1.2329   -1.6864 C   0  0  0  0  0  0  0  0  0  0  0  0
   -1.5249    0.8920   -1.1919 C   0  0  0  0  0  0  0  0  0  0  0  0
   -2.1112    1.9104   -0.2904 C   0  0  0  0  0  0  0  0  0  0  0  0
   -3.4175    1.7876    0.1565 C   0  0  0  0  0  0  0  0  0  0  0  0
   -3.9939    2.6961    1.0138 C   0  0  0  0  0  0  0  0  0  0  0  0
   -3.2883    3.7810    1.4705 C   0  0  0  0  0  0  0  0  0  0  0  0
   -3.9898    4.9639    2.5666 Cl  0  0  0  0  0  0  0  0  0  0  0  0
   -1.9872    3.9352    1.0470 C   0  0  0  0  0  0  0  0  0  0  0  0
   -1.4224    3.0027    0.1784 C   0  0  0  0  0  0  0  0  0  0  0  0
   -3.2346   -1.9962   -0.7340 N   0  0  0  0  0  0  0  0  0  0  0  0
   -4.2247   -2.7295   -0.2154 C   0  0  0  0  0  0  0  0  0  0  0  0
   -4.4911   -2.6450    1.1390 C   0  0  0  0  0  0  0  0  0  0  0  0
   -5.5105   -3.4719    1.3636 N   0  0  0  0  0  0  0  0  0  0  0  0
   -5.8473   -4.0323    0.1999 N   0  0  0  0  0  0  0  0  0  0  0  0
   -5.0856   -3.6002   -0.7684 N   0  0  0  0  0  0  0  0  0  0  0  0
   -5.1727   -3.9947   -2.1452 C   0  0  0  0  0  0  0  0  0  0  0  0
   -4.6106   -0.7781    3.5594 H   0  0  0  0  0  0  0  0  0  0  0  0
   -3.0824   -1.6122    3.9457 H   0  0  0  0  0  0  0  0  0  0  0  0
   -4.6142   -2.6115    3.7223 H   0  0  0  0  0  0  0  0  0  0  0  0
   -2.1465   -0.4310    1.9681 H   0  0  0  0  0  0  0  0  0  0  0  0
    3.4277   -0.8447   -2.5133 H   0  0  0  0  0  0  0  0  0  0  0  0
    6.2243   -0.6765    2.6408 H   0  0  0  0  0  0  0  0  0  0  0  0
    4.5114   -0.6327    1.9492 H   0  0  0  0  0  0  0  0  0  0  0  0
    5.5105   -2.0931    1.8410 H   0  0  0  0  0  0  0  0  0  0  0  0
    6.3174    1.4330    1.2906 H   0  0  0  0  0  0  0  0  0  0  0  0
    7.8633    0.6159    0.8860 H   0  0  0  0  0  0  0  0  0  0  0  0
    6.8449    1.1841   -0.4626 H   0  0  0  0  0  0  0  0  0  0  0  0
    6.8392   -2.5101   -0.3097 H   0  0  0  0  0  0  0  0  0  0  0  0
    7.7139   -1.9531    1.1665 H   0  0  0  0  0  0  0  0  0  0  0  0
    8.0369   -1.2009   -0.4568 H   0  0  0  0  0  0  0  0  0  0  0  0
    2.6022    2.3384   -2.9100 H   0  0  0  0  0  0  0  0  0  0  0  0
    0.3335    3.5332   -3.9819 H   0  0  0  0  0  0  0  0  0  0  0  0
    0.5530    4.2787   -2.3769 H   0  0  0  0  0  0  0  0  0  0  0  0
   -1.0550    3.4716   -2.8164 H   0  0  0  0  0  0  0  0  0  0  0  0
   -2.2386    0.8360   -2.0750 H   0  0  0  0  0  0  0  0  0  0  0  0
   -4.0293    0.9382   -0.1896 H   0  0  0  0  0  0  0  0  0  0  0  0
   -5.0125    2.5597    1.3348 H   0  0  0  0  0  0  0  0  0  0  0  0
   -1.4348    4.7929    1.4100 H   0  0  0  0  0  0  0  0  0  0  0  0
   -0.4082    3.1633   -0.1118 H   0  0  0  0  0  0  0  0  0  0  0  0
   -6.0895   -3.5988   -2.6037 H   0  0  0  0  0  0  0  0  0  0  0  0
   -5.1909   -5.1053   -2.2357 H   0  0  0  0  0  0  0  0  0  0  0  0
   -4.2796   -3.6450   -2.7338 H   0  0  0  0  0  0  0  0  0  0  0  0
  1  2  1  0
  2  3  2  0
  3  4  1  0
  4  5  1  0
  5  6  1  0
  6  7  2  0
  6  8  1  0
  8  9  1  0
  9 10  1  0
 10 11  1  0
 11 12  2  0
 11 13  1  0
 13 14  1  0
 14 15  1  0
 14 16  1  0
 14 17  1  0
  9 18  2  0
 18 19  1  0
 19 20  1  0
 19 21  1  0
 21 22  1  0
 22 23  1  0
 23 24  2  0
 24 25  1  0
 25 26  2  0
 26 27  1  0
 26 28  1  0
 28 29  2  0
  4 30  2  0
 30 31  1  0
 31 32  2  0
 32 33  1  0
 33 34  2  0
 34 35  1  0
 35 36  1  0
 32  2  1  0
 22  5  1  0
 29 23  1  0
 35 31  1  0
 21  8  2  0
  1 37  1  0
  1 38  1  0
  1 39  1  0
  3 40  1  0
 10 41  1  0
 15 42  1  0
 15 43  1  0
 15 44  1  0
 16 45  1  0
 16 46  1  0
 16 47  1  0
 17 48  1  0
 17 49  1  0
 17 50  1  0
 18 51  1  0
 20 52  1  0
 20 53  1  0
 20 54  1  0
 22 55  1  0
 24 56  1  0
 25 57  1  0
 28 58  1  0
 29 59  1  0
 36 60  1  0
 36 61  1  0
 36 62  1  0
M  END
$$$$
