@<TRIPOS>MOLECULE
*****
 62 66 0 0 0
SMALL
GASTEIGER

@<TRIPOS>ATOM
      1 C          -4.0304   -1.7201    3.4133 C.3     1  UNL1       -0.0374
      2 C          -3.7409   -1.8082    1.9574 C.ar    1  UNL1       -0.0164
      3 C          -2.7411   -1.0864    1.3529 C.ar    1  UNL1       -0.0161
      4 C          -2.4571   -1.1576   -0.0095 C.ar    1  UNL1        0.1313
      5 N          -1.4186   -0.3977   -0.5936 N.am    1  UNL1       -0.2387
      6 C          -0.0657   -0.8257   -0.6784 C.2     1  UNL1        0.2563
      7 O           0.4559   -1.8933   -0.2566 O.2     1  UNL1       -0.2694
      8 C           0.7067    0.2156   -1.3742 C.ar    1  UNL1        0.0814
      9 C           1.9350    0.5596   -1.8387 C.ar    1  UNL1        0.0664
     10 N           3.1564   -0.1653   -1.7518 N.am    1  UNL1       -0.2490
     11 C           4.0466   -0.0004   -0.6449 C.2     1  UNL1        0.4051
     12 O           3.7464    0.7959    0.2646 O.2     1  UNL1       -0.2261
     13 O           5.2235   -0.6943   -0.5544 O.3     1  UNL1       -0.4444
     14 C           6.1525   -0.5947    0.4918 C.3     1  UNL1        0.1068
     15 C           5.5388   -0.9743    1.8104 C.3     1  UNL1       -0.0253
     16 C           6.8107    0.7538    0.5655 C.3     1  UNL1       -0.0253
     17 C           7.2491   -1.6225    0.2021 C.3     1  UNL1       -0.0253
     18 C           1.7936    1.7921   -2.4395 C.ar    1  UNL1        0.0267
     19 N           0.4970    2.1847   -2.3377 N.ar    1  UNL1       -0.3492
     20 C           0.0458    3.4550   -2.9013 C.3     1  UNL1        0.0117
     21 C          -0.1887    1.2329   -1.6864 C.ar    1  UNL1        0.0581
     22 C          -1.5249    0.8920   -1.1919 C.3     1  UNL1        0.0986
     23 C          -2.1112    1.9104   -0.2904 C.ar    1  UNL1       -0.0207
     24 C          -3.4175    1.7876    0.1565 C.ar    1  UNL1       -0.0550
     25 C          -3.9939    2.6961    1.0138 C.ar    1  UNL1       -0.0431
     26 C          -3.2883    3.7810    1.4705 C.ar    1  UNL1        0.0410
     27 CL         -3.9898    4.9639    2.5666 Cl      1  UNL1       -0.0835
     28 C          -1.9872    3.9352    1.0470 C.ar    1  UNL1       -0.0431
     29 C          -1.4224    3.0027    0.1784 C.ar    1  UNL1       -0.0550
     30 N          -3.2346   -1.9962   -0.7340 N.ar    1  UNL1       -0.2108
     31 C          -4.2247   -2.7295   -0.2154 C.ar    1  UNL1        0.1803
     32 C          -4.4911   -2.6450    1.1390 C.ar    1  UNL1        0.1345
     33 N          -5.5105   -3.4719    1.3636 N.ar    1  UNL1       -0.1276
     34 N          -5.8473   -4.0323    0.1999 N.ar    1  UNL1       -0.0635
     35 N          -5.0856   -3.6002   -0.7684 N.ar    1  UNL1       -0.2297
     36 C          -5.1727   -3.9947   -2.1452 C.3     1  UNL1        0.0341
     37 H          -4.6106   -0.7781    3.5594 H       1  UNL1        0.0278
     38 H          -3.0824   -1.6122    3.9457 H       1  UNL1        0.0278
     39 H          -4.6142   -2.6115    3.7223 H       1  UNL1        0.0278
     40 H          -2.1465   -0.4310    1.9681 H       1  UNL1        0.0655
     41 H           3.4277   -0.8447   -2.5133 H       1  UNL1        0.1582
     42 H           6.2243   -0.6765    2.6408 H       1  UNL1        0.0268
     43 H           4.5114   -0.6327    1.9492 H       1  UNL1        0.0268
     44 H           5.5105   -2.0931    1.8410 H       1  UNL1        0.0268
     45 H           6.3174    1.4330    1.2906 H       1  UNL1        0.0268
     46 H           7.8633    0.6159    0.8860 H       1  UNL1        0.0268
     47 H           6.8449    1.1841   -0.4626 H       1  UNL1        0.0268
     48 H           6.8392   -2.5101   -0.3097 H       1  UNL1        0.0268
     49 H           7.7139   -1.9531    1.1665 H       1  UNL1        0.0268
     50 H           8.0369   -1.2009   -0.4568 H       1  UNL1        0.0268
     51 H           2.6022    2.3384   -2.9100 H       1  UNL1        0.0828
     52 H           0.3335    3.5332   -3.9819 H       1  UNL1        0.0456
     53 H           0.5530    4.2787   -2.3769 H       1  UNL1        0.0456
     54 H          -1.0550    3.4716   -2.8164 H       1  UNL1        0.0456
     55 H          -2.2386    0.8360   -2.0750 H       1  UNL1        0.0620
     56 H          -4.0293    0.9382   -0.1896 H       1  UNL1        0.0621
     57 H          -5.0125    2.5597    1.3348 H       1  UNL1        0.0632
     58 H          -1.4348    4.7929    1.4100 H       1  UNL1        0.0632
     59 H          -0.4082    3.1633   -0.1118 H       1  UNL1        0.0621
     60 H          -6.0895   -3.5988   -2.6037 H       1  UNL1        0.0474
     61 H          -5.1909   -5.1053   -2.2357 H       1  UNL1        0.0474
     62 H          -4.2796   -3.6450   -2.7338 H       1  UNL1        0.0474
@<TRIPOS>BOND
     1     1     2    1
     2     2     3   ar
     3     3     4   ar
     4     4     5    1
     5     5     6   am
     6     6     7    2
     7     6     8    1
     8     8     9   ar
     9     9    10    1
    10    10    11   am
    11    11    12    2
    12    11    13    1
    13    13    14    1
    14    14    15    1
    15    14    16    1
    16    14    17    1
    17     9    18   ar
    18    18    19   ar
    19    19    20    1
    20    19    21   ar
    21    21    22    1
    22    22    23    1
    23    23    24   ar
    24    24    25   ar
    25    25    26   ar
    26    26    27    1
    27    26    28   ar
    28    28    29   ar
    29     4    30   ar
    30    30    31   ar
    31    31    32   ar
    32    32    33   ar
    33    33    34   ar
    34    34    35   ar
    35    35    36    1
    36    32     2   ar
    37    22     5    1
    38    29    23   ar
    39    35    31   ar
    40    21     8   ar
    41     1    37    1
    42     1    38    1
    43     1    39    1
    44     3    40    1
    45    10    41    1
    46    15    42    1
    47    15    43    1
    48    15    44    1
    49    16    45    1
    50    16    46    1
    51    16    47    1
    52    17    48    1
    53    17    49    1
    54    17    50    1
    55    18    51    1
    56    20    52    1
    57    20    53    1
    58    20    54    1
    59    22    55    1
    60    24    56    1
    61    25    57    1
    62    28    58    1
    63    29    59    1
    64    36    60    1
    65    36    61    1
    66    36    62    1
