@<TRIPOS>MOLECULE
*****
 44 47 0 0 0
SMALL
GASTEIGER

@<TRIPOS>ATOM
      1 N          -2.4284    2.2450    0.8115 N.3     1  UNL1       -0.3291
      2 C          -1.7017    1.6307   -0.2623 C.3     1  UNL1        0.0028
      3 C          -1.5052    0.1413   -0.1069 C.3     1  UNL1        0.0109
      4 C          -0.7229   -0.3953   -1.2878 C.3     1  UNL1       -0.0263
      5 C           0.6700    0.1824   -1.3402 C.3     1  UNL1        0.0144
      6 N           1.3487    0.0448   -0.0620 N.pl3   1  UNL1       -0.3145
      7 C           0.6175   -0.7037    0.9426 C.3     1  UNL1        0.0144
      8 C          -0.7588   -0.0976    1.1812 C.3     1  UNL1       -0.0263
      9 C           2.6214    0.5580    0.2893 C.ar    1  UNL1        0.1337
     10 C           3.8593    0.2940   -0.2580 C.ar    1  UNL1        0.0585
     11 C           4.1108   -0.5612   -1.2973 C.ar    1  UNL1       -0.0318
     12 C           5.4892   -0.4871   -1.4788 C.ar    1  UNL1        0.0042
     13 N           5.9896    0.3844   -0.5663 N.ar    1  UNL1       -0.3457
     14 C           4.9954    0.8948    0.2178 C.ar    1  UNL1        0.1432
     15 N           4.9121    1.7547    1.2318 N.ar    1  UNL1       -0.2178
     16 C           3.7013    2.0306    1.7877 C.ar    1  UNL1        0.1204
     17 N           2.5681    1.4436    1.3273 N.ar    1  UNL1       -0.2200
     18 C          -2.8518   -0.5074   -0.0259 C.ar    1  UNL1       -0.0398
     19 C          -4.1352   -0.0074   -0.1097 C.ar    1  UNL1       -0.0566
     20 C          -5.1909   -0.8841    0.0134 C.ar    1  UNL1       -0.0431
     21 C          -5.0570   -2.2409    0.2162 C.ar    1  UNL1        0.0410
     22 CL         -6.4778   -3.2565    0.3573 Cl      1  UNL1       -0.0835
     23 C          -3.7697   -2.7340    0.2988 C.ar    1  UNL1       -0.0431
     24 C          -2.6650   -1.8807    0.1797 C.ar    1  UNL1       -0.0566
     25 H          -1.8203    2.5313    1.6034 H       1  UNL1        0.1182
     26 H          -2.9561    3.0853    0.4838 H       1  UNL1        0.1182
     27 H          -0.6732    2.0993   -0.2240 H       1  UNL1        0.0430
     28 H          -2.1396    1.9033   -1.2459 H       1  UNL1        0.0430
     29 H          -0.6903   -1.4802   -1.3291 H       1  UNL1        0.0289
     30 H          -1.2512   -0.0503   -2.2086 H       1  UNL1        0.0289
     31 H           1.2133   -0.3307   -2.1327 H       1  UNL1        0.0464
     32 H           0.5990    1.2802   -1.5895 H       1  UNL1        0.0464
     33 H           0.5507   -1.7663    0.6646 H       1  UNL1        0.0464
     34 H           1.1134   -0.6872    1.9409 H       1  UNL1        0.0464
     35 H          -0.6222    0.8452    1.7462 H       1  UNL1        0.0289
     36 H          -1.3136   -0.8615    1.7586 H       1  UNL1        0.0289
     37 H           3.4334   -1.1656   -1.8653 H       1  UNL1        0.0640
     38 H           6.0691   -1.0275   -2.2179 H       1  UNL1        0.0807
     39 H           7.0121    0.6453   -0.4625 H       1  UNL1        0.1668
     40 H           3.6037    2.7360    2.6254 H       1  UNL1        0.1048
     41 H          -4.1301    1.0393   -0.2683 H       1  UNL1        0.0621
     42 H          -6.1699   -0.4036   -0.0655 H       1  UNL1        0.0632
     43 H          -3.7042   -3.8020    0.4581 H       1  UNL1        0.0632
     44 H          -1.7431   -2.4388    0.2689 H       1  UNL1        0.0621
@<TRIPOS>BOND
     1     1     2    1
     2     2     3    1
     3     3     4    1
     4     4     5    1
     5     5     6    1
     6     6     7    1
     7     7     8    1
     8     6     9    1
     9     9    10   ar
    10    10    11   ar
    11    11    12   ar
    12    12    13   ar
    13    13    14   ar
    14    14    15   ar
    15    15    16   ar
    16    16    17   ar
    17     3    18    1
    18    18    19   ar
    19    19    20   ar
    20    20    21   ar
    21    21    22    1
    22    21    23   ar
    23    23    24   ar
    24     8     3    1
    25    17     9   ar
    26    24    18   ar
    27    14    10   ar
    28     1    25    1
    29     1    26    1
    30     2    27    1
    31     2    28    1
    32     4    29    1
    33     4    30    1
    34     5    31    1
    35     5    32    1
    36     7    33    1
    37     7    34    1
    38     8    35    1
    39     8    36    1
    40    11    37    1
    41    12    38    1
    42    13    39    1
    43    16    40    1
    44    19    41    1
    45    20    42    1
    46    23    43    1
    47    24    44    1
