@<TRIPOS>MOLECULE
*****
 40 43 0 0 0
SMALL
GASTEIGER

@<TRIPOS>ATOM
      1 C           2.5897   -0.3588   -1.1623 C.3     1  UNL1       -0.0085
      2 C           2.1376    0.9126   -1.7743 C.3     1  UNL1       -0.0383
      3 C           1.6182    0.4340   -0.3987 C.3     1  UNL1       -0.0084
      4 C           0.1551    0.1489   -0.4205 C.ar    1  UNL1       -0.0431
      5 C          -0.5783    0.6030    0.6703 C.ar    1  UNL1       -0.0506
      6 C          -1.9359    0.3610    0.6916 C.ar    1  UNL1       -0.0176
      7 C          -2.6477    0.8271    1.7972 C.ar    1  UNL1       -0.0532
      8 C          -4.0081    0.5934    1.8347 C.ar    1  UNL1       -0.0463
      9 C          -4.6183   -0.0847    0.7933 C.ar    1  UNL1        0.0653
     10 C          -3.8774   -0.5266   -0.2777 C.ar    1  UNL1       -0.0392
     11 C          -2.5128   -0.3174   -0.3617 C.ar    1  UNL1       -0.0171
     12 C          -1.7711   -0.7614   -1.4369 C.ar    1  UNL1       -0.0537
     13 C          -0.4047   -0.5274   -1.4759 C.ar    1  UNL1       -0.0577
     14 C          -6.0546   -0.2732    0.9405 C.2     1  UNL1        0.3081
     15 N          -6.8620    0.6578    1.6508 N.pl3   1  UNL1       -0.2466
     16 N          -6.6463   -1.3059    0.4233 N.2     1  UNL1       -0.0994
     17 C           3.9951   -0.3486   -0.6694 C.ar    1  UNL1       -0.0437
     18 C           4.4287    0.7989   -0.0216 C.ar    1  UNL1       -0.0583
     19 C           5.7292    0.8067    0.4338 C.ar    1  UNL1       -0.0615
     20 C           6.6174   -0.2227    0.2967 C.ar    1  UNL1       -0.0617
     21 C           6.1512   -1.3580   -0.3572 C.ar    1  UNL1       -0.0615
     22 C           4.8576   -1.4121   -0.8302 C.ar    1  UNL1       -0.0583
     23 H           2.3163   -1.3073   -1.6686 H       1  UNL1        0.0355
     24 H           2.7419    1.8374   -1.7083 H       1  UNL1        0.0277
     25 H           1.4652    0.8626   -2.6387 H       1  UNL1        0.0277
     26 H           1.9755    0.9873    0.4991 H       1  UNL1        0.0355
     27 H          -0.1217    1.1381    1.5006 H       1  UNL1        0.0626
     28 H          -2.1454    1.3555    2.5994 H       1  UNL1        0.0624
     29 H          -4.5132    0.9774    2.7175 H       1  UNL1        0.0626
     30 H          -4.3966   -1.0574   -1.0784 H       1  UNL1        0.0632
     31 H          -2.2421   -1.2935   -2.2566 H       1  UNL1        0.0624
     32 H           0.2293   -0.8593   -2.3069 H       1  UNL1        0.0621
     33 H          -7.0682    1.6743    1.7383 H       1  UNL1        0.2884
     34 H          -7.5428    0.3112    2.3861 H       1  UNL1        0.2884
     35 H          -6.0163   -1.9763   -0.0970 H       1  UNL1        0.3633
     36 H           3.8649    1.6797    0.1639 H       1  UNL1        0.0620
     37 H           6.1321    1.6830    0.9534 H       1  UNL1        0.0618
     38 H           7.6367   -0.1939    0.6635 H       1  UNL1        0.0618
     39 H           6.8382   -2.1849   -0.4765 H       1  UNL1        0.0618
     40 H           4.4840   -2.2808   -1.3364 H       1  UNL1        0.0620
@<TRIPOS>BOND
     1     1     2    1
     2     2     3    1
     3     3     4    1
     4     4     5   ar
     5     5     6   ar
     6     6     7   ar
     7     7     8   ar
     8     8     9   ar
     9     9    10   ar
    10    10    11   ar
    11    11    12   ar
    12    12    13   ar
    13     9    14    1
    14    14    15    1
    15    14    16    2
    16     1    17    1
    17    17    18   ar
    18    18    19   ar
    19    19    20   ar
    20    20    21   ar
    21    21    22   ar
    22     3     1    1
    23    13     4   ar
    24    22    17   ar
    25    11     6   ar
    26     1    23    1
    27     2    24    1
    28     2    25    1
    29     3    26    1
    30     5    27    1
    31     7    28    1
    32     8    29    1
    33    10    30    1
    34    12    31    1
    35    13    32    1
    36    15    33    1
    37    15    34    1
    38    16    35    1
    39    18    36    1
    40    19    37    1
    41    20    38    1
    42    21    39    1
    43    22    40    1
