
     RDKit          3D

 40 43  0  0  0  0  0  0  0  0999 V2000
    2.5897   -0.3588   -1.1623 C   0  0  2  0  0  0  0  0  0  0  0  0
    2.1376    0.9126   -1.7743 C   0  0  0  0  0  0  0  0  0  0  0  0
    1.6182    0.4340   -0.3987 C   0  0  1  0  0  0  0  0  0  0  0  0
    0.1551    0.1489   -0.4205 C   0  0  0  0  0  0  0  0  0  0  0  0
   -0.5783    0.6030    0.6703 C   0  0  0  0  0  0  0  0  0  0  0  0
   -1.9359    0.3610    0.6916 C   0  0  0  0  0  0  0  0  0  0  0  0
   -2.6477    0.8271    1.7972 C   0  0  0  0  0  0  0  0  0  0  0  0
   -4.0081    0.5934    1.8347 C   0  0  0  0  0  0  0  0  0  0  0  0
   -4.6183   -0.0847    0.7933 C   0  0  0  0  0  0  0  0  0  0  0  0
   -3.8774   -0.5266   -0.2777 C   0  0  0  0  0  0  0  0  0  0  0  0
   -2.5128   -0.3174   -0.3617 C   0  0  0  0  0  0  0  0  0  0  0  0
   -1.7711   -0.7614   -1.4369 C   0  0  0  0  0  0  0  0  0  0  0  0
   -0.4047   -0.5274   -1.4759 C   0  0  0  0  0  0  0  0  0  0  0  0
   -6.0546   -0.2732    0.9405 C   0  0  0  0  0  0  0  0  0  0  0  0
   -6.8620    0.6578    1.6508 N   0  0  0  0  0  0  0  0  0  0  0  0
   -6.6463   -1.3059    0.4233 N   0  0  0  0  0  0  0  0  0  0  0  0
    3.9951   -0.3486   -0.6694 C   0  0  0  0  0  0  0  0  0  0  0  0
    4.4287    0.7989   -0.0216 C   0  0  0  0  0  0  0  0  0  0  0  0
    5.7292    0.8067    0.4338 C   0  0  0  0  0  0  0  0  0  0  0  0
    6.6174   -0.2227    0.2967 C   0  0  0  0  0  0  0  0  0  0  0  0
    6.1512   -1.3580   -0.3572 C   0  0  0  0  0  0  0  0  0  0  0  0
    4.8576   -1.4121   -0.8302 C   0  0  0  0  0  0  0  0  0  0  0  0
    2.3163   -1.3073   -1.6686 H   0  0  0  0  0  0  0  0  0  0  0  0
    2.7419    1.8374   -1.7083 H   0  0  0  0  0  0  0  0  0  0  0  0
    1.4652    0.8626   -2.6387 H   0  0  0  0  0  0  0  0  0  0  0  0
    1.9755    0.9873    0.4991 H   0  0  0  0  0  0  0  0  0  0  0  0
   -0.1217    1.1381    1.5006 H   0  0  0  0  0  0  0  0  0  0  0  0
   -2.1454    1.3555    2.5994 H   0  0  0  0  0  0  0  0  0  0  0  0
   -4.5132    0.9774    2.7175 H   0  0  0  0  0  0  0  0  0  0  0  0
   -4.3966   -1.0574   -1.0784 H   0  0  0  0  0  0  0  0  0  0  0  0
   -2.2421   -1.2935   -2.2566 H   0  0  0  0  0  0  0  0  0  0  0  0
    0.2293   -0.8593   -2.3069 H   0  0  0  0  0  0  0  0  0  0  0  0
   -7.0682    1.6743    1.7383 H   0  0  0  0  0  0  0  0  0  0  0  0
   -7.5428    0.3112    2.3861 H   0  0  0  0  0  0  0  0  0  0  0  0
   -6.0163   -1.9763   -0.0970 H   0  0  0  0  0  0  0  0  0  0  0  0
    3.8649    1.6797    0.1639 H   0  0  0  0  0  0  0  0  0  0  0  0
    6.1321    1.6830    0.9534 H   0  0  0  0  0  0  0  0  0  0  0  0
    7.6367   -0.1939    0.6635 H   0  0  0  0  0  0  0  0  0  0  0  0
    6.8382   -2.1849   -0.4765 H   0  0  0  0  0  0  0  0  0  0  0  0
    4.4840   -2.2808   -1.3364 H   0  0  0  0  0  0  0  0  0  0  0  0
  1  2  1  0
  2  3  1  0
  3  4  1  0
  4  5  2  0
  5  6  1  0
  6  7  2  0
  7  8  1  0
  8  9  2  0
  9 10  1  0
 10 11  2  0
 11 12  1  0
 12 13  2  0
  9 14  1  0
 14 15  1  0
 14 16  2  3
  1 17  1  0
 17 18  2  0
 18 19  1  0
 19 20  2  0
 20 21  1  0
 21 22  2  0
  3  1  1  0
 13  4  1  0
 22 17  1  0
 11  6  1  0
  1 23  1  6
  2 24  1  0
  2 25  1  0
  3 26  1  1
  5 27  1  0
  7 28  1  0
  8 29  1  0
 10 30  1  0
 12 31  1  0
 13 32  1  0
 15 33  1  0
 15 34  1  0
 16 35  1  0
 18 36  1  0
 19 37  1  0
 20 38  1  0
 21 39  1  0
 22 40  1  0
M  END
$$$$
