
     RDKit          3D

 35 37  0  0  0  0  0  0  0  0999 V2000
   -3.7007   -1.1081    1.1390 C   0  0  0  0  0  0  0  0  0  0  0  0
   -2.4541   -1.2757    0.4263 N   0  0  0  0  0  0  0  0  0  0  0  0
   -1.7820   -0.0364    0.1288 C   0  0  0  0  0  0  0  0  0  0  0  0
   -0.4438    0.1115   -0.2535 C   0  0  0  0  0  0  0  0  0  0  0  0
    0.1209    1.3381   -0.5202 C   0  0  0  0  0  0  0  0  0  0  0  0
   -0.7059    2.4395   -0.3921 C   0  0  0  0  0  0  0  0  0  0  0  0
   -2.0273    2.3099   -0.0161 C   0  0  0  0  0  0  0  0  0  0  0  0
   -2.5890    1.0862    0.2495 C   0  0  0  0  0  0  0  0  0  0  0  0
   -0.1580    3.7125   -0.6584 N   0  0  0  0  0  4  0  0  0  0  0  0
    1.1451    3.9484   -1.0389 O   0  0  0  0  0  1  0  0  0  0  0  0
   -0.8534    4.7434   -0.5601 O   0  0  0  0  0  0  0  0  0  0  0  0
    0.5494   -0.9695   -0.4293 C   0  0  0  0  0  0  0  0  0  0  0  0
    0.2709   -2.1981   -0.6796 N   0  0  0  0  0  0  0  0  0  0  0  0
   -0.9491   -2.9477   -0.8699 C   0  0  0  0  0  0  0  0  0  0  0  0
   -2.0072   -2.5834    0.0894 C   0  0  0  0  0  0  0  0  0  0  0  0
   -2.6224   -3.5043    0.7141 O   0  0  0  0  0  0  0  0  0  0  0  0
    1.9566   -0.5670   -0.3001 C   0  0  0  0  0  0  0  0  0  0  0  0
    2.9800   -0.6369   -1.2067 C   0  0  0  0  0  0  0  0  0  0  0  0
    4.2242   -0.1879   -0.8353 C   0  0  0  0  0  0  0  0  0  0  0  0
    4.4953    0.3296    0.4040 C   0  0  0  0  0  0  0  0  0  0  0  0
    3.4596    0.4016    1.3249 C   0  0  0  0  0  0  0  0  0  0  0  0
    2.2016   -0.0433    0.9744 C   0  0  0  0  0  0  0  0  0  0  0  0
    1.2760    0.0866    1.9787 F   0  0  0  0  0  0  0  0  0  0  0  0
   -4.5128   -0.8902    0.4485 H   0  0  0  0  0  0  0  0  0  0  0  0
   -3.6208   -0.4620    2.0276 H   0  0  0  0  0  0  0  0  0  0  0  0
   -3.9340   -2.1303    1.5598 H   0  0  0  0  0  0  0  0  0  0  0  0
    1.1627    1.3819   -0.8113 H   0  0  0  0  0  0  0  0  0  0  0  0
   -2.6677    3.1819    0.0814 H   0  0  0  0  0  0  0  0  0  0  0  0
   -3.6185    0.9402    0.5465 H   0  0  0  0  0  0  0  0  0  0  0  0
   -1.3372   -2.6312   -1.8807 H   0  0  0  0  0  0  0  0  0  0  0  0
   -0.7142   -4.0094   -0.8706 H   0  0  0  0  0  0  0  0  0  0  0  0
    2.6721   -1.0534   -2.1415 H   0  0  0  0  0  0  0  0  0  0  0  0
    4.9973   -0.2621   -1.5794 H   0  0  0  0  0  0  0  0  0  0  0  0
    5.4819    0.6730    0.6635 H   0  0  0  0  0  0  0  0  0  0  0  0
    3.7046    0.8122    2.2874 H   0  0  0  0  0  0  0  0  0  0  0  0
  1  2  1  0
  2  3  1  0
  3  4  2  0
  4  5  1  0
  5  6  2  0
  6  7  1  0
  7  8  2  0
  6  9  1  0
  9 10  1  0
  9 11  2  0
  4 12  1  0
 12 13  2  0
 13 14  1  0
 14 15  1  0
 15 16  2  0
 12 17  1  0
 17 18  2  0
 18 19  1  0
 19 20  2  0
 20 21  1  0
 21 22  2  0
 22 23  1  0
 15  2  1  0
 22 17  1  0
  8  3  1  0
  1 24  1  0
  1 25  1  0
  1 26  1  0
  5 27  1  0
  7 28  1  0
  8 29  1  0
 14 30  1  0
 14 31  1  0
 18 32  1  0
 19 33  1  0
 20 34  1  0
 21 35  1  0
M  CHG  2   9   1  10  -1
M  END
$$$$
