@<TRIPOS>MOLECULE
*****
 64 69 0 0 0
SMALL
GASTEIGER

@<TRIPOS>ATOM
      1 O           5.7899    0.3736    0.1930 O.2     1  UNL1       -0.2522
      2 C           5.8269   -0.8547    0.3470 C.2     1  UNL1        0.3081
      3 N           7.1404   -1.4181    0.4791 N.am    1  UNL1       -0.2691
      4 C           8.3213   -0.6330    0.4380 C.ar    1  UNL1        0.0376
      5 C           8.8004   -0.1249    1.6404 C.ar    1  UNL1       -0.0223
      6 C           9.9325    0.6475    1.7280 C.ar    1  UNL1        0.0293
      7 N          10.5926    0.9116    0.5819 N.ar    1  UNL1       -0.2631
      8 C          10.1509    0.4321   -0.5977 C.ar    1  UNL1        0.0293
      9 C           9.0080   -0.3501   -0.7018 C.ar    1  UNL1       -0.0223
     10 N           4.6630   -1.6184    0.3865 N.am    1  UNL1       -0.2692
     11 C           3.3399   -1.1326    0.2637 C.ar    1  UNL1        0.0348
     12 C           2.9849    0.1680    0.0837 C.ar    1  UNL1       -0.0398
     13 C           1.6548    0.5711   -0.0284 C.ar    1  UNL1       -0.0493
     14 C           0.6295   -0.3416    0.0392 C.ar    1  UNL1        0.0194
     15 C          -0.7682    0.0103   -0.0696 C.ar    1  UNL1        0.1668
     16 N          -1.1408    1.2902   -0.2476 N.ar    1  UNL1       -0.1945
     17 C          -2.4475    1.6457   -0.3526 C.ar    1  UNL1        0.2228
     18 N          -2.8618    2.9765   -0.5390 N.pl3   1  UNL1       -0.2951
     19 C          -1.8842    4.0244   -0.6232 C.3     1  UNL1        0.0384
     20 C          -2.2666    5.0896    0.3828 C.3     1  UNL1        0.0635
     21 O          -3.6172    5.3311    0.4284 O.3     1  UNL1       -0.3767
     22 C          -4.3404    4.8247   -0.6397 C.3     1  UNL1        0.0635
     23 C          -4.2568    3.2923   -0.6458 C.3     1  UNL1        0.0384
     24 N          -3.3536    0.6517   -0.2694 N.ar    1  UNL1       -0.1808
     25 C          -3.0239   -0.6315   -0.0929 C.ar    1  UNL1        0.2233
     26 N          -4.0518   -1.6164   -0.0163 N.pl3   1  UNL1       -0.2890
     27 C          -3.9147   -3.0487    0.1657 C.3     1  UNL1        0.0500
     28 C          -4.9947   -3.2994    1.2255 C.3     1  UNL1       -0.0304
     29 C          -5.9777   -2.1739    1.1007 C.3     1  UNL1       -0.0304
     30 C          -5.4786   -1.3805   -0.1069 C.3     1  UNL1        0.0500
     31 C          -5.9986   -2.1097   -1.3316 C.3     1  UNL1        0.0663
     32 O          -5.0231   -2.8507   -1.9645 O.3     1  UNL1       -0.3761
     33 C          -4.3200   -3.6956   -1.1413 C.3     1  UNL1        0.0663
     34 N          -1.7262   -0.9295    0.0044 N.ar    1  UNL1       -0.1945
     35 C           0.9789   -1.6592    0.2211 C.ar    1  UNL1       -0.0493
     36 C           2.2891   -2.0616    0.3322 C.ar    1  UNL1       -0.0398
     37 H           7.1886   -2.4515    0.6095 H       1  UNL1        0.1564
     38 H           8.2605   -0.3452    2.5505 H       1  UNL1        0.0651
     39 H          10.2716    1.0247    2.6917 H       1  UNL1        0.0830
     40 H          10.7078    0.6673   -1.4849 H       1  UNL1        0.0830
     41 H           8.6522   -0.7330   -1.6311 H       1  UNL1        0.0651
     42 H           4.8012   -2.6690    0.5230 H       1  UNL1        0.1564
     43 H           3.7055    0.9575    0.0174 H       1  UNL1        0.0636
     44 H           1.4048    1.6178   -0.1717 H       1  UNL1        0.0625
     45 H          -1.8398    4.4367   -1.6520 H       1  UNL1        0.0487
     46 H          -0.8576    3.6759   -0.3905 H       1  UNL1        0.0487
     47 H          -1.9601    4.6744    1.3865 H       1  UNL1        0.0575
     48 H          -1.6676    6.0164    0.2675 H       1  UNL1        0.0575
     49 H          -3.9859    5.2215   -1.6198 H       1  UNL1        0.0575
     50 H          -5.3863    5.1424   -0.5190 H       1  UNL1        0.0575
     51 H          -4.6892    2.9645   -1.6130 H       1  UNL1        0.0487
     52 H          -4.8368    2.9405    0.2191 H       1  UNL1        0.0487
     53 H          -2.9352   -3.3586    0.5284 H       1  UNL1        0.0523
     54 H          -4.5026   -3.2686    2.2171 H       1  UNL1        0.0284
     55 H          -5.4947   -4.2669    1.0788 H       1  UNL1        0.0284
     56 H          -7.0043   -2.5309    0.8782 H       1  UNL1        0.0284
     57 H          -6.0199   -1.5333    2.0041 H       1  UNL1        0.0284
     58 H          -5.7623   -0.3314   -0.0695 H       1  UNL1        0.0523
     59 H          -6.9118   -2.6971   -1.0911 H       1  UNL1        0.0578
     60 H          -6.3329   -1.3138   -2.0444 H       1  UNL1        0.0578
     61 H          -4.8562   -4.6256   -0.8847 H       1  UNL1        0.0578
     62 H          -3.3835   -3.9935   -1.6587 H       1  UNL1        0.0578
     63 H           0.2241   -2.4328    0.2837 H       1  UNL1        0.0625
     64 H           2.5540   -3.0987    0.4748 H       1  UNL1        0.0636
@<TRIPOS>BOND
     1     1     2    2
     2     2     3   am
     3     3     4    1
     4     4     5   ar
     5     5     6   ar
     6     6     7   ar
     7     7     8   ar
     8     8     9   ar
     9     2    10   am
    10    10    11    1
    11    11    12   ar
    12    12    13   ar
    13    13    14   ar
    14    14    15    1
    15    15    16   ar
    16    16    17   ar
    17    17    18    1
    18    18    19    1
    19    19    20    1
    20    20    21    1
    21    21    22    1
    22    22    23    1
    23    17    24   ar
    24    24    25   ar
    25    25    26    1
    26    26    27    1
    27    27    28    1
    28    28    29    1
    29    29    30    1
    30    30    31    1
    31    31    32    1
    32    32    33    1
    33    25    34   ar
    34    14    35   ar
    35    35    36   ar
    36     9     4   ar
    37    36    11   ar
    38    34    15   ar
    39    23    18    1
    40    30    26    1
    41    33    27    1
    42     3    37    1
    43     5    38    1
    44     6    39    1
    45     8    40    1
    46     9    41    1
    47    10    42    1
    48    12    43    1
    49    13    44    1
    50    19    45    1
    51    19    46    1
    52    20    47    1
    53    20    48    1
    54    22    49    1
    55    22    50    1
    56    23    51    1
    57    23    52    1
    58    27    53    1
    59    28    54    1
    60    28    55    1
    61    29    56    1
    62    29    57    1
    63    30    58    1
    64    31    59    1
    65    31    60    1
    66    33    61    1
    67    33    62    1
    68    35    63    1
    69    36    64    1
