@<TRIPOS>MOLECULE
*****
 47 47 0 0 0
SMALL
GASTEIGER

@<TRIPOS>ATOM
      1 C           1.4413   -2.9986    0.2102 C.3     1  UNL1       -0.0588
      2 C           0.2562   -2.4038   -0.4574 C.3     1  UNL1       -0.0007
      3 C          -0.9556   -3.2446   -0.0948 C.3     1  UNL1       -0.0588
      4 C          -0.0288   -0.9691   -0.0850 C.3     1  UNL1        0.1821
      5 O          -1.2073   -0.5886   -0.8187 O.3     1  UNL1       -0.4372
      6 C          -2.3459   -0.1766   -0.0809 C.2     1  UNL1        0.4053
      7 O          -2.2922   -0.1540    1.1684 O.2     1  UNL1       -0.2261
      8 N          -3.5277    0.2042   -0.7495 N.am    1  UNL1       -0.2511
      9 C          -4.7420    0.6377   -0.1629 C.ar    1  UNL1        0.0364
     10 C          -5.8322    0.9603   -0.9812 C.ar    1  UNL1       -0.0404
     11 C          -7.0167    1.3807   -0.4818 C.ar    1  UNL1       -0.0600
     12 C          -7.2024    1.5114    0.8905 C.ar    1  UNL1       -0.0616
     13 C          -6.1635    1.2056    1.7050 C.ar    1  UNL1       -0.0600
     14 C          -4.9603    0.7786    1.1842 C.ar    1  UNL1       -0.0404
     15 C           1.0437   -0.0392   -0.4820 C.2     1  UNL1        0.2548
     16 O           0.8508    0.8157   -1.3968 O.2     1  UNL1       -0.2717
     17 N           2.3029   -0.0446    0.1136 N.am    1  UNL1       -0.3020
     18 C           3.3605    0.9135   -0.3224 C.3     1  UNL1        0.0941
     19 C           4.4519    0.0364   -0.8526 C.3     1  UNL1        0.0701
     20 C           5.6219    0.7033   -1.3931 C.2     1  UNL1        0.3069
     21 O           5.5038    1.5789   -2.2859 O.2     1  UNL1       -0.2509
     22 O           6.8901    0.3952   -0.9428 O.3     1  UNL1       -0.4806
     23 C           3.7372    1.7406    0.8472 C.2     1  UNL1        0.1843
     24 O           3.1864    1.5571    1.9340 O.2     1  UNL1       -0.2927
     25 C           4.7543    2.8012    0.8001 C.3     1  UNL1        0.1498
     26 F           4.2186    4.0127    0.3569 F       1  UNL1       -0.2409
     27 H           2.3575   -2.6776   -0.3202 H       1  UNL1        0.0234
     28 H           1.4523   -4.1196    0.1553 H       1  UNL1        0.0234
     29 H           1.5186   -2.7237    1.2803 H       1  UNL1        0.0234
     30 H           0.3335   -2.4530   -1.5751 H       1  UNL1        0.0336
     31 H          -1.8350   -2.7300   -0.5094 H       1  UNL1        0.0234
     32 H          -1.0402   -3.3795    1.0097 H       1  UNL1        0.0234
     33 H          -0.9066   -4.2449   -0.6015 H       1  UNL1        0.0234
     34 H          -0.2415   -0.8706    0.9793 H       1  UNL1        0.0836
     35 H          -3.4941    0.1553   -1.8157 H       1  UNL1        0.1582
     36 H          -5.6578    0.8475   -2.0542 H       1  UNL1        0.0636
     37 H          -7.8155    1.6123   -1.1634 H       1  UNL1        0.0618
     38 H          -8.1624    1.8484    1.2306 H       1  UNL1        0.0618
     39 H          -6.2864    1.3007    2.7952 H       1  UNL1        0.0618
     40 H          -4.1944    0.5618    1.8856 H       1  UNL1        0.0636
     41 H           2.6021   -0.6680    0.8744 H       1  UNL1        0.1495
     42 H           2.9233    1.5145   -1.1171 H       1  UNL1        0.0583
     43 H           4.7498   -0.6576   -0.0093 H       1  UNL1        0.0400
     44 H           3.9566   -0.6204   -1.6312 H       1  UNL1        0.0400
     45 H           7.6269    1.0914   -0.8865 H       1  UNL1        0.2951
     46 H           5.6156    2.5729    0.1824 H       1  UNL1        0.0696
     47 H           5.1526    3.0262    1.8440 H       1  UNL1        0.0696
@<TRIPOS>BOND
     1     1     2    1
     2     2     3    1
     3     2     4    1
     4     4     5    1
     5     5     6    1
     6     6     7    2
     7     6     8   am
     8     8     9    1
     9     9    10   ar
    10    10    11   ar
    11    11    12   ar
    12    12    13   ar
    13    13    14   ar
    14     4    15    1
    15    15    16    2
    16    15    17   am
    17    17    18    1
    18    18    19    1
    19    19    20    1
    20    20    21    2
    21    20    22    1
    22    18    23    1
    23    23    24    2
    24    23    25    1
    25    25    26    1
    26    14     9   ar
    27     1    27    1
    28     1    28    1
    29     1    29    1
    30     2    30    1
    31     3    31    1
    32     3    32    1
    33     3    33    1
    34     4    34    1
    35     8    35    1
    36    10    36    1
    37    11    37    1
    38    12    38    1
    39    13    39    1
    40    14    40    1
    41    17    41    1
    42    18    42    1
    43    19    43    1
    44    19    44    1
    45    22    45    1
    46    25    46    1
    47    25    47    1
