
     RDKit          3D

 47 47  0  0  0  0  0  0  0  0999 V2000
    1.4413   -2.9986    0.2102 C   0  0  0  0  0  0  0  0  0  0  0  0
    0.2562   -2.4038   -0.4574 C   0  0  0  0  0  0  0  0  0  0  0  0
   -0.9556   -3.2446   -0.0948 C   0  0  0  0  0  0  0  0  0  0  0  0
   -0.0288   -0.9691   -0.0850 C   0  0  2  0  0  0  0  0  0  0  0  0
   -1.2073   -0.5886   -0.8187 O   0  0  0  0  0  0  0  0  0  0  0  0
   -2.3459   -0.1766   -0.0809 C   0  0  0  0  0  0  0  0  0  0  0  0
   -2.2922   -0.1540    1.1684 O   0  0  0  0  0  0  0  0  0  0  0  0
   -3.5277    0.2042   -0.7495 N   0  0  0  0  0  0  0  0  0  0  0  0
   -4.7420    0.6377   -0.1629 C   0  0  0  0  0  0  0  0  0  0  0  0
   -5.8322    0.9603   -0.9812 C   0  0  0  0  0  0  0  0  0  0  0  0
   -7.0167    1.3807   -0.4818 C   0  0  0  0  0  0  0  0  0  0  0  0
   -7.2024    1.5114    0.8905 C   0  0  0  0  0  0  0  0  0  0  0  0
   -6.1635    1.2056    1.7050 C   0  0  0  0  0  0  0  0  0  0  0  0
   -4.9603    0.7786    1.1842 C   0  0  0  0  0  0  0  0  0  0  0  0
    1.0437   -0.0392   -0.4820 C   0  0  0  0  0  0  0  0  0  0  0  0
    0.8508    0.8157   -1.3968 O   0  0  0  0  0  0  0  0  0  0  0  0
    2.3029   -0.0446    0.1136 N   0  0  0  0  0  0  0  0  0  0  0  0
    3.3605    0.9135   -0.3224 C   0  0  0  0  0  0  0  0  0  0  0  0
    4.4519    0.0364   -0.8526 C   0  0  0  0  0  0  0  0  0  0  0  0
    5.6219    0.7033   -1.3931 C   0  0  0  0  0  0  0  0  0  0  0  0
    5.5038    1.5789   -2.2859 O   0  0  0  0  0  0  0  0  0  0  0  0
    6.8901    0.3952   -0.9428 O   0  0  0  0  0  0  0  0  0  0  0  0
    3.7372    1.7406    0.8472 C   0  0  0  0  0  0  0  0  0  0  0  0
    3.1864    1.5571    1.9340 O   0  0  0  0  0  0  0  0  0  0  0  0
    4.7543    2.8012    0.8001 C   0  0  0  0  0  0  0  0  0  0  0  0
    4.2186    4.0127    0.3569 F   0  0  0  0  0  0  0  0  0  0  0  0
    2.3575   -2.6776   -0.3202 H   0  0  0  0  0  0  0  0  0  0  0  0
    1.4523   -4.1196    0.1553 H   0  0  0  0  0  0  0  0  0  0  0  0
    1.5186   -2.7237    1.2803 H   0  0  0  0  0  0  0  0  0  0  0  0
    0.3335   -2.4530   -1.5751 H   0  0  0  0  0  0  0  0  0  0  0  0
   -1.8350   -2.7300   -0.5094 H   0  0  0  0  0  0  0  0  0  0  0  0
   -1.0402   -3.3795    1.0097 H   0  0  0  0  0  0  0  0  0  0  0  0
   -0.9066   -4.2449   -0.6015 H   0  0  0  0  0  0  0  0  0  0  0  0
   -0.2415   -0.8706    0.9793 H   0  0  0  0  0  0  0  0  0  0  0  0
   -3.4941    0.1553   -1.8157 H   0  0  0  0  0  0  0  0  0  0  0  0
   -5.6578    0.8475   -2.0542 H   0  0  0  0  0  0  0  0  0  0  0  0
   -7.8155    1.6123   -1.1634 H   0  0  0  0  0  0  0  0  0  0  0  0
   -8.1624    1.8484    1.2306 H   0  0  0  0  0  0  0  0  0  0  0  0
   -6.2864    1.3007    2.7952 H   0  0  0  0  0  0  0  0  0  0  0  0
   -4.1944    0.5618    1.8856 H   0  0  0  0  0  0  0  0  0  0  0  0
    2.6021   -0.6680    0.8744 H   0  0  0  0  0  0  0  0  0  0  0  0
    2.9233    1.5145   -1.1171 H   0  0  0  0  0  0  0  0  0  0  0  0
    4.7498   -0.6576   -0.0093 H   0  0  0  0  0  0  0  0  0  0  0  0
    3.9566   -0.6204   -1.6312 H   0  0  0  0  0  0  0  0  0  0  0  0
    7.6269    1.0914   -0.8865 H   0  0  0  0  0  0  0  0  0  0  0  0
    5.6156    2.5729    0.1824 H   0  0  0  0  0  0  0  0  0  0  0  0
    5.1526    3.0262    1.8440 H   0  0  0  0  0  0  0  0  0  0  0  0
  1  2  1  0
  2  3  1  0
  2  4  1  0
  4  5  1  0
  5  6  1  0
  6  7  2  0
  6  8  1  0
  8  9  1  0
  9 10  2  0
 10 11  1  0
 11 12  2  0
 12 13  1  0
 13 14  2  0
  4 15  1  0
 15 16  2  0
 15 17  1  0
 17 18  1  0
 18 19  1  0
 19 20  1  0
 20 21  2  0
 20 22  1  0
 18 23  1  0
 23 24  2  0
 23 25  1  0
 25 26  1  0
 14  9  1  0
  1 27  1  0
  1 28  1  0
  1 29  1  0
  2 30  1  0
  3 31  1  0
  3 32  1  0
  3 33  1  0
  4 34  1  1
  8 35  1  0
 10 36  1  0
 11 37  1  0
 12 38  1  0
 13 39  1  0
 14 40  1  0
 17 41  1  0
 18 42  1  0
 19 43  1  0
 19 44  1  0
 22 45  1  0
 25 46  1  0
 25 47  1  0
M  END
$$$$
