
     RDKit          3D

 70 75  0  0  0  0  0  0  0  0999 V2000
   -6.5363   -0.6166   -3.7393 C   0  0  0  0  0  0  0  0  0  0  0  0
   -6.3358   -0.4220   -2.2772 C   0  0  0  0  0  0  0  0  0  0  0  0
   -5.1883    0.1422   -1.8014 C   0  0  0  0  0  0  0  0  0  0  0  0
   -4.9635    0.3260   -0.4885 N   0  0  0  0  0  0  0  0  0  0  0  0
   -3.7331    0.9346   -0.1164 C   0  0  0  0  0  0  0  0  0  0  0  0
   -2.6596   -0.0695    0.1382 C   0  0  0  0  0  0  0  0  0  0  0  0
   -2.7732   -1.3781   -0.2076 C   0  0  0  0  0  0  0  0  0  0  0  0
   -1.7304   -2.2482    0.0227 C   0  0  0  0  0  0  0  0  0  0  0  0
   -0.5391   -1.8137    0.6117 C   0  0  0  0  0  0  0  0  0  0  0  0
   -0.4318   -0.4747    0.9624 C   0  0  0  0  0  0  0  0  0  0  0  0
    0.8279   -0.0342    1.5524 C   0  0  0  0  0  0  0  0  0  0  0  0
    0.8660    0.9817    2.4677 C   0  0  0  0  0  0  0  0  0  0  0  0
    2.0822    1.3551    2.9916 C   0  0  0  0  0  0  0  0  0  0  0  0
    3.2394    0.7124    2.5975 C   0  0  0  0  0  0  0  0  0  0  0  0
    3.2306   -0.3154    1.6770 C   0  0  0  0  0  0  0  0  0  0  0  0
    4.4281   -1.0568    1.2167 C   0  0  0  0  0  0  0  0  0  0  0  0
    5.2061   -0.3336    0.2272 N   0  0  0  0  0  0  0  0  0  0  0  0
    4.8122   -0.3732   -1.0812 C   0  0  0  0  0  0  0  0  0  0  0  0
    5.4390    0.2908   -2.0737 C   0  0  0  0  0  0  0  0  0  0  0  0
    4.9599    0.2267   -3.4722 C   0  0  0  0  0  0  0  0  0  0  0  0
    6.5529    1.0640   -1.7638 C   0  0  0  0  0  0  0  0  0  0  0  0
    7.1259    1.6873   -2.7066 N   0  0  0  0  0  4  0  0  0  0  0  0
    6.9992    1.1408   -0.4470 C   0  0  0  0  0  0  0  0  0  0  0  0
    8.0959    1.8833   -0.0994 C   0  0  0  0  0  0  0  0  0  0  0  0
    8.5105    1.9318    1.2041 C   0  0  0  0  0  0  0  0  0  0  0  0
    7.8215    1.2293    2.1627 C   0  0  0  0  0  0  0  0  0  0  0  0
    6.7239    0.4844    1.8148 C   0  0  0  0  0  0  0  0  0  0  0  0
    6.2815    0.4167    0.5119 C   0  0  0  0  0  0  0  0  0  0  0  0
    1.9957   -0.6664    1.1691 C   0  0  0  0  0  0  0  0  0  0  0  0
   -1.4829    0.3745    0.7246 C   0  0  0  0  0  0  0  0  0  0  0  0
   -5.8894   -0.0534    0.3980 C   0  0  0  0  0  0  0  0  0  0  0  0
   -5.7032    0.1069    1.7531 C   0  0  0  0  0  0  0  0  0  0  0  0
   -6.6554   -0.2902    2.6469 C   0  0  0  0  0  0  0  0  0  0  0  0
   -7.8354   -0.8640    2.2439 C   0  0  0  0  0  0  0  0  0  0  0  0
   -8.0101   -1.0205    0.8722 C   0  0  0  0  0  0  0  0  0  0  0  0
   -7.0776   -0.6338   -0.0416 C   0  0  0  0  0  0  0  0  0  0  0  0
   -7.3322   -0.8339   -1.4025 C   0  0  0  0  0  0  0  0  0  0  0  0
   -8.4129   -1.3597   -1.8398 N   0  0  0  0  0  4  0  0  0  0  0  0
   -6.7665   -1.6802   -3.9409 H   0  0  0  0  0  0  0  0  0  0  0  0
   -7.3515    0.0189   -4.1303 H   0  0  0  0  0  0  0  0  0  0  0  0
   -5.5645   -0.4134   -4.2351 H   0  0  0  0  0  0  0  0  0  0  0  0
   -4.4354    0.4506   -2.5462 H   0  0  0  0  0  0  0  0  0  0  0  0
   -3.8555    1.5961    0.7468 H   0  0  0  0  0  0  0  0  0  0  0  0
   -3.3257    1.5620   -0.9583 H   0  0  0  0  0  0  0  0  0  0  0  0
   -3.7078   -1.6959   -0.6647 H   0  0  0  0  0  0  0  0  0  0  0  0
   -1.8132   -3.2890   -0.2484 H   0  0  0  0  0  0  0  0  0  0  0  0
    0.2459   -2.5409    0.7687 H   0  0  0  0  0  0  0  0  0  0  0  0
   -0.0604    1.4847    2.7746 H   0  0  0  0  0  0  0  0  0  0  0  0
    2.1085    2.1771    3.7249 H   0  0  0  0  0  0  0  0  0  0  0  0
    4.1587    1.0351    3.0266 H   0  0  0  0  0  0  0  0  0  0  0  0
    5.0177   -1.5161    2.0191 H   0  0  0  0  0  0  0  0  0  0  0  0
    4.0356   -1.9601    0.6426 H   0  0  0  0  0  0  0  0  0  0  0  0
    3.9323   -0.9901   -1.2968 H   0  0  0  0  0  0  0  0  0  0  0  0
    3.9994   -0.3319   -3.4715 H   0  0  0  0  0  0  0  0  0  0  0  0
    5.7061   -0.1958   -4.1593 H   0  0  0  0  0  0  0  0  0  0  0  0
    4.7151    1.2563   -3.8281 H   0  0  0  0  0  0  0  0  0  0  0  0
    7.9430    2.2747   -2.5907 H   0  0  0  0  0  0  0  0  0  0  0  0
    6.7266    1.6282   -3.6845 H   0  0  0  0  0  0  0  0  0  0  0  0
    8.6360    2.4390   -0.8526 H   0  0  0  0  0  0  0  0  0  0  0  0
    9.3936    2.5311    1.4628 H   0  0  0  0  0  0  0  0  0  0  0  0
    8.1588    1.2711    3.1913 H   0  0  0  0  0  0  0  0  0  0  0  0
    6.1995   -0.0643    2.5888 H   0  0  0  0  0  0  0  0  0  0  0  0
    1.9230   -1.4709    0.4349 H   0  0  0  0  0  0  0  0  0  0  0  0
   -1.3917    1.4089    1.0014 H   0  0  0  0  0  0  0  0  0  0  0  0
   -4.7776    0.5515    2.1066 H   0  0  0  0  0  0  0  0  0  0  0  0
   -6.5023   -0.1578    3.7305 H   0  0  0  0  0  0  0  0  0  0  0  0
   -8.5898   -1.1807    2.9676 H   0  0  0  0  0  0  0  0  0  0  0  0
   -8.9558   -1.4778    0.5848 H   0  0  0  0  0  0  0  0  0  0  0  0
   -9.1965   -1.6898   -1.2683 H   0  0  0  0  0  0  0  0  0  0  0  0
   -8.5139   -1.4611   -2.8941 H   0  0  0  0  0  0  0  0  0  0  0  0
  1  2  1  0
  2  3  2  0
  3  4  1  0
  4  5  1  0
  5  6  1  0
  6  7  2  0
  7  8  1  0
  8  9  2  0
  9 10  1  0
 10 11  1  0
 11 12  2  0
 12 13  1  0
 13 14  2  0
 14 15  1  0
 15 16  1  0
 16 17  1  0
 17 18  1  0
 18 19  2  0
 19 20  1  0
 19 21  1  0
 21 22  2  3
 21 23  1  0
 23 24  2  0
 24 25  1  0
 25 26  2  0
 26 27  1  0
 27 28  2  0
 15 29  2  0
 10 30  2  0
  4 31  1  0
 31 32  2  0
 32 33  1  0
 33 34  2  0
 34 35  1  0
 35 36  2  0
 36 37  1  0
 37 38  2  3
 37  2  1  0
 30  6  1  0
 36 31  1  0
 29 11  1  0
 28 17  1  0
 28 23  1  0
  1 39  1  0
  1 40  1  0
  1 41  1  0
  3 42  1  0
  5 43  1  0
  5 44  1  0
  7 45  1  0
  8 46  1  0
  9 47  1  0
 12 48  1  0
 13 49  1  0
 14 50  1  0
 16 51  1  0
 16 52  1  0
 18 53  1  0
 20 54  1  0
 20 55  1  0
 20 56  1  0
 22 57  1  0
 22 58  1  0
 24 59  1  0
 25 60  1  0
 26 61  1  0
 27 62  1  0
 29 63  1  0
 30 64  1  0
 32 65  1  0
 33 66  1  0
 34 67  1  0
 35 68  1  0
 38 69  1  0
 38 70  1  0
M  CHG  2  22   1  38   1
M  END
$$$$
