@<TRIPOS>MOLECULE
*****
 70 75 0 0 0
SMALL
GASTEIGER

@<TRIPOS>ATOM
      1 C          -6.5363   -0.6166   -3.7393 C.3     1  UNL1       -0.0321
      2 C          -6.3358   -0.4220   -2.2772 C.ar    1  UNL1        0.0369
      3 C          -5.1883    0.1422   -1.8014 C.ar    1  UNL1        0.0146
      4 N          -4.9635    0.3260   -0.4885 N.ar    1  UNL1       -0.3417
      5 C          -3.7331    0.9346   -0.1164 C.3     1  UNL1        0.0483
      6 C          -2.6596   -0.0695    0.1382 C.ar    1  UNL1       -0.0272
      7 C          -2.7732   -1.3781   -0.2076 C.ar    1  UNL1       -0.0568
      8 C          -1.7304   -2.2482    0.0227 C.ar    1  UNL1       -0.0609
      9 C          -0.5391   -1.8137    0.6117 C.ar    1  UNL1       -0.0540
     10 C          -0.4318   -0.4747    0.9624 C.ar    1  UNL1       -0.0176
     11 C           0.8279   -0.0342    1.5524 C.ar    1  UNL1       -0.0176
     12 C           0.8660    0.9817    2.4677 C.ar    1  UNL1       -0.0540
     13 C           2.0822    1.3551    2.9916 C.ar    1  UNL1       -0.0609
     14 C           3.2394    0.7124    2.5975 C.ar    1  UNL1       -0.0568
     15 C           3.2306   -0.3154    1.6770 C.ar    1  UNL1       -0.0272
     16 C           4.4281   -1.0568    1.2167 C.3     1  UNL1        0.0483
     17 N           5.2061   -0.3336    0.2272 N.ar    1  UNL1       -0.3417
     18 C           4.8122   -0.3732   -1.0812 C.ar    1  UNL1        0.0146
     19 C           5.4390    0.2908   -2.0737 C.ar    1  UNL1        0.0369
     20 C           4.9599    0.2267   -3.4722 C.3     1  UNL1       -0.0321
     21 C           6.5529    1.0640   -1.7638 C.ar    1  UNL1        0.2129
     22 N           7.1259    1.6873   -2.7066 N.2     1  UNL1       -0.2535
     23 C           6.9992    1.1408   -0.4470 C.ar    1  UNL1        0.0694
     24 C           8.0959    1.8833   -0.0994 C.ar    1  UNL1       -0.0463
     25 C           8.5105    1.9318    1.2041 C.ar    1  UNL1       -0.0609
     26 C           7.8215    1.2293    2.1627 C.ar    1  UNL1       -0.0598
     27 C           6.7239    0.4844    1.8148 C.ar    1  UNL1       -0.0374
     28 C           6.2815    0.4167    0.5119 C.ar    1  UNL1        0.0556
     29 C           1.9957   -0.6664    1.1691 C.ar    1  UNL1       -0.0491
     30 C          -1.4829    0.3745    0.7246 C.ar    1  UNL1       -0.0491
     31 C          -5.8894   -0.0534    0.3980 C.ar    1  UNL1        0.0556
     32 C          -5.7032    0.1069    1.7531 C.ar    1  UNL1       -0.0374
     33 C          -6.6554   -0.2902    2.6469 C.ar    1  UNL1       -0.0598
     34 C          -7.8354   -0.8640    2.2439 C.ar    1  UNL1       -0.0609
     35 C          -8.0101   -1.0205    0.8722 C.ar    1  UNL1       -0.0463
     36 C          -7.0776   -0.6338   -0.0416 C.ar    1  UNL1        0.0694
     37 C          -7.3322   -0.8339   -1.4025 C.ar    1  UNL1        0.2129
     38 N          -8.4129   -1.3597   -1.8398 N.2     1  UNL1       -0.2535
     39 H          -6.7665   -1.6802   -3.9409 H       1  UNL1        0.0280
     40 H          -7.3515    0.0189   -4.1303 H       1  UNL1        0.0280
     41 H          -5.5645   -0.4134   -4.2351 H       1  UNL1        0.0280
     42 H          -4.4354    0.4506   -2.5462 H       1  UNL1        0.0814
     43 H          -3.8555    1.5961    0.7468 H       1  UNL1        0.0541
     44 H          -3.3257    1.5620   -0.9583 H       1  UNL1        0.0541
     45 H          -3.7078   -1.6959   -0.6647 H       1  UNL1        0.0621
     46 H          -1.8132   -3.2890   -0.2484 H       1  UNL1        0.0618
     47 H           0.2459   -2.5409    0.7687 H       1  UNL1        0.0624
     48 H          -0.0604    1.4847    2.7746 H       1  UNL1        0.0624
     49 H           2.1085    2.1771    3.7249 H       1  UNL1        0.0618
     50 H           4.1587    1.0351    3.0266 H       1  UNL1        0.0621
     51 H           5.0177   -1.5161    2.0191 H       1  UNL1        0.0541
     52 H           4.0356   -1.9601    0.6426 H       1  UNL1        0.0541
     53 H           3.9323   -0.9901   -1.2968 H       1  UNL1        0.0814
     54 H           3.9994   -0.3319   -3.4715 H       1  UNL1        0.0280
     55 H           5.7061   -0.1958   -4.1593 H       1  UNL1        0.0280
     56 H           4.7151    1.2563   -3.8281 H       1  UNL1        0.0280
     57 H           7.9430    2.2747   -2.5907 H       1  UNL1        0.4434
     58 H           6.7266    1.6282   -3.6845 H       1  UNL1        0.4434
     59 H           8.6360    2.4390   -0.8526 H       1  UNL1        0.0626
     60 H           9.3936    2.5311    1.4628 H       1  UNL1        0.0618
     61 H           8.1588    1.2711    3.1913 H       1  UNL1        0.0618
     62 H           6.1995   -0.0643    2.5888 H       1  UNL1        0.0638
     63 H           1.9230   -1.4709    0.4349 H       1  UNL1        0.0627
     64 H          -1.3917    1.4089    1.0014 H       1  UNL1        0.0627
     65 H          -4.7776    0.5515    2.1066 H       1  UNL1        0.0638
     66 H          -6.5023   -0.1578    3.7305 H       1  UNL1        0.0618
     67 H          -8.5898   -1.1807    2.9676 H       1  UNL1        0.0618
     68 H          -8.9558   -1.4778    0.5848 H       1  UNL1        0.0626
     69 H          -9.1965   -1.6898   -1.2683 H       1  UNL1        0.4434
     70 H          -8.5139   -1.4611   -2.8941 H       1  UNL1        0.4434
@<TRIPOS>UNITY_ATOM_ATTR
22 1
charge 1
38 1
charge 1
@<TRIPOS>BOND
     1     1     2    1
     2     2     3   ar
     3     3     4   ar
     4     4     5    1
     5     5     6    1
     6     6     7   ar
     7     7     8   ar
     8     8     9   ar
     9     9    10   ar
    10    10    11    1
    11    11    12   ar
    12    12    13   ar
    13    13    14   ar
    14    14    15   ar
    15    15    16    1
    16    16    17    1
    17    17    18   ar
    18    18    19   ar
    19    19    20    1
    20    19    21   ar
    21    21    22    2
    22    21    23   ar
    23    23    24   ar
    24    24    25   ar
    25    25    26   ar
    26    26    27   ar
    27    27    28   ar
    28    15    29   ar
    29    10    30   ar
    30     4    31   ar
    31    31    32   ar
    32    32    33   ar
    33    33    34   ar
    34    34    35   ar
    35    35    36   ar
    36    36    37   ar
    37    37    38    2
    38    37     2   ar
    39    30     6   ar
    40    36    31   ar
    41    29    11   ar
    42    28    17   ar
    43    28    23   ar
    44     1    39    1
    45     1    40    1
    46     1    41    1
    47     3    42    1
    48     5    43    1
    49     5    44    1
    50     7    45    1
    51     8    46    1
    52     9    47    1
    53    12    48    1
    54    13    49    1
    55    14    50    1
    56    16    51    1
    57    16    52    1
    58    18    53    1
    59    20    54    1
    60    20    55    1
    61    20    56    1
    62    22    57    1
    63    22    58    1
    64    24    59    1
    65    25    60    1
    66    26    61    1
    67    27    62    1
    68    29    63    1
    69    30    64    1
    70    32    65    1
    71    33    66    1
    72    34    67    1
    73    35    68    1
    74    38    69    1
    75    38    70    1
