
     RDKit          3D

 40 40  0  0  0  0  0  0  0  0999 V2000
    0.2098   -0.3273    0.3520 C   0  0  2  0  0  0  0  0  0  0  0  0
   -0.1792   -1.5968    0.0442 O   0  0  0  0  0  0  0  0  0  0  0  0
   -1.4999   -1.8094   -0.2300 C   0  0  2  0  0  0  0  0  0  0  0  0
   -1.8368   -1.5530   -1.5622 O   0  0  0  0  0  0  0  0  0  0  0  0
   -2.4665   -1.1676    0.7415 C   0  0  0  0  0  0  0  0  0  0  0  0
   -1.9374    0.1301    1.3172 C   0  0  2  0  0  0  0  0  0  0  0  0
   -2.9149    1.0424    1.6287 O   0  0  0  0  0  0  0  0  0  0  0  0
   -0.9456    0.6475    0.2689 C   0  0  1  0  0  0  0  0  0  0  0  0
   -0.5579    1.9946    0.5081 N   0  0  0  0  0  0  0  0  0  0  0  0
   -0.8467    3.0236   -0.4581 C   0  0  0  0  0  0  0  0  0  0  0  0
   -0.5117    4.4720   -0.3617 C   0  0  0  0  0  0  0  0  0  0  0  0
   -1.4581    2.6534   -1.5156 O   0  0  0  0  0  0  0  0  0  0  0  0
   -1.7347   -3.2912   -0.0721 C   0  0  0  0  0  0  0  0  0  0  0  0
   -2.1545   -4.3966   -0.8001 O   0  0  0  0  0  0  0  0  0  0  0  0
   -1.4477   -3.5935    1.1180 O   0  0  0  0  0  0  0  0  0  0  0  0
    1.4509    0.1580   -0.3514 C   0  0  2  0  0  0  0  0  0  0  0  0
    1.2957    0.1525   -1.7454 O   0  0  0  0  0  0  0  0  0  0  0  0
    2.5777   -0.7458    0.0799 C   0  0  2  0  0  0  0  0  0  0  0  0
    2.7024   -0.7150    1.4715 O   0  0  0  0  0  0  0  0  0  0  0  0
    3.9142   -0.3416   -0.4877 C   0  0  0  0  0  0  0  0  0  0  0  0
    3.9599   -0.3213   -1.8649 O   0  0  0  0  0  0  0  0  0  0  0  0
    0.4875   -0.3420    1.4466 H   0  0  0  0  0  0  0  0  0  0  0  0
   -1.5857   -2.2808   -2.1721 H   0  0  0  0  0  0  0  0  0  0  0  0
   -2.8086   -1.8606    1.5398 H   0  0  0  0  0  0  0  0  0  0  0  0
   -3.4039   -0.8730    0.1880 H   0  0  0  0  0  0  0  0  0  0  0  0
   -1.3278   -0.1654    2.2204 H   0  0  0  0  0  0  0  0  0  0  0  0
   -2.6086    1.4928    2.4793 H   0  0  0  0  0  0  0  0  0  0  0  0
   -1.4496    0.5836   -0.6965 H   0  0  0  0  0  0  0  0  0  0  0  0
   -0.0577    2.3417    1.3560 H   0  0  0  0  0  0  0  0  0  0  0  0
   -1.3601    5.0640    0.0125 H   0  0  0  0  0  0  0  0  0  0  0  0
   -0.2742    4.8358   -1.3926 H   0  0  0  0  0  0  0  0  0  0  0  0
    0.3992    4.6279    0.2528 H   0  0  0  0  0  0  0  0  0  0  0  0
   -2.9000   -4.9604   -0.3670 H   0  0  0  0  0  0  0  0  0  0  0  0
    1.5965    1.2177   -0.0634 H   0  0  0  0  0  0  0  0  0  0  0  0
    1.6139   -0.7094   -2.0870 H   0  0  0  0  0  0  0  0  0  0  0  0
    2.3128   -1.7630   -0.2357 H   0  0  0  0  0  0  0  0  0  0  0  0
    2.7986    0.2193    1.7928 H   0  0  0  0  0  0  0  0  0  0  0  0
    4.2900    0.5790   -0.0300 H   0  0  0  0  0  0  0  0  0  0  0  0
    4.6258   -1.1467   -0.1579 H   0  0  0  0  0  0  0  0  0  0  0  0
    4.0331   -1.2757   -2.1668 H   0  0  0  0  0  0  0  0  0  0  0  0
  1  2  1  0
  2  3  1  0
  3  4  1  6
  3  5  1  0
  5  6  1  0
  6  7  1  0
  6  8  1  0
  8  9  1  0
  9 10  1  0
 10 11  1  0
 10 12  2  0
  3 13  1  0
 13 14  1  0
 13 15  2  0
  1 16  1  0
 16 17  1  0
 16 18  1  0
 18 19  1  0
 18 20  1  0
 20 21  1  0
  8  1  1  0
  1 22  1  1
  4 23  1  0
  5 24  1  0
  5 25  1  0
  6 26  1  1
  7 27  1  0
  8 28  1  6
  9 29  1  0
 11 30  1  0
 11 31  1  0
 11 32  1  0
 14 33  1  0
 16 34  1  1
 17 35  1  0
 18 36  1  6
 19 37  1  0
 20 38  1  0
 20 39  1  0
 21 40  1  0
M  END
$$$$
