@<TRIPOS>MOLECULE
*****
 50 52 0 0 0
SMALL
GASTEIGER

@<TRIPOS>ATOM
      1 N          10.1689   -3.0501   -0.9017 N.1     1  UNL1       -0.1909
      2 C           8.9589   -2.8921   -0.9922 C.1     1  UNL1        0.0992
      3 C           7.5421   -2.7074   -1.1080 C.ar    1  UNL1        0.0518
      4 C           6.9482   -2.0532   -2.1724 C.ar    1  UNL1       -0.0438
      5 C           5.6158   -1.7937   -2.2495 C.ar    1  UNL1       -0.0528
      6 C           4.7956   -2.2090   -1.1787 C.ar    1  UNL1       -0.0178
      7 C           3.3801   -1.8583   -1.1906 C.ar    1  UNL1       -0.0179
      8 C           2.3721   -2.5894   -0.6245 C.ar    1  UNL1       -0.0538
      9 C           1.0179   -2.2289   -0.6116 C.ar    1  UNL1       -0.0579
     10 C           0.7103   -1.0088   -1.2455 C.ar    1  UNL1       -0.0446
     11 C          -0.7066   -0.5278   -1.2852 C.3     1  UNL1        0.0041
     12 C          -0.9595    0.2126   -0.0397 C.3     1  UNL1        0.1142
     13 C          -0.0493    1.3710    0.1105 C.1     1  UNL1        0.0852
     14 N           0.6768    2.3181    0.2179 N.1     1  UNL1       -0.1946
     15 N          -2.3058    0.7659   -0.0294 N.am    1  UNL1       -0.2980
     16 C          -2.9236    1.0580    1.2602 C.2     1  UNL1        0.2341
     17 O          -2.2644    0.8000    2.2839 O.2     1  UNL1       -0.2738
     18 C          -4.2802    1.6321    1.2221 C.3     1  UNL1        0.0978
     19 N          -4.9257    1.5875   -0.0524 N.3     1  UNL1       -0.3173
     20 C          -4.0873    3.1336    1.5929 C.3     1  UNL1       -0.0027
     21 C          -5.4474    3.7584    1.4134 C.3     1  UNL1        0.0498
     22 O          -6.3771    3.2070    2.2491 O.3     1  UNL1       -0.3796
     23 C          -5.9045    2.1979    3.0557 C.3     1  UNL1        0.0498
     24 C          -5.2136    1.0923    2.2747 C.3     1  UNL1       -0.0027
     25 C           1.6759   -0.2773   -1.8036 C.ar    1  UNL1       -0.0579
     26 C           2.9925   -0.6636   -1.7978 C.ar    1  UNL1       -0.0538
     27 C           5.3346   -2.8525   -0.1314 C.ar    1  UNL1       -0.0528
     28 C           6.6774   -3.0928   -0.1026 C.ar    1  UNL1       -0.0438
     29 H           7.5636   -1.7227   -3.0107 H       1  UNL1        0.0631
     30 H           5.1524   -1.2855   -3.0667 H       1  UNL1        0.0624
     31 H           2.6461   -3.5194   -0.1430 H       1  UNL1        0.0624
     32 H           0.2633   -2.8385   -0.1362 H       1  UNL1        0.0620
     33 H          -1.4028   -1.3905   -1.4355 H       1  UNL1        0.0341
     34 H          -0.7955    0.1052   -2.2005 H       1  UNL1        0.0341
     35 H          -0.7858   -0.4702    0.8551 H       1  UNL1        0.0660
     36 H          -2.7837    0.9293   -0.9190 H       1  UNL1        0.1500
     37 H          -4.3852    2.0307   -0.8189 H       1  UNL1        0.1192
     38 H          -5.2799    0.6256   -0.2675 H       1  UNL1        0.1192
     39 H          -3.3435    3.5959    0.9148 H       1  UNL1        0.0310
     40 H          -3.6930    3.1909    2.6094 H       1  UNL1        0.0310
     41 H          -5.7103    3.5684    0.3261 H       1  UNL1        0.0560
     42 H          -5.2873    4.8651    1.5812 H       1  UNL1        0.0560
     43 H          -6.7734    1.7420    3.5828 H       1  UNL1        0.0560
     44 H          -5.2304    2.5477    3.8754 H       1  UNL1        0.0560
     45 H          -5.9973    0.4427    1.7805 H       1  UNL1        0.0310
     46 H          -4.6864    0.4716    2.9983 H       1  UNL1        0.0310
     47 H           1.4565    0.6778   -2.3055 H       1  UNL1        0.0620
     48 H           3.7693   -0.0736   -2.2566 H       1  UNL1        0.0624
     49 H           4.7121   -3.1937    0.7238 H       1  UNL1        0.0624
     50 H           7.1694   -3.6282    0.7294 H       1  UNL1        0.0631
@<TRIPOS>BOND
     1     1     2    3
     2     2     3    1
     3     3     4   ar
     4     4     5   ar
     5     5     6   ar
     6     6     7    1
     7     7     8   ar
     8     8     9   ar
     9     9    10   ar
    10    10    11    1
    11    11    12    1
    12    12    13    1
    13    13    14    3
    14    12    15    1
    15    15    16   am
    16    16    17    2
    17    16    18    1
    18    18    19    1
    19    18    20    1
    20    20    21    1
    21    21    22    1
    22    22    23    1
    23    23    24    1
    24    10    25   ar
    25    25    26   ar
    26     6    27   ar
    27    27    28   ar
    28    28     3   ar
    29    26     7   ar
    30    24    18    1
    31     4    29    1
    32     5    30    1
    33     8    31    1
    34     9    32    1
    35    11    33    1
    36    11    34    1
    37    12    35    1
    38    15    36    1
    39    19    37    1
    40    19    38    1
    41    20    39    1
    42    20    40    1
    43    21    41    1
    44    21    42    1
    45    23    43    1
    46    23    44    1
    47    24    45    1
    48    24    46    1
    49    25    47    1
    50    26    48    1
    51    27    49    1
    52    28    50    1
