@<TRIPOS>MOLECULE
*****
 23 23 0 0 0
SMALL
GASTEIGER

@<TRIPOS>ATOM
      1 O           2.9732   -0.5828    0.9233 O.3     1  UNL1       -0.3946
      2 C           1.9982    0.4076    0.7995 C.3     1  UNL1        0.0506
      3 C           0.8536   -0.1012   -0.0865 C.3     1  UNL1        0.0231
      4 C           0.2818   -1.3026    0.5600 C.3     1  UNL1        0.0033
      5 N          -0.9745   -1.7407    0.0932 N.3     1  UNL1       -0.3130
      6 C          -1.6670   -0.8550   -0.7863 C.3     1  UNL1        0.0244
      7 C          -1.5381    0.5814   -0.3387 C.3     1  UNL1        0.0938
      8 O          -1.9985    0.6797    0.9530 O.3     1  UNL1       -0.3880
      9 C          -0.1061    0.9918   -0.3891 C.3     1  UNL1        0.0883
     10 O           0.1598    1.5071   -1.6785 O.3     1  UNL1       -0.3888
     11 H           3.4035   -0.6468    0.0233 H       1  UNL1        0.2094
     12 H           2.4677    1.2818    0.3241 H       1  UNL1        0.0561
     13 H           1.6414    0.6637    1.8083 H       1  UNL1        0.0561
     14 H           1.3594   -0.4286   -1.0368 H       1  UNL1        0.0361
     15 H           1.0184   -2.1479    0.4193 H       1  UNL1        0.0428
     16 H           0.2510   -1.1291    1.6605 H       1  UNL1        0.0428
     17 H          -1.5501   -2.2308    0.7840 H       1  UNL1        0.1220
     18 H          -2.7494   -1.0952   -0.8060 H       1  UNL1        0.0450
     19 H          -1.2763   -0.9499   -1.8332 H       1  UNL1        0.0450
     20 H          -2.1052    1.2138   -1.0552 H       1  UNL1        0.0632
     21 H          -2.2773    1.6268    1.1272 H       1  UNL1        0.2099
     22 H           0.0601    1.8589    0.3150 H       1  UNL1        0.0623
     23 H          -0.2255    2.3980   -1.7804 H       1  UNL1        0.2099
@<TRIPOS>BOND
     1     1     2    1
     2     2     3    1
     3     3     4    1
     4     4     5    1
     5     5     6    1
     6     6     7    1
     7     7     8    1
     8     7     9    1
     9     9    10    1
    10     9     3    1
    11     1    11    1
    12     2    12    1
    13     2    13    1
    14     3    14    1
    15     4    15    1
    16     4    16    1
    17     5    17    1
    18     6    18    1
    19     6    19    1
    20     7    20    1
    21     8    21    1
    22     9    22    1
    23    10    23    1
