@<TRIPOS>MOLECULE
*****
 48 50 0 0 0
SMALL
GASTEIGER

@<TRIPOS>ATOM
      1 C           0.7625   -2.1131   -0.7220 C.3     1  UNL1        0.1133
      2 O           1.1095   -3.3980   -1.1245 O.3     1  UNL1       -0.3864
      3 C          -0.7377   -1.8962   -0.7270 C.3     1  UNL1        0.1263
      4 O          -1.3856   -3.1271   -0.5992 O.3     1  UNL1       -0.3849
      5 C          -0.9246   -1.0293    0.4912 C.3     1  UNL1        0.1564
      6 O           0.3541   -0.6975    0.9421 O.3     1  UNL1       -0.3478
      7 C           1.0655   -1.8795    0.7426 C.3     1  UNL1        0.1132
      8 C           2.5331   -1.7273    1.0138 C.3     1  UNL1        0.0879
      9 O           3.1525   -0.7965    0.2236 O.3     1  UNL1       -0.2837
     10 P           4.8093   -0.6345    0.5395 P.3     1  UNL1        0.4834
     11 O           5.3027   -2.0408    1.3724 O.3     1  UNL1       -0.3022
     12 O           5.5787   -0.6277   -0.7619 O.2     1  UNL1       -0.2269
     13 O           5.1707    0.7026    1.4742 O.3     1  UNL1       -0.1862
     14 P           5.5820    2.0655    0.5568 P.3     1  UNL1        0.4808
     15 O           7.1965    2.4621    0.8568 O.3     1  UNL1       -0.3023
     16 O           5.3788    1.7865   -1.1070 O.3     1  UNL1       -0.3023
     17 O           4.7455    3.2598    0.9681 O.2     1  UNL1       -0.2271
     18 N          -1.7500    0.1351    0.2318 N.pl3   1  UNL1       -0.2711
     19 C          -1.4357    1.1644   -0.7401 C.3     1  UNL1        0.0823
     20 N          -2.7918    1.5886   -1.1141 N.pl3   1  UNL1       -0.3102
     21 C          -3.2199    2.1395   -2.3928 C.3     1  UNL1        0.0024
     22 C          -3.6156    1.3545    0.0278 C.ar    1  UNL1        0.1316
     23 C          -2.9791    0.4489    0.8781 C.ar    1  UNL1        0.1314
     24 N          -3.5212    0.0316    2.0493 N.ar    1  UNL1       -0.3111
     25 C          -4.7304    0.5446    2.3593 C.ar    1  UNL1        0.2251
     26 N          -5.2210    0.1294    3.4792 N.2     1  UNL1       -0.2664
     27 N          -5.3919    1.4243    1.5737 N.ar    1  UNL1       -0.1761
     28 C          -4.8565    1.8469    0.4003 C.ar    1  UNL1        0.2406
     29 O          -5.4770    2.7443   -0.4520 O.3     1  UNL1       -0.4910
     30 H           1.2976   -1.3211   -1.3221 H       1  UNL1        0.0647
     31 H           0.3005   -3.9993   -1.1832 H       1  UNL1        0.2100
     32 H          -1.1012   -1.4186   -1.6566 H       1  UNL1        0.0663
     33 H          -1.4014   -3.4526    0.3230 H       1  UNL1        0.2101
     34 H          -1.3806   -1.6566    1.2861 H       1  UNL1        0.0837
     35 H           0.6001   -2.7007    1.3016 H       1  UNL1        0.0647
     36 H           2.9981   -2.7166    0.7870 H       1  UNL1        0.0592
     37 H           2.6775   -1.5966    2.1052 H       1  UNL1        0.0592
     38 H           5.4234   -2.7820    0.7304 H       1  UNL1        0.2220
     39 H           7.7923    2.2324    0.0871 H       1  UNL1        0.2220
     40 H           4.6894    2.4167   -1.4769 H       1  UNL1        0.2220
     41 H          -0.9338    2.0419   -0.3008 H       1  UNL1        0.0673
     42 H          -0.8769    0.7925   -1.6047 H       1  UNL1        0.0673
     43 H          -2.3520    2.0825   -3.0805 H       1  UNL1        0.0428
     44 H          -3.6223    3.1680   -2.2965 H       1  UNL1        0.0428
     45 H          -4.0187    1.5383   -2.8744 H       1  UNL1        0.0428
     46 H          -3.0205   -0.6492    2.6678 H       1  UNL1        0.1700
     47 H          -6.1573    0.4732    3.8045 H       1  UNL1        0.1898
     48 H          -5.6175    3.6865   -0.1087 H       1  UNL1        0.2938
@<TRIPOS>BOND
     1     1     2    1
     2     1     3    1
     3     3     4    1
     4     3     5    1
     5     5     6    1
     6     6     7    1
     7     7     8    1
     8     8     9    1
     9     9    10    1
    10    10    11    1
    11    10    12    2
    12    10    13    1
    13    13    14    1
    14    14    15    1
    15    14    16    1
    16    14    17    2
    17     5    18    1
    18    18    19    1
    19    19    20    1
    20    20    21    1
    21    20    22    1
    22    22    23   ar
    23    23    24   ar
    24    24    25   ar
    25    25    26    2
    26    25    27   ar
    27    27    28   ar
    28    28    29    1
    29     7     1    1
    30    23    18    1
    31    28    22   ar
    32     1    30    1
    33     2    31    1
    34     3    32    1
    35     4    33    1
    36     5    34    1
    37     7    35    1
    38     8    36    1
    39     8    37    1
    40    11    38    1
    41    15    39    1
    42    16    40    1
    43    19    41    1
    44    19    42    1
    45    21    43    1
    46    21    44    1
    47    21    45    1
    48    24    46    1
    49    26    47    1
    50    29    48    1
