
     RDKit          3D

 48 50  0  0  0  0  0  0  0  0999 V2000
    0.7625   -2.1131   -0.7220 C   0  0  1  0  0  0  0  0  0  0  0  0
    1.1095   -3.3980   -1.1245 O   0  0  0  0  0  0  0  0  0  0  0  0
   -0.7377   -1.8962   -0.7270 C   0  0  1  0  0  0  0  0  0  0  0  0
   -1.3856   -3.1271   -0.5992 O   0  0  0  0  0  0  0  0  0  0  0  0
   -0.9246   -1.0293    0.4912 C   0  0  1  0  0  0  0  0  0  0  0  0
    0.3541   -0.6975    0.9421 O   0  0  0  0  0  0  0  0  0  0  0  0
    1.0655   -1.8795    0.7426 C   0  0  2  0  0  0  0  0  0  0  0  0
    2.5331   -1.7273    1.0138 C   0  0  0  0  0  0  0  0  0  0  0  0
    3.1525   -0.7965    0.2236 O   0  0  0  0  0  0  0  0  0  0  0  0
    4.8093   -0.6345    0.5395 P   0  0  0  0  0  0  0  0  0  0  0  0
    5.3027   -2.0408    1.3724 O   0  0  0  0  0  0  0  0  0  0  0  0
    5.5787   -0.6277   -0.7619 O   0  0  0  0  0  0  0  0  0  0  0  0
    5.1707    0.7026    1.4742 O   0  0  0  0  0  0  0  0  0  0  0  0
    5.5820    2.0655    0.5568 P   0  0  0  0  0  0  0  0  0  0  0  0
    7.1965    2.4621    0.8568 O   0  0  0  0  0  0  0  0  0  0  0  0
    5.3788    1.7865   -1.1070 O   0  0  0  0  0  0  0  0  0  0  0  0
    4.7455    3.2598    0.9681 O   0  0  0  0  0  0  0  0  0  0  0  0
   -1.7500    0.1351    0.2318 N   0  0  0  0  0  0  0  0  0  0  0  0
   -1.4357    1.1644   -0.7401 C   0  0  0  0  0  0  0  0  0  0  0  0
   -2.7918    1.5886   -1.1141 N   0  0  0  0  0  0  0  0  0  0  0  0
   -3.2199    2.1395   -2.3928 C   0  0  0  0  0  0  0  0  0  0  0  0
   -3.6156    1.3545    0.0278 C   0  0  0  0  0  0  0  0  0  0  0  0
   -2.9791    0.4489    0.8781 C   0  0  0  0  0  0  0  0  0  0  0  0
   -3.5212    0.0316    2.0493 N   0  0  0  0  0  0  0  0  0  0  0  0
   -4.7304    0.5446    2.3593 C   0  0  0  0  0  0  0  0  0  0  0  0
   -5.2210    0.1294    3.4792 N   0  0  0  0  0  0  0  0  0  0  0  0
   -5.3919    1.4243    1.5737 N   0  0  0  0  0  0  0  0  0  0  0  0
   -4.8565    1.8469    0.4003 C   0  0  0  0  0  0  0  0  0  0  0  0
   -5.4770    2.7443   -0.4520 O   0  0  0  0  0  0  0  0  0  0  0  0
    1.2976   -1.3211   -1.3221 H   0  0  0  0  0  0  0  0  0  0  0  0
    0.3005   -3.9993   -1.1832 H   0  0  0  0  0  0  0  0  0  0  0  0
   -1.1012   -1.4186   -1.6566 H   0  0  0  0  0  0  0  0  0  0  0  0
   -1.4014   -3.4526    0.3230 H   0  0  0  0  0  0  0  0  0  0  0  0
   -1.3806   -1.6566    1.2861 H   0  0  0  0  0  0  0  0  0  0  0  0
    0.6001   -2.7007    1.3016 H   0  0  0  0  0  0  0  0  0  0  0  0
    2.9981   -2.7166    0.7870 H   0  0  0  0  0  0  0  0  0  0  0  0
    2.6775   -1.5966    2.1052 H   0  0  0  0  0  0  0  0  0  0  0  0
    5.4234   -2.7820    0.7304 H   0  0  0  0  0  0  0  0  0  0  0  0
    7.7923    2.2324    0.0871 H   0  0  0  0  0  0  0  0  0  0  0  0
    4.6894    2.4167   -1.4769 H   0  0  0  0  0  0  0  0  0  0  0  0
   -0.9338    2.0419   -0.3008 H   0  0  0  0  0  0  0  0  0  0  0  0
   -0.8769    0.7925   -1.6047 H   0  0  0  0  0  0  0  0  0  0  0  0
   -2.3520    2.0825   -3.0805 H   0  0  0  0  0  0  0  0  0  0  0  0
   -3.6223    3.1680   -2.2965 H   0  0  0  0  0  0  0  0  0  0  0  0
   -4.0187    1.5383   -2.8744 H   0  0  0  0  0  0  0  0  0  0  0  0
   -3.0205   -0.6492    2.6678 H   0  0  0  0  0  0  0  0  0  0  0  0
   -6.1573    0.4732    3.8045 H   0  0  0  0  0  0  0  0  0  0  0  0
   -5.6175    3.6865   -0.1087 H   0  0  0  0  0  0  0  0  0  0  0  0
  1  2  1  0
  1  3  1  0
  3  4  1  0
  3  5  1  0
  5  6  1  0
  6  7  1  0
  7  8  1  0
  8  9  1  0
  9 10  1  0
 10 11  1  0
 10 12  2  0
 10 13  1  0
 13 14  1  0
 14 15  1  0
 14 16  1  0
 14 17  2  0
  5 18  1  0
 18 19  1  0
 19 20  1  0
 20 21  1  0
 20 22  1  0
 22 23  2  0
 23 24  1  0
 24 25  1  0
 25 26  2  3
 25 27  1  0
 27 28  2  0
 28 29  1  0
  7  1  1  0
 23 18  1  0
 28 22  1  0
  1 30  1  6
  2 31  1  0
  3 32  1  6
  4 33  1  0
  5 34  1  1
  7 35  1  1
  8 36  1  0
  8 37  1  0
 11 38  1  0
 15 39  1  0
 16 40  1  0
 19 41  1  0
 19 42  1  0
 21 43  1  0
 21 44  1  0
 21 45  1  0
 24 46  1  0
 26 47  1  0
 29 48  1  0
M  END
$$$$
