@<TRIPOS>MOLECULE
*****
 20 20 0 0 0
SMALL
GASTEIGER

@<TRIPOS>ATOM
      1 O          -4.0589   -1.0317    0.1817 O.3     1  UNL1       -0.4775
      2 C          -3.6659    0.2897    0.1084 C.2     1  UNL1        0.3296
      3 O          -4.4987    1.2108    0.1006 O.2     1  UNL1       -0.2458
      4 C          -2.2449    0.5946    0.0394 C.2     1  UNL1        0.0229
      5 C          -1.3377   -0.3645    0.0460 C.2     1  UNL1       -0.0478
      6 C           0.1075   -0.1776   -0.0187 C.ar    1  UNL1       -0.0246
      7 C           0.9715   -1.2529   -0.0052 C.ar    1  UNL1       -0.0511
      8 C           2.3373   -1.0894   -0.0658 C.ar    1  UNL1       -0.0196
      9 C           2.9096    0.1633   -0.1434 C.ar    1  UNL1        0.1169
     10 O           4.2836    0.3689   -0.2062 O.3     1  UNL1       -0.5068
     11 C           2.0645    1.2786   -0.1594 C.ar    1  UNL1       -0.0196
     12 C           0.7030    1.0595   -0.0964 C.ar    1  UNL1       -0.0511
     13 H          -5.0124   -1.3029   -0.0748 H       1  UNL1        0.2954
     14 H          -1.8859    1.6131   -0.0193 H       1  UNL1        0.0689
     15 H          -1.7214   -1.3653    0.1050 H       1  UNL1        0.0626
     16 H           0.5913   -2.2706    0.0545 H       1  UNL1        0.0625
     17 H           2.9788   -1.9502   -0.0530 H       1  UNL1        0.0654
     18 H           4.8644    0.0066    0.5391 H       1  UNL1        0.2921
     19 H           2.4946    2.2763   -0.2201 H       1  UNL1        0.0654
     20 H           0.1196    1.9436   -0.1125 H       1  UNL1        0.0625
@<TRIPOS>BOND
     1     1     2    1
     2     2     3    2
     3     2     4    1
     4     4     5    2
     5     5     6    1
     6     6     7   ar
     7     7     8   ar
     8     8     9   ar
     9     9    10    1
    10     9    11   ar
    11    11    12   ar
    12    12     6   ar
    13     1    13    1
    14     4    14    1
    15     5    15    1
    16     7    16    1
    17     8    17    1
    18    10    18    1
    19    11    19    1
    20    12    20    1
