
     RDKit          3D

 20 20  0  0  0  0  0  0  0  0999 V2000
   -4.0589   -1.0317    0.1817 O   0  0  0  0  0  0  0  0  0  0  0  0
   -3.6659    0.2897    0.1084 C   0  0  0  0  0  0  0  0  0  0  0  0
   -4.4987    1.2108    0.1006 O   0  0  0  0  0  0  0  0  0  0  0  0
   -2.2449    0.5946    0.0394 C   0  0  0  0  0  0  0  0  0  0  0  0
   -1.3377   -0.3645    0.0460 C   0  0  0  0  0  0  0  0  0  0  0  0
    0.1075   -0.1776   -0.0187 C   0  0  0  0  0  0  0  0  0  0  0  0
    0.9715   -1.2529   -0.0052 C   0  0  0  0  0  0  0  0  0  0  0  0
    2.3373   -1.0894   -0.0658 C   0  0  0  0  0  0  0  0  0  0  0  0
    2.9096    0.1633   -0.1434 C   0  0  0  0  0  0  0  0  0  0  0  0
    4.2836    0.3689   -0.2062 O   0  0  0  0  0  0  0  0  0  0  0  0
    2.0645    1.2786   -0.1594 C   0  0  0  0  0  0  0  0  0  0  0  0
    0.7030    1.0595   -0.0964 C   0  0  0  0  0  0  0  0  0  0  0  0
   -5.0124   -1.3029   -0.0748 H   0  0  0  0  0  0  0  0  0  0  0  0
   -1.8859    1.6131   -0.0193 H   0  0  0  0  0  0  0  0  0  0  0  0
   -1.7214   -1.3653    0.1050 H   0  0  0  0  0  0  0  0  0  0  0  0
    0.5913   -2.2706    0.0545 H   0  0  0  0  0  0  0  0  0  0  0  0
    2.9788   -1.9502   -0.0530 H   0  0  0  0  0  0  0  0  0  0  0  0
    4.8644    0.0066    0.5391 H   0  0  0  0  0  0  0  0  0  0  0  0
    2.4946    2.2763   -0.2201 H   0  0  0  0  0  0  0  0  0  0  0  0
    0.1196    1.9436   -0.1125 H   0  0  0  0  0  0  0  0  0  0  0  0
  1  2  1  0
  2  3  2  0
  2  4  1  0
  4  5  2  0
  5  6  1  0
  6  7  2  0
  7  8  1  0
  8  9  2  0
  9 10  1  0
  9 11  1  0
 11 12  2  0
 12  6  1  0
  1 13  1  0
  4 14  1  0
  5 15  1  0
  7 16  1  0
  8 17  1  0
 10 18  1  0
 11 19  1  0
 12 20  1  0
M  END
$$$$
