@<TRIPOS>MOLECULE
*****
 118 120 0 0 0
SMALL
GASTEIGER

@<TRIPOS>ATOM
      1 C           5.8412   -1.3235   -4.6706 C.3     1  UNL1       -0.0650
      2 C           6.2320    0.0567   -4.2380 C.3     1  UNL1       -0.0512
      3 C           7.1961    0.0635   -3.0884 C.3     1  UNL1       -0.0171
      4 C           8.4491   -0.6459   -3.4493 C.3     1  UNL1       -0.0603
      5 C           6.5748   -0.3874   -1.7779 C.3     1  UNL1        0.1019
      6 N           5.4768    0.4808   -1.4058 N.am    1  UNL1       -0.3037
      7 C           4.1271    0.0262   -1.3881 C.2     1  UNL1        0.2161
      8 O           3.7910   -1.1264   -1.6949 O.2     1  UNL1       -0.2757
      9 C           3.0232    0.9828   -0.9746 C.3     1  UNL1        0.0517
     10 C           1.7184    0.3344   -1.1734 C.3     1  UNL1        0.0817
     11 O           1.5757   -0.0516   -2.5455 O.3     1  UNL1       -0.3895
     12 C           0.4802    1.0009   -0.7598 C.3     1  UNL1        0.0497
     13 C           0.4223    1.8719    0.4348 C.3     1  UNL1       -0.0293
     14 C           1.2995    3.0857    0.4509 C.3     1  UNL1       -0.0393
     15 C           1.0173    4.0239   -0.7096 C.3     1  UNL1       -0.0502
     16 C           1.8790    5.2699   -0.4848 C.3     1  UNL1       -0.0528
     17 C           1.3722    5.9810    0.7422 C.3     1  UNL1       -0.0530
     18 C           1.6799    5.0867    1.9266 C.3     1  UNL1       -0.0528
     19 C           0.9237    3.8153    1.7704 C.3     1  UNL1       -0.0502
     20 N          -0.5927    0.0236   -0.8553 N.am    1  UNL1       -0.3093
     21 C          -1.6884   -0.0743    0.0138 C.2     1  UNL1        0.2232
     22 O          -1.8176    0.6785    1.0020 O.2     1  UNL1       -0.2749
     23 C          -2.7292   -1.1241   -0.2706 C.3     1  UNL1        0.0703
     24 S          -3.8311   -1.4508    1.0665 S.3     1  UNL1       -0.1488
     25 C          -4.8307   -0.1170    1.6611 C.3     1  UNL1        0.0219
     26 C          -5.8443    0.4612    0.7491 C.3     1  UNL1        0.0829
     27 O          -6.5200    1.4814    1.4441 O.3     1  UNL1       -0.3891
     28 C          -6.7517   -0.4555    0.0292 C.3     1  UNL1        0.0568
     29 C          -7.4075    0.3224   -1.0852 C.3     1  UNL1       -0.0066
     30 C          -8.2016    1.4692   -0.7514 C.ar    1  UNL1       -0.0455
     31 C          -7.5821    2.7183   -0.7185 C.ar    1  UNL1       -0.0585
     32 C          -8.2949    3.8563   -0.3975 C.ar    1  UNL1       -0.0615
     33 C          -9.6395    3.8128   -0.0991 C.ar    1  UNL1       -0.0617
     34 C         -10.2666    2.5837   -0.1285 C.ar    1  UNL1       -0.0615
     35 C          -9.5409    1.4796   -0.4464 C.ar    1  UNL1       -0.0585
     36 N          -7.6952   -1.1887    0.8175 N.am    1  UNL1       -0.2755
     37 C          -7.8563   -2.5785    0.5628 C.2     1  UNL1        0.4011
     38 O          -7.1720   -3.1579   -0.3570 O.2     1  UNL1       -0.2265
     39 O          -8.7315   -3.3982    1.2591 O.3     1  UNL1       -0.4447
     40 C          -8.8337   -4.7925    0.9242 C.3     1  UNL1        0.1068
     41 C          -9.2765   -4.9500   -0.5189 C.3     1  UNL1       -0.0253
     42 C          -9.9146   -5.3902    1.7943 C.3     1  UNL1       -0.0253
     43 C          -7.5491   -5.5328    1.2036 C.3     1  UNL1       -0.0253
     44 C           7.6189   -0.4566   -0.7088 C.2     1  UNL1        0.2339
     45 O           8.5899   -1.1867   -0.9002 O.2     1  UNL1       -0.2738
     46 N           7.4800    0.2932    0.4615 N.am    1  UNL1       -0.3095
     47 C           8.3516    0.3770    1.5951 C.3     1  UNL1        0.0416
     48 C           8.5568   -0.8731    2.3321 C.ar    1  UNL1        0.0272
     49 C           7.5871   -1.1594    3.3210 C.ar    1  UNL1        0.0375
     50 N           7.6708   -2.3022    3.9859 N.ar    1  UNL1       -0.2401
     51 C           8.6474   -3.1864    3.7450 C.ar    1  UNL1        0.1280
     52 C           8.6819   -4.4588    4.5366 C.3     1  UNL1       -0.0046
     53 N           9.5695   -2.9207    2.8115 N.ar    1  UNL1       -0.2177
     54 C           9.5491   -1.7622    2.0847 C.ar    1  UNL1        0.1243
     55 N          10.6047   -1.5175    1.1674 N.pl3   1  UNL1       -0.3428
     56 H           4.9867   -1.2523   -5.3712 H       1  UNL1        0.0230
     57 H           6.6593   -1.8534   -5.2086 H       1  UNL1        0.0230
     58 H           5.4994   -1.9030   -3.7972 H       1  UNL1        0.0230
     59 H           5.3190    0.6414   -4.0386 H       1  UNL1        0.0266
     60 H           6.7521    0.6023   -5.0772 H       1  UNL1        0.0266
     61 H           7.4705    1.1530   -2.9477 H       1  UNL1        0.0321
     62 H           8.6294   -0.4543   -4.5411 H       1  UNL1        0.0233
     63 H           8.4412   -1.7389   -3.3247 H       1  UNL1        0.0233
     64 H           9.3541   -0.2831   -2.9253 H       1  UNL1        0.0233
     65 H           6.2181   -1.4173   -1.9457 H       1  UNL1        0.0597
     66 H           5.6110    1.4846   -1.1451 H       1  UNL1        0.1495
     67 H           3.2338    1.9204   -1.4605 H       1  UNL1        0.0384
     68 H           3.2361    1.0367    0.1620 H       1  UNL1        0.0384
     69 H           1.8086   -0.6953   -0.6777 H       1  UNL1        0.0616
     70 H           0.8505    0.4714   -2.9700 H       1  UNL1        0.2099
     71 H           0.1583    1.7305   -1.6306 H       1  UNL1        0.0524
     72 H          -0.6496    2.3154    0.3997 H       1  UNL1        0.0287
     73 H           0.4356    1.3672    1.4166 H       1  UNL1        0.0287
     74 H           2.3646    2.9583    0.5254 H       1  UNL1        0.0301
     75 H           1.4412    3.5579   -1.6316 H       1  UNL1        0.0268
     76 H          -0.0117    4.3594   -0.7815 H       1  UNL1        0.0268
     77 H           1.8664    5.9207   -1.3794 H       1  UNL1        0.0265
     78 H           2.9269    4.9400   -0.2355 H       1  UNL1        0.0265
     79 H           0.2774    6.1292    0.6094 H       1  UNL1        0.0265
     80 H           1.8344    6.9854    0.8587 H       1  UNL1        0.0265
     81 H           2.7772    4.9422    1.9673 H       1  UNL1        0.0265
     82 H           1.3008    5.5984    2.8215 H       1  UNL1        0.0265
     83 H          -0.1545    3.9981    1.8099 H       1  UNL1        0.0268
     84 H           1.2236    3.1127    2.5711 H       1  UNL1        0.0268
     85 H          -0.5618   -0.6946   -1.6555 H       1  UNL1        0.1491
     86 H          -3.2199   -0.7675   -1.2045 H       1  UNL1        0.0471
     87 H          -2.1808   -2.0465   -0.5401 H       1  UNL1        0.0471
     88 H          -4.1137    0.7451    1.8826 H       1  UNL1        0.0402
     89 H          -5.2252   -0.3475    2.6794 H       1  UNL1        0.0402
     90 H          -5.2708    1.0200   -0.0562 H       1  UNL1        0.0620
     91 H          -5.8875    2.1787    1.7543 H       1  UNL1        0.2099
     92 H          -6.1314   -1.2103   -0.5028 H       1  UNL1        0.0528
     93 H          -6.5778    0.6235   -1.7775 H       1  UNL1        0.0332
     94 H          -8.0353   -0.3811   -1.7020 H       1  UNL1        0.0332
     95 H          -6.5341    2.8567   -0.9388 H       1  UNL1        0.0620
     96 H          -7.8402    4.8378   -0.3624 H       1  UNL1        0.0618
     97 H         -10.2093    4.7134    0.1558 H       1  UNL1        0.0618
     98 H         -11.3233    2.5724    0.1070 H       1  UNL1        0.0618
     99 H         -10.0455    0.5281   -0.4682 H       1  UNL1        0.0620
    100 H          -8.2738   -0.7777    1.5634 H       1  UNL1        0.1524
    101 H          -8.5690   -5.6130   -1.0963 H       1  UNL1        0.0268
    102 H         -10.3024   -5.3686   -0.5987 H       1  UNL1        0.0268
    103 H          -9.2954   -3.9774   -1.0501 H       1  UNL1        0.0268
    104 H         -10.5091   -4.5741    2.2539 H       1  UNL1        0.0268
    105 H          -9.4358   -5.9428    2.6509 H       1  UNL1        0.0268
    106 H         -10.5856   -6.0607    1.2080 H       1  UNL1        0.0268
    107 H          -7.8158   -6.6165    1.3647 H       1  UNL1        0.0268
    108 H          -6.8234   -5.4256    0.3702 H       1  UNL1        0.0268
    109 H          -7.1346   -5.1665    2.1449 H       1  UNL1        0.0268
    110 H           6.5677    0.9008    0.5116 H       1  UNL1        0.1491
    111 H           7.9370    1.1190    2.3132 H       1  UNL1        0.0513
    112 H           9.3324    0.8306    1.2720 H       1  UNL1        0.0513
    113 H           6.7886   -0.4182    3.5099 H       1  UNL1        0.0834
    114 H           9.2559   -4.3176    5.4707 H       1  UNL1        0.0308
    115 H           9.1228   -5.2736    3.9030 H       1  UNL1        0.0308
    116 H           7.6547   -4.8019    4.8039 H       1  UNL1        0.0308
    117 H          11.0155   -2.2898    0.6353 H       1  UNL1        0.1437
    118 H          10.9471   -0.5498    1.0513 H       1  UNL1        0.1437
@<TRIPOS>BOND
     1     1     2    1
     2     2     3    1
     3     3     4    1
     4     3     5    1
     5     5     6    1
     6     6     7   am
     7     7     8    2
     8     7     9    1
     9     9    10    1
    10    10    11    1
    11    10    12    1
    12    12    13    1
    13    13    14    1
    14    14    15    1
    15    15    16    1
    16    16    17    1
    17    17    18    1
    18    18    19    1
    19    12    20    1
    20    20    21   am
    21    21    22    2
    22    21    23    1
    23    23    24    1
    24    24    25    1
    25    25    26    1
    26    26    27    1
    27    26    28    1
    28    28    29    1
    29    29    30    1
    30    30    31   ar
    31    31    32   ar
    32    32    33   ar
    33    33    34   ar
    34    34    35   ar
    35    28    36    1
    36    36    37   am
    37    37    38    2
    38    37    39    1
    39    39    40    1
    40    40    41    1
    41    40    42    1
    42    40    43    1
    43     5    44    1
    44    44    45    2
    45    44    46   am
    46    46    47    1
    47    47    48    1
    48    48    49   ar
    49    49    50   ar
    50    50    51   ar
    51    51    52    1
    52    51    53   ar
    53    53    54   ar
    54    54    55    1
    55    19    14    1
    56    35    30   ar
    57    54    48   ar
    58     1    56    1
    59     1    57    1
    60     1    58    1
    61     2    59    1
    62     2    60    1
    63     3    61    1
    64     4    62    1
    65     4    63    1
    66     4    64    1
    67     5    65    1
    68     6    66    1
    69     9    67    1
    70     9    68    1
    71    10    69    1
    72    11    70    1
    73    12    71    1
    74    13    72    1
    75    13    73    1
    76    14    74    1
    77    15    75    1
    78    15    76    1
    79    16    77    1
    80    16    78    1
    81    17    79    1
    82    17    80    1
    83    18    81    1
    84    18    82    1
    85    19    83    1
    86    19    84    1
    87    20    85    1
    88    23    86    1
    89    23    87    1
    90    25    88    1
    91    25    89    1
    92    26    90    1
    93    27    91    1
    94    28    92    1
    95    29    93    1
    96    29    94    1
    97    31    95    1
    98    32    96    1
    99    33    97    1
   100    34    98    1
   101    35    99    1
   102    36   100    1
   103    41   101    1
   104    41   102    1
   105    41   103    1
   106    42   104    1
   107    42   105    1
   108    42   106    1
   109    43   107    1
   110    43   108    1
   111    43   109    1
   112    46   110    1
   113    47   111    1
   114    47   112    1
   115    49   113    1
   116    52   114    1
   117    52   115    1
   118    52   116    1
   119    55   117    1
   120    55   118    1
