
     RDKit          3D

118120  0  0  0  0  0  0  0  0999 V2000
    5.8412   -1.3235   -4.6706 C   0  0  0  0  0  0  0  0  0  0  0  0
    6.2320    0.0567   -4.2380 C   0  0  0  0  0  0  0  0  0  0  0  0
    7.1961    0.0635   -3.0884 C   0  0  2  0  0  0  0  0  0  0  0  0
    8.4491   -0.6459   -3.4493 C   0  0  0  0  0  0  0  0  0  0  0  0
    6.5748   -0.3874   -1.7779 C   0  0  2  0  0  0  0  0  0  0  0  0
    5.4768    0.4808   -1.4058 N   0  0  0  0  0  0  0  0  0  0  0  0
    4.1271    0.0262   -1.3881 C   0  0  0  0  0  0  0  0  0  0  0  0
    3.7910   -1.1264   -1.6949 O   0  0  0  0  0  0  0  0  0  0  0  0
    3.0232    0.9828   -0.9746 C   0  0  0  0  0  0  0  0  0  0  0  0
    1.7184    0.3344   -1.1734 C   0  0  2  0  0  0  0  0  0  0  0  0
    1.5757   -0.0516   -2.5455 O   0  0  0  0  0  0  0  0  0  0  0  0
    0.4802    1.0009   -0.7598 C   0  0  2  0  0  0  0  0  0  0  0  0
    0.4223    1.8719    0.4348 C   0  0  0  0  0  0  0  0  0  0  0  0
    1.2995    3.0857    0.4509 C   0  0  0  0  0  0  0  0  0  0  0  0
    1.0173    4.0239   -0.7096 C   0  0  0  0  0  0  0  0  0  0  0  0
    1.8790    5.2699   -0.4848 C   0  0  0  0  0  0  0  0  0  0  0  0
    1.3722    5.9810    0.7422 C   0  0  0  0  0  0  0  0  0  0  0  0
    1.6799    5.0867    1.9266 C   0  0  0  0  0  0  0  0  0  0  0  0
    0.9237    3.8153    1.7704 C   0  0  0  0  0  0  0  0  0  0  0  0
   -0.5927    0.0236   -0.8553 N   0  0  0  0  0  0  0  0  0  0  0  0
   -1.6884   -0.0743    0.0138 C   0  0  0  0  0  0  0  0  0  0  0  0
   -1.8176    0.6785    1.0020 O   0  0  0  0  0  0  0  0  0  0  0  0
   -2.7292   -1.1241   -0.2706 C   0  0  0  0  0  0  0  0  0  0  0  0
   -3.8311   -1.4508    1.0665 S   0  0  0  0  0  0  0  0  0  0  0  0
   -4.8307   -0.1170    1.6611 C   0  0  0  0  0  0  0  0  0  0  0  0
   -5.8443    0.4612    0.7491 C   0  0  2  0  0  0  0  0  0  0  0  0
   -6.5200    1.4814    1.4441 O   0  0  0  0  0  0  0  0  0  0  0  0
   -6.7517   -0.4555    0.0292 C   0  0  2  0  0  0  0  0  0  0  0  0
   -7.4075    0.3224   -1.0852 C   0  0  0  0  0  0  0  0  0  0  0  0
   -8.2016    1.4692   -0.7514 C   0  0  0  0  0  0  0  0  0  0  0  0
   -7.5821    2.7183   -0.7185 C   0  0  0  0  0  0  0  0  0  0  0  0
   -8.2949    3.8563   -0.3975 C   0  0  0  0  0  0  0  0  0  0  0  0
   -9.6395    3.8128   -0.0991 C   0  0  0  0  0  0  0  0  0  0  0  0
  -10.2666    2.5837   -0.1285 C   0  0  0  0  0  0  0  0  0  0  0  0
   -9.5409    1.4796   -0.4464 C   0  0  0  0  0  0  0  0  0  0  0  0
   -7.6952   -1.1887    0.8175 N   0  0  0  0  0  0  0  0  0  0  0  0
   -7.8563   -2.5785    0.5628 C   0  0  0  0  0  0  0  0  0  0  0  0
   -7.1720   -3.1579   -0.3570 O   0  0  0  0  0  0  0  0  0  0  0  0
   -8.7315   -3.3982    1.2591 O   0  0  0  0  0  0  0  0  0  0  0  0
   -8.8337   -4.7925    0.9242 C   0  0  0  0  0  0  0  0  0  0  0  0
   -9.2765   -4.9500   -0.5189 C   0  0  0  0  0  0  0  0  0  0  0  0
   -9.9146   -5.3902    1.7943 C   0  0  0  0  0  0  0  0  0  0  0  0
   -7.5491   -5.5328    1.2036 C   0  0  0  0  0  0  0  0  0  0  0  0
    7.6189   -0.4566   -0.7088 C   0  0  0  0  0  0  0  0  0  0  0  0
    8.5899   -1.1867   -0.9002 O   0  0  0  0  0  0  0  0  0  0  0  0
    7.4800    0.2932    0.4615 N   0  0  0  0  0  0  0  0  0  0  0  0
    8.3516    0.3770    1.5951 C   0  0  0  0  0  0  0  0  0  0  0  0
    8.5568   -0.8731    2.3321 C   0  0  0  0  0  0  0  0  0  0  0  0
    7.5871   -1.1594    3.3210 C   0  0  0  0  0  0  0  0  0  0  0  0
    7.6708   -2.3022    3.9859 N   0  0  0  0  0  0  0  0  0  0  0  0
    8.6474   -3.1864    3.7450 C   0  0  0  0  0  0  0  0  0  0  0  0
    8.6819   -4.4588    4.5366 C   0  0  0  0  0  0  0  0  0  0  0  0
    9.5695   -2.9207    2.8115 N   0  0  0  0  0  0  0  0  0  0  0  0
    9.5491   -1.7622    2.0847 C   0  0  0  0  0  0  0  0  0  0  0  0
   10.6047   -1.5175    1.1674 N   0  0  0  0  0  0  0  0  0  0  0  0
    4.9867   -1.2523   -5.3712 H   0  0  0  0  0  0  0  0  0  0  0  0
    6.6593   -1.8534   -5.2086 H   0  0  0  0  0  0  0  0  0  0  0  0
    5.4994   -1.9030   -3.7972 H   0  0  0  0  0  0  0  0  0  0  0  0
    5.3190    0.6414   -4.0386 H   0  0  0  0  0  0  0  0  0  0  0  0
    6.7521    0.6023   -5.0772 H   0  0  0  0  0  0  0  0  0  0  0  0
    7.4705    1.1530   -2.9477 H   0  0  0  0  0  0  0  0  0  0  0  0
    8.6294   -0.4543   -4.5411 H   0  0  0  0  0  0  0  0  0  0  0  0
    8.4412   -1.7389   -3.3247 H   0  0  0  0  0  0  0  0  0  0  0  0
    9.3541   -0.2831   -2.9253 H   0  0  0  0  0  0  0  0  0  0  0  0
    6.2181   -1.4173   -1.9457 H   0  0  0  0  0  0  0  0  0  0  0  0
    5.6110    1.4846   -1.1451 H   0  0  0  0  0  0  0  0  0  0  0  0
    3.2338    1.9204   -1.4605 H   0  0  0  0  0  0  0  0  0  0  0  0
    3.2361    1.0367    0.1620 H   0  0  0  0  0  0  0  0  0  0  0  0
    1.8086   -0.6953   -0.6777 H   0  0  0  0  0  0  0  0  0  0  0  0
    0.8505    0.4714   -2.9700 H   0  0  0  0  0  0  0  0  0  0  0  0
    0.1583    1.7305   -1.6306 H   0  0  0  0  0  0  0  0  0  0  0  0
   -0.6496    2.3154    0.3997 H   0  0  0  0  0  0  0  0  0  0  0  0
    0.4356    1.3672    1.4166 H   0  0  0  0  0  0  0  0  0  0  0  0
    2.3646    2.9583    0.5254 H   0  0  0  0  0  0  0  0  0  0  0  0
    1.4412    3.5579   -1.6316 H   0  0  0  0  0  0  0  0  0  0  0  0
   -0.0117    4.3594   -0.7815 H   0  0  0  0  0  0  0  0  0  0  0  0
    1.8664    5.9207   -1.3794 H   0  0  0  0  0  0  0  0  0  0  0  0
    2.9269    4.9400   -0.2355 H   0  0  0  0  0  0  0  0  0  0  0  0
    0.2774    6.1292    0.6094 H   0  0  0  0  0  0  0  0  0  0  0  0
    1.8344    6.9854    0.8587 H   0  0  0  0  0  0  0  0  0  0  0  0
    2.7772    4.9422    1.9673 H   0  0  0  0  0  0  0  0  0  0  0  0
    1.3008    5.5984    2.8215 H   0  0  0  0  0  0  0  0  0  0  0  0
   -0.1545    3.9981    1.8099 H   0  0  0  0  0  0  0  0  0  0  0  0
    1.2236    3.1127    2.5711 H   0  0  0  0  0  0  0  0  0  0  0  0
   -0.5618   -0.6946   -1.6555 H   0  0  0  0  0  0  0  0  0  0  0  0
   -3.2199   -0.7675   -1.2045 H   0  0  0  0  0  0  0  0  0  0  0  0
   -2.1808   -2.0465   -0.5401 H   0  0  0  0  0  0  0  0  0  0  0  0
   -4.1137    0.7451    1.8826 H   0  0  0  0  0  0  0  0  0  0  0  0
   -5.2252   -0.3475    2.6794 H   0  0  0  0  0  0  0  0  0  0  0  0
   -5.2708    1.0200   -0.0562 H   0  0  0  0  0  0  0  0  0  0  0  0
   -5.8875    2.1787    1.7543 H   0  0  0  0  0  0  0  0  0  0  0  0
   -6.1314   -1.2103   -0.5028 H   0  0  0  0  0  0  0  0  0  0  0  0
   -6.5778    0.6235   -1.7775 H   0  0  0  0  0  0  0  0  0  0  0  0
   -8.0353   -0.3811   -1.7020 H   0  0  0  0  0  0  0  0  0  0  0  0
   -6.5341    2.8567   -0.9388 H   0  0  0  0  0  0  0  0  0  0  0  0
   -7.8402    4.8378   -0.3624 H   0  0  0  0  0  0  0  0  0  0  0  0
  -10.2093    4.7134    0.1558 H   0  0  0  0  0  0  0  0  0  0  0  0
  -11.3233    2.5724    0.1070 H   0  0  0  0  0  0  0  0  0  0  0  0
  -10.0455    0.5281   -0.4682 H   0  0  0  0  0  0  0  0  0  0  0  0
   -8.2738   -0.7777    1.5634 H   0  0  0  0  0  0  0  0  0  0  0  0
   -8.5690   -5.6130   -1.0963 H   0  0  0  0  0  0  0  0  0  0  0  0
  -10.3024   -5.3686   -0.5987 H   0  0  0  0  0  0  0  0  0  0  0  0
   -9.2954   -3.9774   -1.0501 H   0  0  0  0  0  0  0  0  0  0  0  0
  -10.5091   -4.5741    2.2539 H   0  0  0  0  0  0  0  0  0  0  0  0
   -9.4358   -5.9428    2.6509 H   0  0  0  0  0  0  0  0  0  0  0  0
  -10.5856   -6.0607    1.2080 H   0  0  0  0  0  0  0  0  0  0  0  0
   -7.8158   -6.6165    1.3647 H   0  0  0  0  0  0  0  0  0  0  0  0
   -6.8234   -5.4256    0.3702 H   0  0  0  0  0  0  0  0  0  0  0  0
   -7.1346   -5.1665    2.1449 H   0  0  0  0  0  0  0  0  0  0  0  0
    6.5677    0.9008    0.5116 H   0  0  0  0  0  0  0  0  0  0  0  0
    7.9370    1.1190    2.3132 H   0  0  0  0  0  0  0  0  0  0  0  0
    9.3324    0.8306    1.2720 H   0  0  0  0  0  0  0  0  0  0  0  0
    6.7886   -0.4182    3.5099 H   0  0  0  0  0  0  0  0  0  0  0  0
    9.2559   -4.3176    5.4707 H   0  0  0  0  0  0  0  0  0  0  0  0
    9.1228   -5.2736    3.9030 H   0  0  0  0  0  0  0  0  0  0  0  0
    7.6547   -4.8019    4.8039 H   0  0  0  0  0  0  0  0  0  0  0  0
   11.0155   -2.2898    0.6353 H   0  0  0  0  0  0  0  0  0  0  0  0
   10.9471   -0.5498    1.0513 H   0  0  0  0  0  0  0  0  0  0  0  0
  1  2  1  0
  2  3  1  0
  3  4  1  0
  3  5  1  0
  5  6  1  0
  6  7  1  0
  7  8  2  0
  7  9  1  0
  9 10  1  0
 10 11  1  0
 10 12  1  0
 12 13  1  0
 13 14  1  0
 14 15  1  0
 15 16  1  0
 16 17  1  0
 17 18  1  0
 18 19  1  0
 12 20  1  0
 20 21  1  0
 21 22  2  0
 21 23  1  0
 23 24  1  0
 24 25  1  0
 25 26  1  0
 26 27  1  0
 26 28  1  0
 28 29  1  0
 29 30  1  0
 30 31  2  0
 31 32  1  0
 32 33  2  0
 33 34  1  0
 34 35  2  0
 28 36  1  0
 36 37  1  0
 37 38  2  0
 37 39  1  0
 39 40  1  0
 40 41  1  0
 40 42  1  0
 40 43  1  0
  5 44  1  0
 44 45  2  0
 44 46  1  0
 46 47  1  0
 47 48  1  0
 48 49  2  0
 49 50  1  0
 50 51  2  0
 51 52  1  0
 51 53  1  0
 53 54  2  0
 54 55  1  0
 19 14  1  0
 35 30  1  0
 54 48  1  0
  1 56  1  0
  1 57  1  0
  1 58  1  0
  2 59  1  0
  2 60  1  0
  3 61  1  1
  4 62  1  0
  4 63  1  0
  4 64  1  0
  5 65  1  6
  6 66  1  0
  9 67  1  0
  9 68  1  0
 10 69  1  1
 11 70  1  0
 12 71  1  6
 13 72  1  0
 13 73  1  0
 14 74  1  0
 15 75  1  0
 15 76  1  0
 16 77  1  0
 16 78  1  0
 17 79  1  0
 17 80  1  0
 18 81  1  0
 18 82  1  0
 19 83  1  0
 19 84  1  0
 20 85  1  0
 23 86  1  0
 23 87  1  0
 25 88  1  0
 25 89  1  0
 26 90  1  6
 27 91  1  0
 28 92  1  6
 29 93  1  0
 29 94  1  0
 31 95  1  0
 32 96  1  0
 33 97  1  0
 34 98  1  0
 35 99  1  0
 36100  1  0
 41101  1  0
 41102  1  0
 41103  1  0
 42104  1  0
 42105  1  0
 42106  1  0
 43107  1  0
 43108  1  0
 43109  1  0
 46110  1  0
 47111  1  0
 47112  1  0
 49113  1  0
 52114  1  0
 52115  1  0
 52116  1  0
 55117  1  0
 55118  1  0
M  END
$$$$
