@<TRIPOS>MOLECULE
*****
 74 78 0 0 0
SMALL
GASTEIGER

@<TRIPOS>ATOM
      1 C          -9.8549    1.2295    0.7823 C.3     1  UNL1       -0.0394
      2 C          -8.7166    0.2858    0.7491 C.ar    1  UNL1       -0.0458
      3 C          -8.8245   -1.0119    1.1967 C.ar    1  UNL1       -0.0585
      4 C          -7.7496   -1.8490    1.1505 C.ar    1  UNL1       -0.0597
      5 C          -6.5433   -1.4346    0.6646 C.ar    1  UNL1       -0.0404
      6 C          -6.3891   -0.1330    0.2021 C.ar    1  UNL1        0.0330
      7 N          -5.1233    0.2819   -0.3033 N.pl3   1  UNL1       -0.3272
      8 C          -4.4341    1.3534    0.3402 C.3     1  UNL1        0.0250
      9 C          -2.9432    1.1258    0.4016 C.3     1  UNL1        0.0147
     10 N          -2.4823    0.0125   -0.3505 N.3     1  UNL1       -0.2993
     11 C          -1.7562   -0.9436    0.3128 C.3     1  UNL1        0.0004
     12 C          -1.3045   -2.1500   -0.4499 C.3     1  UNL1       -0.0245
     13 C          -0.5041   -3.0708    0.4485 C.3     1  UNL1        0.0131
     14 N           0.6652   -2.3391    0.9388 N.am    1  UNL1       -0.3100
     15 C           1.6636   -1.8092    0.0826 C.2     1  UNL1        0.2642
     16 O           1.5267   -1.9903   -1.1585 O.2     1  UNL1       -0.2685
     17 C           2.8297   -1.0686    0.5939 C.ar    1  UNL1        0.1466
     18 N           3.1554   -0.7704    1.8586 N.ar    1  UNL1       -0.2273
     19 C           4.3119   -0.0677    1.8881 C.ar    1  UNL1        0.1121
     20 C           5.0292    0.4630    3.0896 C.3     1  UNL1       -0.0059
     21 N           4.7186    0.0762    0.6133 N.ar    1  UNL1       -0.2999
     22 C           5.8938    0.7590    0.2121 C.ar    1  UNL1        0.0517
     23 C           5.9608    2.1216    0.3821 C.ar    1  UNL1       -0.0341
     24 C           7.1099    2.8161   -0.0118 C.ar    1  UNL1       -0.0143
     25 C           8.1869    2.1617   -0.5716 C.ar    1  UNL1        0.1622
     26 C           8.0977    0.7959   -0.7323 C.ar    1  UNL1        0.1640
     27 C           6.9552    0.0830   -0.3439 C.ar    1  UNL1        0.0076
     28 O           9.1782    0.1297   -1.2954 O.3     1  UNL1       -0.4849
     29 C          10.0241    0.8835   -2.1526 C.3     1  UNL1        0.1237
     30 C          10.4853    2.1114   -1.4105 C.3     1  UNL1        0.1237
     31 O           9.3435    2.8209   -0.9741 O.3     1  UNL1       -0.4849
     32 C           3.8225   -0.5310   -0.1924 C.ar    1  UNL1        0.0527
     33 C           3.8779   -0.6175   -1.6635 C.3     1  UNL1       -0.0216
     34 C          -3.1399   -0.1581   -1.5581 C.3     1  UNL1        0.0147
     35 C          -4.6272   -0.4356   -1.4575 C.3     1  UNL1        0.0250
     36 C          -7.4788    0.6954    0.2555 C.ar    1  UNL1       -0.0265
     37 C          -7.3595    2.0919   -0.2291 C.3     1  UNL1       -0.0377
     38 H          -9.6792    2.0828    1.4772 H       1  UNL1        0.0278
     39 H         -10.7381    0.6727    1.2086 H       1  UNL1        0.0278
     40 H         -10.1633    1.5430   -0.2270 H       1  UNL1        0.0278
     41 H          -9.7625   -1.3547    1.5815 H       1  UNL1        0.0620
     42 H          -7.8673   -2.8651    1.5110 H       1  UNL1        0.0618
     43 H          -5.7021   -2.0831    0.6272 H       1  UNL1        0.0636
     44 H          -4.8653    1.5205    1.3607 H       1  UNL1        0.0476
     45 H          -4.6230    2.2951   -0.2099 H       1  UNL1        0.0476
     46 H          -2.4466    2.0467   -0.0106 H       1  UNL1        0.0442
     47 H          -2.6483    1.0923    1.4766 H       1  UNL1        0.0442
     48 H          -2.2909   -1.3355    1.2285 H       1  UNL1        0.0427
     49 H          -0.8184   -0.4792    0.7444 H       1  UNL1        0.0427
     50 H          -0.7547   -1.9783   -1.3601 H       1  UNL1        0.0293
     51 H          -2.2117   -2.7650   -0.7404 H       1  UNL1        0.0293
     52 H          -0.1213   -3.9070   -0.1760 H       1  UNL1        0.0462
     53 H          -1.1071   -3.4183    1.2982 H       1  UNL1        0.0462
     54 H           0.7966   -2.1834    1.9720 H       1  UNL1        0.1490
     55 H           5.0270    1.5682    3.0535 H       1  UNL1        0.0308
     56 H           6.0601    0.0451    3.0702 H       1  UNL1        0.0308
     57 H           4.4783    0.0860    3.9814 H       1  UNL1        0.0308
     58 H           5.1569    2.6857    0.8106 H       1  UNL1        0.0639
     59 H           7.1983    3.8912    0.1079 H       1  UNL1        0.0656
     60 H           6.9039   -0.9973   -0.4794 H       1  UNL1        0.0676
     61 H          10.9168    0.3200   -2.4766 H       1  UNL1        0.0731
     62 H           9.4675    1.2315   -3.0634 H       1  UNL1        0.0731
     63 H          11.0903    2.7077   -2.1267 H       1  UNL1        0.0731
     64 H          11.1479    1.8290   -0.5744 H       1  UNL1        0.0731
     65 H           3.7202   -1.6761   -1.9480 H       1  UNL1        0.0293
     66 H           3.1106    0.0353   -2.1312 H       1  UNL1        0.0293
     67 H           4.8667   -0.2368   -2.0314 H       1  UNL1        0.0293
     68 H          -3.0647    0.8221   -2.1290 H       1  UNL1        0.0442
     69 H          -2.6605   -0.8884   -2.2713 H       1  UNL1        0.0442
     70 H          -5.0905   -0.0877   -2.4038 H       1  UNL1        0.0476
     71 H          -4.8791   -1.5057   -1.3504 H       1  UNL1        0.0476
     72 H          -8.3834    2.5040   -0.4672 H       1  UNL1        0.0278
     73 H          -6.8658    2.7168    0.5361 H       1  UNL1        0.0278
     74 H          -6.8021    2.1811   -1.1767 H       1  UNL1        0.0278
@<TRIPOS>BOND
     1     1     2    1
     2     2     3   ar
     3     3     4   ar
     4     4     5   ar
     5     5     6   ar
     6     6     7    1
     7     7     8    1
     8     8     9    1
     9     9    10    1
    10    10    11    1
    11    11    12    1
    12    12    13    1
    13    13    14    1
    14    14    15   am
    15    15    16    2
    16    15    17    1
    17    17    18   ar
    18    18    19   ar
    19    19    20    1
    20    19    21   ar
    21    21    22    1
    22    22    23   ar
    23    23    24   ar
    24    24    25   ar
    25    25    26   ar
    26    26    27   ar
    27    26    28    1
    28    28    29    1
    29    29    30    1
    30    30    31    1
    31    21    32   ar
    32    32    33    1
    33    10    34    1
    34    34    35    1
    35     6    36   ar
    36    36    37    1
    37    36     2   ar
    38    35     7    1
    39    32    17   ar
    40    27    22   ar
    41    31    25    1
    42     1    38    1
    43     1    39    1
    44     1    40    1
    45     3    41    1
    46     4    42    1
    47     5    43    1
    48     8    44    1
    49     8    45    1
    50     9    46    1
    51     9    47    1
    52    11    48    1
    53    11    49    1
    54    12    50    1
    55    12    51    1
    56    13    52    1
    57    13    53    1
    58    14    54    1
    59    20    55    1
    60    20    56    1
    61    20    57    1
    62    23    58    1
    63    24    59    1
    64    27    60    1
    65    29    61    1
    66    29    62    1
    67    30    63    1
    68    30    64    1
    69    33    65    1
    70    33    66    1
    71    33    67    1
    72    34    68    1
    73    34    69    1
    74    35    70    1
    75    35    71    1
    76    37    72    1
    77    37    73    1
    78    37    74    1
