@<TRIPOS>MOLECULE
*****
 56 59 0 0 0
SMALL
GASTEIGER

@<TRIPOS>ATOM
      1 C          -8.2121    0.1697    1.3780 C.3     1  UNL1       -0.0639
      2 C          -8.1216   -0.0318   -0.0913 C.3     1  UNL1       -0.0402
      3 C          -6.9870   -0.8176   -0.6394 C.3     1  UNL1        0.0116
      4 N          -5.7081   -0.2601   -0.3999 N.am    1  UNL1       -0.3113
      5 C          -5.0018   -0.0737    0.8055 C.2     1  UNL1        0.2459
      6 O          -5.5207   -0.4557    1.8743 O.2     1  UNL1       -0.2701
      7 C          -3.6648    0.5652    0.8075 C.ar    1  UNL1        0.0598
      8 C          -3.2436    1.7604    1.2713 C.ar    1  UNL1        0.0423
      9 N          -1.9285    1.9386    1.0547 N.ar    1  UNL1       -0.2342
     10 N          -1.1762    2.9701    1.3748 N.ar    1  UNL1       -0.1548
     11 C           0.1298    2.9327    1.0676 C.ar    1  UNL1        0.1388
     12 N           0.6014    1.8585    0.4551 N.ar    1  UNL1       -0.2167
     13 C          -0.1218    0.7995    0.1148 C.ar    1  UNL1        0.1506
     14 N           0.4601   -0.2931   -0.5342 N.pl3   1  UNL1       -0.2975
     15 C           1.8548   -0.5724   -0.6790 C.ar    1  UNL1        0.0361
     16 C           2.8356    0.2194   -0.1461 C.ar    1  UNL1       -0.0281
     17 C           4.1971   -0.0667   -0.3146 C.ar    1  UNL1        0.0385
     18 C           5.2148    0.7887    0.2561 C.2     1  UNL1        0.2443
     19 O           4.8500    1.7824    0.9301 O.2     1  UNL1       -0.2702
     20 N           6.6000    0.5738    0.1003 N.am    1  UNL1       -0.3085
     21 C           7.5937    1.4705    0.6974 C.3     1  UNL1        0.0235
     22 C           8.8228    0.7680    1.2053 C.3     1  UNL1       -0.0328
     23 C           8.8675    1.7049   -0.0385 C.3     1  UNL1       -0.0328
     24 C           4.5087   -1.1840   -1.0416 C.ar    1  UNL1       -0.0493
     25 C           3.5155   -2.0019   -1.5914 C.ar    1  UNL1       -0.0564
     26 C           2.1842   -1.7157   -1.4229 C.ar    1  UNL1       -0.0292
     27 C           1.1168   -2.5872   -2.0072 C.3     1  UNL1       -0.0380
     28 C          -1.4814    0.8162    0.4262 C.ar    1  UNL1        0.1090
     29 C          -2.5273   -0.0536    0.2590 C.ar    1  UNL1       -0.0081
     30 C          -2.4813   -1.3892   -0.3505 C.3     1  UNL1       -0.0368
     31 H          -9.2998    0.5080    1.5595 H       1  UNL1        0.0230
     32 H          -8.1089   -0.7260    1.9873 H       1  UNL1        0.0230
     33 H          -7.6385    1.0499    1.7390 H       1  UNL1        0.0230
     34 H          -8.1396    1.0000   -0.5946 H       1  UNL1        0.0278
     35 H          -9.1144   -0.4785   -0.4256 H       1  UNL1        0.0278
     36 H          -7.1867   -0.9202   -1.7490 H       1  UNL1        0.0462
     37 H          -7.0514   -1.8899   -0.2659 H       1  UNL1        0.0462
     38 H          -5.1871    0.0779   -1.2743 H       1  UNL1        0.1490
     39 H          -3.9127    2.4833    1.7626 H       1  UNL1        0.0838
     40 H           0.8017    3.7457    1.3032 H       1  UNL1        0.1066
     41 H          -0.2055   -0.9671   -0.9872 H       1  UNL1        0.1536
     42 H           2.6298    1.1010    0.4386 H       1  UNL1        0.0644
     43 H           6.9108   -0.2504   -0.4580 H       1  UNL1        0.1493
     44 H           7.2525    2.3214    1.3089 H       1  UNL1        0.0498
     45 H           9.3570    1.1239    2.0957 H       1  UNL1        0.0284
     46 H           8.9712   -0.3086    0.9984 H       1  UNL1        0.0284
     47 H           9.0432    1.1929   -0.9984 H       1  UNL1        0.0284
     48 H           9.4185    2.6314    0.1146 H       1  UNL1        0.0284
     49 H           5.5310   -1.4543   -1.2042 H       1  UNL1        0.0625
     50 H           3.7841   -2.8881   -2.1681 H       1  UNL1        0.0621
     51 H           1.6281   -3.4577   -2.4730 H       1  UNL1        0.0278
     52 H           0.3884   -2.8989   -1.2297 H       1  UNL1        0.0278
     53 H           0.5712   -2.0707   -2.8278 H       1  UNL1        0.0278
     54 H          -1.7715   -2.0924    0.1191 H       1  UNL1        0.0278
     55 H          -3.4862   -1.9144   -0.1571 H       1  UNL1        0.0278
     56 H          -2.3617   -1.4026   -1.4352 H       1  UNL1        0.0278
@<TRIPOS>BOND
     1     1     2    1
     2     2     3    1
     3     3     4    1
     4     4     5   am
     5     5     6    2
     6     5     7    1
     7     7     8   ar
     8     8     9   ar
     9     9    10   ar
    10    10    11   ar
    11    11    12   ar
    12    12    13   ar
    13    13    14    1
    14    14    15    1
    15    15    16   ar
    16    16    17   ar
    17    17    18    1
    18    18    19    2
    19    18    20   am
    20    20    21    1
    21    21    22    1
    22    22    23    1
    23    17    24   ar
    24    24    25   ar
    25    25    26   ar
    26    26    27    1
    27    13    28   ar
    28    28    29   ar
    29    29    30    1
    30    29     7   ar
    31    28     9   ar
    32    26    15   ar
    33    23    21    1
    34     1    31    1
    35     1    32    1
    36     1    33    1
    37     2    34    1
    38     2    35    1
    39     3    36    1
    40     3    37    1
    41     4    38    1
    42     8    39    1
    43    11    40    1
    44    14    41    1
    45    16    42    1
    46    20    43    1
    47    21    44    1
    48    22    45    1
    49    22    46    1
    50    23    47    1
    51    23    48    1
    52    24    49    1
    53    25    50    1
    54    27    51    1
    55    27    52    1
    56    27    53    1
    57    30    54    1
    58    30    55    1
    59    30    56    1
