
     RDKit          3D

 65 68  0  0  0  0  0  0  0  0999 V2000
   -6.3905    3.5011    2.1704 C   0  0  0  0  0  0  0  0  0  0  0  0
   -5.8400    4.1314    0.9140 C   0  0  0  0  0  0  0  0  0  0  0  0
   -5.6524    3.1221   -0.1364 N   0  0  0  0  0  0  0  0  0  0  0  0
   -4.7510    2.0552    0.1876 C   0  0  0  0  0  0  0  0  0  0  0  0
   -4.2915    2.2124    1.3478 O   0  0  0  0  0  0  0  0  0  0  0  0
   -4.5850    1.0495   -0.9015 C   0  0  1  0  0  0  0  0  0  0  0  0
   -3.6999    0.0274   -0.5476 O   0  0  0  0  0  0  0  0  0  0  0  0
   -3.9794   -0.9104   -1.5129 C   0  0  2  0  0  0  0  0  0  0  0  0
   -5.4887   -1.0542   -1.4068 C   0  0  2  0  0  0  0  0  0  0  0  0
   -6.0354   -1.5472   -2.5891 O   0  0  0  0  0  0  0  0  0  0  0  0
   -5.9223    0.3610   -1.1290 C   0  0  2  0  0  0  0  0  0  0  0  0
   -6.5899    0.8905   -2.2357 O   0  0  0  0  0  0  0  0  0  0  0  0
   -3.4201   -2.2201   -1.2274 N   0  0  0  0  0  0  0  0  0  0  0  0
   -4.0291   -3.4052   -1.5220 C   0  0  0  0  0  0  0  0  0  0  0  0
   -3.2146   -4.3951   -1.1120 N   0  0  0  0  0  0  0  0  0  0  0  0
   -2.1161   -3.8442   -0.5709 C   0  0  0  0  0  0  0  0  0  0  0  0
   -2.2337   -2.4575   -0.6378 C   0  0  0  0  0  0  0  0  0  0  0  0
   -1.2334   -1.6780   -0.1467 N   0  0  0  0  0  0  0  0  0  0  0  0
   -0.1623   -2.3116    0.3882 C   0  0  0  0  0  0  0  0  0  0  0  0
   -0.0522   -3.6634    0.4512 N   0  0  0  0  0  0  0  0  0  0  0  0
   -1.0089   -4.4827   -0.0180 C   0  0  0  0  0  0  0  0  0  0  0  0
   -0.9057   -5.8827    0.0419 N   0  0  0  0  0  0  0  0  0  0  0  0
    0.9538   -1.5696    0.9370 C   0  0  0  0  0  0  0  0  0  0  0  0
    1.8851   -0.9536    1.4168 C   0  0  0  0  0  0  0  0  0  0  0  0
    3.0028   -0.2237    2.0169 C   0  0  0  0  0  0  0  0  0  0  0  0
    4.3168   -0.6323    1.3358 C   0  0  1  0  0  0  0  0  0  0  0  0
    4.2350   -0.3101   -0.1115 C   0  0  0  0  0  0  0  0  0  0  0  0
    5.5279   -0.0157   -0.7932 C   0  0  0  0  0  0  0  0  0  0  0  0
    6.1732    1.1140    0.0203 C   0  0  1  0  0  0  0  0  0  0  0  0
    6.5877    0.4964    1.3142 C   0  0  0  0  0  0  0  0  0  0  0  0
    5.5049   -0.1608    2.0755 C   0  0  0  0  0  0  0  0  0  0  0  0
    7.3432    1.5529   -0.7742 C   0  0  0  0  0  0  0  0  0  0  0  0
    7.8596    1.2169   -1.8717 O   0  0  0  0  0  0  0  0  0  0  0  0
    8.0780    2.5901   -0.1990 O   0  0  0  0  0  0  0  0  0  0  0  0
    9.2151    3.0715   -0.8936 C   0  0  0  0  0  0  0  0  0  0  0  0
   -6.5270    2.4059    2.0768 H   0  0  0  0  0  0  0  0  0  0  0  0
   -5.7296    3.7112    3.0548 H   0  0  0  0  0  0  0  0  0  0  0  0
   -7.3818    3.9390    2.4323 H   0  0  0  0  0  0  0  0  0  0  0  0
   -4.8490    4.5664    1.1375 H   0  0  0  0  0  0  0  0  0  0  0  0
   -6.5602    4.8664    0.5376 H   0  0  0  0  0  0  0  0  0  0  0  0
   -6.1545    3.1914   -1.0619 H   0  0  0  0  0  0  0  0  0  0  0  0
   -4.2860    1.5116   -1.8445 H   0  0  0  0  0  0  0  0  0  0  0  0
   -3.7738   -0.5749   -2.5435 H   0  0  0  0  0  0  0  0  0  0  0  0
   -5.7429   -1.6881   -0.5378 H   0  0  0  0  0  0  0  0  0  0  0  0
   -6.8802   -2.0284   -2.4177 H   0  0  0  0  0  0  0  0  0  0  0  0
   -6.5615    0.4157   -0.2213 H   0  0  0  0  0  0  0  0  0  0  0  0
   -6.3287    0.3349   -3.0133 H   0  0  0  0  0  0  0  0  0  0  0  0
   -4.9906   -3.5636   -1.9977 H   0  0  0  0  0  0  0  0  0  0  0  0
   -1.7807   -6.4367   -0.0343 H   0  0  0  0  0  0  0  0  0  0  0  0
    0.0253   -6.3371    0.1593 H   0  0  0  0  0  0  0  0  0  0  0  0
    3.0422   -0.4582    3.0898 H   0  0  0  0  0  0  0  0  0  0  0  0
    2.8141    0.8638    1.8535 H   0  0  0  0  0  0  0  0  0  0  0  0
    4.2897   -1.7591    1.4020 H   0  0  0  0  0  0  0  0  0  0  0  0
    3.7231   -1.1175   -0.7103 H   0  0  0  0  0  0  0  0  0  0  0  0
    3.5785    0.5842   -0.2810 H   0  0  0  0  0  0  0  0  0  0  0  0
    6.2293   -0.8655   -0.8419 H   0  0  0  0  0  0  0  0  0  0  0  0
    5.3042    0.4165   -1.7847 H   0  0  0  0  0  0  0  0  0  0  0  0
    5.4356    1.9177    0.1750 H   0  0  0  0  0  0  0  0  0  0  0  0
    7.3722   -0.2605    1.0909 H   0  0  0  0  0  0  0  0  0  0  0  0
    7.1129    1.2996    1.8986 H   0  0  0  0  0  0  0  0  0  0  0  0
    5.9087   -0.9737    2.7462 H   0  0  0  0  0  0  0  0  0  0  0  0
    5.1346    0.6026    2.8237 H   0  0  0  0  0  0  0  0  0  0  0  0
    9.6844    2.2994   -1.5176 H   0  0  0  0  0  0  0  0  0  0  0  0
    9.9038    3.5338   -0.1530 H   0  0  0  0  0  0  0  0  0  0  0  0
    8.9065    3.9285   -1.5556 H   0  0  0  0  0  0  0  0  0  0  0  0
  1  2  1  0
  2  3  1  0
  3  4  1  0
  4  5  2  0
  4  6  1  0
  6  7  1  0
  7  8  1  0
  8  9  1  0
  9 10  1  0
  9 11  1  0
 11 12  1  0
  8 13  1  0
 13 14  1  0
 14 15  2  0
 15 16  1  0
 16 17  2  0
 17 18  1  0
 18 19  2  0
 19 20  1  0
 20 21  2  0
 21 22  1  0
 19 23  1  0
 23 24  3  0
 24 25  1  0
 25 26  1  0
 26 27  1  0
 27 28  1  0
 28 29  1  0
 29 30  1  0
 30 31  1  0
 29 32  1  0
 32 33  2  0
 32 34  1  0
 34 35  1  0
 11  6  1  0
 17 13  1  0
 31 26  1  0
 21 16  1  0
  1 36  1  0
  1 37  1  0
  1 38  1  0
  2 39  1  0
  2 40  1  0
  3 41  1  0
  6 42  1  6
  8 43  1  6
  9 44  1  1
 10 45  1  0
 11 46  1  1
 12 47  1  0
 14 48  1  0
 22 49  1  0
 22 50  1  0
 25 51  1  0
 25 52  1  0
 26 53  1  6
 27 54  1  0
 27 55  1  0
 28 56  1  0
 28 57  1  0
 29 58  1  1
 30 59  1  0
 30 60  1  0
 31 61  1  0
 31 62  1  0
 35 63  1  0
 35 64  1  0
 35 65  1  0
M  END
$$$$
