@<TRIPOS>MOLECULE
*****
 65 68 0 0 0
SMALL
GASTEIGER

@<TRIPOS>ATOM
      1 C          -6.3905    3.5011    2.1704 C.3     1  UNL1       -0.0495
      2 C          -5.8400    4.1314    0.9140 C.3     1  UNL1        0.0088
      3 N          -5.6524    3.1221   -0.1364 N.am    1  UNL1       -0.3134
      4 C          -4.7510    2.0552    0.1876 C.2     1  UNL1        0.2447
      5 O          -4.2915    2.2124    1.3478 O.2     1  UNL1       -0.2729
      6 C          -4.5850    1.0495   -0.9015 C.3     1  UNL1        0.1650
      7 O          -3.6999    0.0274   -0.5476 O.3     1  UNL1       -0.3387
      8 C          -3.9794   -0.9104   -1.5129 C.3     1  UNL1        0.1672
      9 C          -5.4887   -1.0542   -1.4068 C.3     1  UNL1        0.1290
     10 O          -6.0354   -1.5472   -2.5891 O.3     1  UNL1       -0.3846
     11 C          -5.9223    0.3610   -1.1290 C.3     1  UNL1        0.1199
     12 O          -6.5899    0.8905   -2.2357 O.3     1  UNL1       -0.3860
     13 N          -3.4201   -2.2201   -1.2274 N.ar    1  UNL1       -0.2855
     14 C          -4.0291   -3.4052   -1.5220 C.ar    1  UNL1        0.1004
     15 N          -3.2146   -4.3951   -1.1120 N.ar    1  UNL1       -0.2306
     16 C          -2.1161   -3.8442   -0.5709 C.ar    1  UNL1        0.1474
     17 C          -2.2337   -2.4575   -0.6378 C.ar    1  UNL1        0.1687
     18 N          -1.2334   -1.6780   -0.1467 N.ar    1  UNL1       -0.2003
     19 C          -0.1623   -2.3116    0.3882 C.ar    1  UNL1        0.2090
     20 N          -0.0522   -3.6634    0.4512 N.ar    1  UNL1       -0.2033
     21 C          -1.0089   -4.4827   -0.0180 C.ar    1  UNL1        0.1484
     22 N          -0.9057   -5.8827    0.0419 N.pl3   1  UNL1       -0.3413
     23 C           0.9538   -1.5696    0.9370 C.1     1  UNL1       -0.0263
     24 C           1.8851   -0.9536    1.4168 C.1     1  UNL1       -0.0937
     25 C           3.0028   -0.2237    2.0169 C.3     1  UNL1        0.0124
     26 C           4.3168   -0.6323    1.3358 C.3     1  UNL1       -0.0301
     27 C           4.2350   -0.3101   -0.1115 C.3     1  UNL1       -0.0486
     28 C           5.5279   -0.0157   -0.7932 C.3     1  UNL1       -0.0398
     29 C           6.1732    1.1140    0.0203 C.3     1  UNL1        0.0565
     30 C           6.5877    0.4964    1.3142 C.3     1  UNL1       -0.0398
     31 C           5.5049   -0.1608    2.0755 C.3     1  UNL1       -0.0486
     32 C           7.3432    1.5529   -0.7742 C.2     1  UNL1        0.3099
     33 O           7.8596    1.2169   -1.8717 O.2     1  UNL1       -0.2505
     34 O           8.0780    2.5901   -0.1990 O.3     1  UNL1       -0.4677
     35 C           9.2151    3.0715   -0.8936 C.3     1  UNL1        0.0817
     36 H          -6.5270    2.4059    2.0768 H       1  UNL1        0.0245
     37 H          -5.7296    3.7112    3.0548 H       1  UNL1        0.0245
     38 H          -7.3818    3.9390    2.4323 H       1  UNL1        0.0245
     39 H          -4.8490    4.5664    1.1375 H       1  UNL1        0.0459
     40 H          -6.5602    4.8664    0.5376 H       1  UNL1        0.0459
     41 H          -6.1545    3.1914   -1.0619 H       1  UNL1        0.1487
     42 H          -4.2860    1.5116   -1.8445 H       1  UNL1        0.0721
     43 H          -3.7738   -0.5749   -2.5435 H       1  UNL1        0.0867
     44 H          -5.7429   -1.6881   -0.5378 H       1  UNL1        0.0666
     45 H          -6.8802   -2.0284   -2.4177 H       1  UNL1        0.2101
     46 H          -6.5615    0.4157   -0.2213 H       1  UNL1        0.0652
     47 H          -6.3287    0.3349   -3.0133 H       1  UNL1        0.2100
     48 H          -4.9906   -3.5636   -1.9977 H       1  UNL1        0.1030
     49 H          -1.7807   -6.4367   -0.0343 H       1  UNL1        0.1438
     50 H           0.0253   -6.3371    0.1593 H       1  UNL1        0.1438
     51 H           3.0422   -0.4582    3.0898 H       1  UNL1        0.0400
     52 H           2.8141    0.8638    1.8535 H       1  UNL1        0.0400
     53 H           4.2897   -1.7591    1.4020 H       1  UNL1        0.0310
     54 H           3.7231   -1.1175   -0.7103 H       1  UNL1        0.0268
     55 H           3.5785    0.5842   -0.2810 H       1  UNL1        0.0268
     56 H           6.2293   -0.8655   -0.8419 H       1  UNL1        0.0273
     57 H           5.3042    0.4165   -1.7847 H       1  UNL1        0.0273
     58 H           5.4356    1.9177    0.1750 H       1  UNL1        0.0413
     59 H           7.3722   -0.2605    1.0909 H       1  UNL1        0.0273
     60 H           7.1129    1.2996    1.8986 H       1  UNL1        0.0273
     61 H           5.9087   -0.9737    2.7462 H       1  UNL1        0.0268
     62 H           5.1346    0.6026    2.8237 H       1  UNL1        0.0268
     63 H           9.6844    2.2994   -1.5176 H       1  UNL1        0.0661
     64 H           9.9038    3.5338   -0.1530 H       1  UNL1        0.0661
     65 H           8.9065    3.9285   -1.5556 H       1  UNL1        0.0661
@<TRIPOS>BOND
     1     1     2    1
     2     2     3    1
     3     3     4   am
     4     4     5    2
     5     4     6    1
     6     6     7    1
     7     7     8    1
     8     8     9    1
     9     9    10    1
    10     9    11    1
    11    11    12    1
    12     8    13    1
    13    13    14   ar
    14    14    15   ar
    15    15    16   ar
    16    16    17   ar
    17    17    18   ar
    18    18    19   ar
    19    19    20   ar
    20    20    21   ar
    21    21    22    1
    22    19    23    1
    23    23    24    3
    24    24    25    1
    25    25    26    1
    26    26    27    1
    27    27    28    1
    28    28    29    1
    29    29    30    1
    30    30    31    1
    31    29    32    1
    32    32    33    2
    33    32    34    1
    34    34    35    1
    35    11     6    1
    36    17    13   ar
    37    31    26    1
    38    21    16   ar
    39     1    36    1
    40     1    37    1
    41     1    38    1
    42     2    39    1
    43     2    40    1
    44     3    41    1
    45     6    42    1
    46     8    43    1
    47     9    44    1
    48    10    45    1
    49    11    46    1
    50    12    47    1
    51    14    48    1
    52    22    49    1
    53    22    50    1
    54    25    51    1
    55    25    52    1
    56    26    53    1
    57    27    54    1
    58    27    55    1
    59    28    56    1
    60    28    57    1
    61    29    58    1
    62    30    59    1
    63    30    60    1
    64    31    61    1
    65    31    62    1
    66    35    63    1
    67    35    64    1
    68    35    65    1
