
     RDKit          3D

 46 49  0  0  0  0  0  0  0  0999 V2000
   -5.6758   -1.2046   -0.3560 N   0  0  0  0  0  0  0  0  0  0  0  0
   -4.4726   -1.1420   -1.1726 C   0  0  0  0  0  0  0  0  0  0  0  0
   -3.3516   -1.9253   -0.5703 C   0  0  0  0  0  0  0  0  0  0  0  0
   -2.4966   -1.0477    0.3167 C   0  0  0  0  0  0  0  0  0  0  0  0
   -3.3699   -0.0403    1.0341 C   0  0  0  0  0  0  0  0  0  0  0  0
   -2.6250    0.6298    2.0785 N   0  0  0  0  0  0  0  0  0  0  0  0
   -1.4840    1.3418    1.5896 C   0  0  1  0  0  0  0  0  0  0  0  0
   -0.6883    2.0531    2.6600 C   0  0  0  0  0  0  0  0  0  0  0  0
   -0.1442    0.7946    2.0178 C   0  0  2  0  0  0  0  0  0  0  0  0
    1.0282    1.0037    1.1707 C   0  0  0  0  0  0  0  0  0  0  0  0
    1.5124    1.9356    0.3473 C   0  0  0  0  0  0  0  0  0  0  0  0
    2.6642    1.6954   -0.2406 N   0  0  0  0  0  0  0  0  0  0  0  0
    3.3478    0.7879   -0.1628 C   0  0  0  0  0  0  0  0  0  0  0  0
    4.6447    0.1865   -0.6402 C   0  0  0  0  0  0  0  0  0  0  0  0
    5.4081    0.9166   -1.5258 C   0  0  0  0  0  0  0  0  0  0  0  0
    6.6017    0.4711   -2.0254 C   0  0  0  0  0  0  0  0  0  0  0  0
    7.0316   -0.7791   -1.5976 C   0  0  0  0  0  0  0  0  0  0  0  0
    6.2698   -1.5127   -0.7110 C   0  0  0  0  0  0  0  0  0  0  0  0
    6.7637   -2.7659   -0.3217 O   0  0  0  0  0  0  0  0  0  0  0  0
    5.0686   -1.0321   -0.2262 C   0  0  0  0  0  0  0  0  0  0  0  0
    2.3679   -0.2761    1.0449 S   0  0  0  0  0  0  0  0  0  0  0  0
   -4.0749    0.8968    0.1121 C   0  0  0  0  0  0  0  0  0  0  0  0
   -4.0696    0.3017   -1.2812 C   0  0  0  0  0  0  0  0  0  0  0  0
   -6.1145   -2.1466   -0.5097 H   0  0  0  0  0  0  0  0  0  0  0  0
   -6.3600   -0.5106   -0.7324 H   0  0  0  0  0  0  0  0  0  0  0  0
   -4.7542   -1.5762   -2.1608 H   0  0  0  0  0  0  0  0  0  0  0  0
   -2.6915   -2.2643   -1.4029 H   0  0  0  0  0  0  0  0  0  0  0  0
   -3.6929   -2.8367   -0.0463 H   0  0  0  0  0  0  0  0  0  0  0  0
   -2.0796   -1.7146    1.1118 H   0  0  0  0  0  0  0  0  0  0  0  0
   -1.6835   -0.5639   -0.2543 H   0  0  0  0  0  0  0  0  0  0  0  0
   -4.1630   -0.6422    1.5634 H   0  0  0  0  0  0  0  0  0  0  0  0
   -2.3685   -0.1216    2.7742 H   0  0  0  0  0  0  0  0  0  0  0  0
   -1.4754    1.7495    0.5606 H   0  0  0  0  0  0  0  0  0  0  0  0
   -0.9855    1.9644    3.7040 H   0  0  0  0  0  0  0  0  0  0  0  0
   -0.2076    3.0250    2.4129 H   0  0  0  0  0  0  0  0  0  0  0  0
   -0.1577   -0.1469    2.6086 H   0  0  0  0  0  0  0  0  0  0  0  0
    0.9627    2.8895    0.1597 H   0  0  0  0  0  0  0  0  0  0  0  0
    5.0672    1.9081   -1.8651 H   0  0  0  0  0  0  0  0  0  0  0  0
    7.1615    1.0775   -2.7144 H   0  0  0  0  0  0  0  0  0  0  0  0
    7.9878   -1.1688   -1.9795 H   0  0  0  0  0  0  0  0  0  0  0  0
    7.6042   -2.7537    0.2544 H   0  0  0  0  0  0  0  0  0  0  0  0
    4.5105   -1.6609    0.4741 H   0  0  0  0  0  0  0  0  0  0  0  0
   -5.1652    1.0051    0.3861 H   0  0  0  0  0  0  0  0  0  0  0  0
   -3.6772    1.9304    0.1213 H   0  0  0  0  0  0  0  0  0  0  0  0
   -3.1155    0.4525   -1.8019 H   0  0  0  0  0  0  0  0  0  0  0  0
   -4.8585    0.8161   -1.8819 H   0  0  0  0  0  0  0  0  0  0  0  0
  1  2  1  0
  2  3  1  0
  3  4  1  0
  4  5  1  0
  5  6  1  0
  6  7  1  0
  7  8  1  0
  8  9  1  0
  9 10  1  0
 10 11  2  0
 11 12  1  0
 12 13  2  0
 13 14  1  0
 14 15  2  0
 15 16  1  0
 16 17  2  0
 17 18  1  0
 18 19  1  0
 18 20  2  0
 13 21  1  0
  5 22  1  0
 22 23  1  0
 23  2  1  0
  9  7  1  0
 21 10  1  0
 20 14  1  0
  1 24  1  0
  1 25  1  0
  2 26  1  0
  3 27  1  0
  3 28  1  0
  4 29  1  0
  4 30  1  0
  5 31  1  0
  6 32  1  0
  7 33  1  6
  8 34  1  0
  8 35  1  0
  9 36  1  1
 11 37  1  0
 15 38  1  0
 16 39  1  0
 17 40  1  0
 19 41  1  0
 20 42  1  0
 22 43  1  0
 22 44  1  0
 23 45  1  0
 23 46  1  0
M  END
$$$$
