
     RDKit          3D

 36 38  0  0  0  0  0  0  0  0999 V2000
    0.9658   -4.4802    0.0852 C   0  0  0  0  0  0  0  0  0  0  0  0
    1.1249   -3.0014    0.0016 C   0  0  0  0  0  0  0  0  0  0  0  0
    2.3868   -2.4028   -0.0696 C   0  0  0  0  0  0  0  0  0  0  0  0
    2.5167   -1.0320   -0.1465 C   0  0  0  0  0  0  0  0  0  0  0  0
    3.7773   -0.4646   -0.2160 O   0  0  0  0  0  0  0  0  0  0  0  0
    4.0149    0.8830   -0.2951 C   0  0  0  0  0  0  0  0  0  0  0  0
    4.0994    1.5076   -1.5080 C   0  0  0  0  0  0  0  0  0  0  0  0
    4.3302    2.8163   -1.5790 N   0  0  0  0  0  0  0  0  0  0  0  0
    4.4790    3.5149   -0.4439 C   0  0  0  0  0  0  0  0  0  0  0  0
    4.4038    2.9431    0.7669 N   0  0  0  0  0  0  0  0  0  0  0  0
    4.1698    1.6150    0.8486 C   0  0  0  0  0  0  0  0  0  0  0  0
    1.3671   -0.2696   -0.1511 C   0  0  0  0  0  0  0  0  0  0  0  0
    0.1210   -0.8555   -0.0810 C   0  0  0  0  0  0  0  0  0  0  0  0
   -1.0779   -0.0266   -0.0876 C   0  0  0  0  0  0  0  0  0  0  0  0
   -0.9711    1.2245   -0.1574 O   0  0  0  0  0  0  0  0  0  0  0  0
   -2.3840   -0.5606   -0.0184 N   0  0  0  0  0  0  0  0  0  0  0  0
   -3.5176    0.3141   -0.0294 C   0  0  0  0  0  0  0  0  0  0  0  0
   -4.8029   -0.1779    0.0369 C   0  0  0  0  0  0  0  0  0  0  0  0
   -5.9214    0.6256    0.0292 C   0  0  0  0  0  0  0  0  0  0  0  0
   -5.7462    1.9886   -0.0487 C   0  0  0  0  0  0  0  0  0  0  0  0
   -7.1501    3.0615   -0.0619 Cl  0  0  0  0  0  0  0  0  0  0  0  0
   -4.4596    2.4646   -0.1143 C   0  0  0  0  0  0  0  0  0  0  0  0
   -3.3825    1.6483   -0.1046 N   0  0  0  0  0  0  0  0  0  0  0  0
    0.0422   -2.1952   -0.0074 N   0  0  0  0  0  0  0  0  0  0  0  0
    1.9665   -4.9087    0.2311 H   0  0  0  0  0  0  0  0  0  0  0  0
    0.6113   -4.8213   -0.9210 H   0  0  0  0  0  0  0  0  0  0  0  0
    0.2333   -4.7708    0.8493 H   0  0  0  0  0  0  0  0  0  0  0  0
    3.2375   -3.0425   -0.0622 H   0  0  0  0  0  0  0  0  0  0  0  0
    3.9740    0.9131   -2.4193 H   0  0  0  0  0  0  0  0  0  0  0  0
    4.6691    4.5948   -0.5172 H   0  0  0  0  0  0  0  0  0  0  0  0
    4.1158    1.1897    1.8385 H   0  0  0  0  0  0  0  0  0  0  0  0
    1.5001    0.8073   -0.2125 H   0  0  0  0  0  0  0  0  0  0  0  0
   -2.5388   -1.5857    0.0410 H   0  0  0  0  0  0  0  0  0  0  0  0
   -4.9203   -1.2521    0.0977 H   0  0  0  0  0  0  0  0  0  0  0  0
   -6.9161    0.2016    0.0828 H   0  0  0  0  0  0  0  0  0  0  0  0
   -4.3179    3.5337   -0.1755 H   0  0  0  0  0  0  0  0  0  0  0  0
  1  2  1  0
  2  3  2  0
  3  4  1  0
  4  5  1  0
  5  6  1  0
  6  7  2  0
  7  8  1  0
  8  9  2  0
  9 10  1  0
 10 11  2  0
  4 12  2  0
 12 13  1  0
 13 14  1  0
 14 15  2  0
 14 16  1  0
 16 17  1  0
 17 18  2  0
 18 19  1  0
 19 20  2  0
 20 21  1  0
 20 22  1  0
 22 23  2  0
 13 24  2  0
 24  2  1  0
 11  6  1  0
 23 17  1  0
  1 25  1  0
  1 26  1  0
  1 27  1  0
  3 28  1  0
  7 29  1  0
  9 30  1  0
 11 31  1  0
 12 32  1  0
 16 33  1  0
 18 34  1  0
 19 35  1  0
 22 36  1  0
M  END
$$$$
