@<TRIPOS>MOLECULE
*****
 36 38 0 0 0
SMALL
GASTEIGER

@<TRIPOS>ATOM
      1 C           0.9658   -4.4802    0.0852 C.3     1  UNL1       -0.0222
      2 C           1.1249   -3.0014    0.0016 C.ar    1  UNL1        0.0426
      3 C           2.3868   -2.4028   -0.0696 C.ar    1  UNL1        0.0018
      4 C           2.5167   -1.0320   -0.1465 C.ar    1  UNL1        0.1324
      5 O           3.7773   -0.4646   -0.2160 O.3     1  UNL1       -0.4529
      6 C           4.0149    0.8830   -0.2951 C.ar    1  UNL1        0.1644
      7 C           4.0994    1.5076   -1.5080 C.ar    1  UNL1        0.0730
      8 N           4.3302    2.8163   -1.5790 N.ar    1  UNL1       -0.2401
      9 C           4.4790    3.5149   -0.4439 C.ar    1  UNL1        0.1161
     10 N           4.4038    2.9431    0.7669 N.ar    1  UNL1       -0.2401
     11 C           4.1698    1.6150    0.8486 C.ar    1  UNL1        0.0730
     12 C           1.3671   -0.2696   -0.1511 C.ar    1  UNL1        0.0112
     13 C           0.1210   -0.8555   -0.0810 C.ar    1  UNL1        0.1295
     14 C          -1.0779   -0.0266   -0.0876 C.2     1  UNL1        0.2678
     15 O          -0.9711    1.2245   -0.1574 O.2     1  UNL1       -0.2681
     16 N          -2.3840   -0.5606   -0.0184 N.am    1  UNL1       -0.2651
     17 C          -3.5176    0.3141   -0.0294 C.ar    1  UNL1        0.1252
     18 C          -4.8029   -0.1779    0.0369 C.ar    1  UNL1       -0.0201
     19 C          -5.9214    0.6256    0.0292 C.ar    1  UNL1       -0.0387
     20 C          -5.7462    1.9886   -0.0487 C.ar    1  UNL1        0.0592
     21 CL         -7.1501    3.0615   -0.0619 Cl      1  UNL1       -0.0820
     22 C          -4.4596    2.4646   -0.1143 C.ar    1  UNL1        0.0480
     23 N          -3.3825    1.6483   -0.1046 N.ar    1  UNL1       -0.2387
     24 N           0.0422   -2.1952   -0.0074 N.ar    1  UNL1       -0.2470
     25 H           1.9665   -4.9087    0.2311 H       1  UNL1        0.0293
     26 H           0.6113   -4.8213   -0.9210 H       1  UNL1        0.0293
     27 H           0.2333   -4.7708    0.8493 H       1  UNL1        0.0293
     28 H           3.2375   -3.0425   -0.0622 H       1  UNL1        0.0672
     29 H           3.9740    0.9131   -2.4193 H       1  UNL1        0.0868
     30 H           4.6691    4.5948   -0.5172 H       1  UNL1        0.1047
     31 H           4.1158    1.1897    1.8385 H       1  UNL1        0.0868
     32 H           1.5001    0.8073   -0.2125 H       1  UNL1        0.0677
     33 H          -2.5388   -1.5857    0.0410 H       1  UNL1        0.1566
     34 H          -4.9203   -1.2521    0.0977 H       1  UNL1        0.0652
     35 H          -6.9161    0.2016    0.0828 H       1  UNL1        0.0634
     36 H          -4.3179    3.5337   -0.1755 H       1  UNL1        0.0845
@<TRIPOS>BOND
     1     1     2    1
     2     2     3   ar
     3     3     4   ar
     4     4     5    1
     5     5     6    1
     6     6     7   ar
     7     7     8   ar
     8     8     9   ar
     9     9    10   ar
    10    10    11   ar
    11     4    12   ar
    12    12    13   ar
    13    13    14    1
    14    14    15    2
    15    14    16   am
    16    16    17    1
    17    17    18   ar
    18    18    19   ar
    19    19    20   ar
    20    20    21    1
    21    20    22   ar
    22    22    23   ar
    23    13    24   ar
    24    24     2   ar
    25    11     6   ar
    26    23    17   ar
    27     1    25    1
    28     1    26    1
    29     1    27    1
    30     3    28    1
    31     7    29    1
    32     9    30    1
    33    11    31    1
    34    12    32    1
    35    16    33    1
    36    18    34    1
    37    19    35    1
    38    22    36    1
