@<TRIPOS>MOLECULE
*****
 75 78 0 0 0
SMALL
GASTEIGER

@<TRIPOS>ATOM
      1 C           9.4699    1.4733   -1.5770 C.3     1  UNL1        0.0790
      2 O           8.4743    0.4760   -1.4409 O.3     1  UNL1       -0.4915
      3 C           7.1873    0.8093   -1.1106 C.ar    1  UNL1        0.1615
      4 C           6.7753    2.1066   -0.8921 C.ar    1  UNL1       -0.0160
      5 C           5.4437    2.3910   -0.5548 C.ar    1  UNL1       -0.0548
      6 C           4.5169    1.3814   -0.4348 C.ar    1  UNL1       -0.0422
      7 C           3.0997    1.7219   -0.0547 C.3     1  UNL1       -0.0119
      8 C           2.9426    1.6276    1.4425 C.3     1  UNL1        0.0158
      9 N           1.5918    1.9527    1.7926 N.pl3   1  UNL1       -0.3131
     10 C           0.5070    1.2437    1.1965 C.ar    1  UNL1        0.2169
     11 N          -0.2587    1.8800    0.2927 N.ar    1  UNL1       -0.2221
     12 C          -1.3003    1.2254   -0.3002 C.ar    1  UNL1        0.0466
     13 C          -1.5955   -0.0860    0.0028 C.ar    1  UNL1        0.0945
     14 C          -2.6963   -0.7610   -0.6606 C.2     1  UNL1        0.2489
     15 O          -2.9947   -1.9696   -0.4751 O.2     1  UNL1       -0.2700
     16 N          -3.5495   -0.0974   -1.5974 N.am    1  UNL1       -0.3112
     17 C          -4.6551   -0.7467   -2.2729 C.3     1  UNL1        0.0133
     18 C          -5.6502   -1.2274   -1.2524 C.3     1  UNL1       -0.0215
     19 C          -6.2535   -0.1244   -0.4334 C.3     1  UNL1        0.0161
     20 N          -6.9776    0.7761   -1.2851 N.am    1  UNL1       -0.3014
     21 C          -8.3731    0.5477   -1.6309 C.3     1  UNL1        0.0151
     22 C          -8.7902    1.8682   -2.2301 C.3     1  UNL1       -0.0289
     23 C          -7.5211    2.2742   -2.9566 C.3     1  UNL1        0.0256
     24 C          -6.5041    1.9558   -1.9093 C.2     1  UNL1        0.2156
     25 O          -5.4685    2.5944   -1.6470 O.2     1  UNL1       -0.2756
     26 C          -0.8116   -0.7329    0.9260 C.ar    1  UNL1        0.1362
     27 N          -1.0142   -2.0858    1.3452 N.pl3   1  UNL1       -0.3255
     28 C          -0.0727   -2.6625    2.2914 C.3     1  UNL1        0.0220
     29 C           1.3336   -2.6716    1.7474 C.3     1  UNL1       -0.0345
     30 C           2.1990   -2.4444    2.9628 C.3     1  UNL1       -0.0513
     31 C           1.4028   -1.5537    3.8605 C.3     1  UNL1       -0.0513
     32 C          -0.0228   -1.8441    3.5293 C.3     1  UNL1       -0.0345
     33 N           0.2082   -0.0144    1.4743 N.ar    1  UNL1       -0.1990
     34 C           4.9277    0.0887   -0.6527 C.ar    1  UNL1       -0.0131
     35 C           6.2335   -0.1961   -0.9834 C.ar    1  UNL1        0.1617
     36 O           6.6486   -1.4978   -1.2005 O.3     1  UNL1       -0.4914
     37 C           5.8270   -2.6304   -1.1100 C.3     1  UNL1        0.0790
     38 H           9.4841    2.0556   -0.6219 H       1  UNL1        0.0660
     39 H           9.1991    2.1748   -2.3755 H       1  UNL1        0.0660
     40 H          10.4692    1.0467   -1.7532 H       1  UNL1        0.0660
     41 H           7.5184    2.8923   -0.9924 H       1  UNL1        0.0655
     42 H           5.1640    3.4305   -0.3910 H       1  UNL1        0.0621
     43 H           2.9167    2.7498   -0.3616 H       1  UNL1        0.0328
     44 H           2.4731    0.9673   -0.5413 H       1  UNL1        0.0328
     45 H           3.6896    2.2409    1.9642 H       1  UNL1        0.0465
     46 H           3.1465    0.5748    1.7970 H       1  UNL1        0.0465
     47 H           1.4490    2.7177    2.4890 H       1  UNL1        0.1489
     48 H          -1.8628    1.8217   -1.0184 H       1  UNL1        0.0839
     49 H          -3.3872    0.8959   -1.8302 H       1  UNL1        0.1490
     50 H          -5.1454   -0.0860   -2.9949 H       1  UNL1        0.0462
     51 H          -4.2380   -1.5966   -2.8649 H       1  UNL1        0.0462
     52 H          -5.2490   -1.9770   -0.5418 H       1  UNL1        0.0295
     53 H          -6.4787   -1.7955   -1.7866 H       1  UNL1        0.0295
     54 H          -6.8803   -0.5395    0.3879 H       1  UNL1        0.0465
     55 H          -5.4377    0.4327    0.1120 H       1  UNL1        0.0465
     56 H          -8.9100    0.2598   -0.7301 H       1  UNL1        0.0465
     57 H          -8.4608   -0.2146   -2.4475 H       1  UNL1        0.0465
     58 H          -9.6258    1.6915   -2.9106 H       1  UNL1        0.0285
     59 H          -9.0151    2.5901   -1.4163 H       1  UNL1        0.0285
     60 H          -7.5041    3.3432   -3.2262 H       1  UNL1        0.0359
     61 H          -7.3565    1.5807   -3.7994 H       1  UNL1        0.0359
     62 H          -1.7769   -2.6992    1.0407 H       1  UNL1        0.1478
     63 H          -0.3534   -3.6994    2.5749 H       1  UNL1        0.0498
     64 H           1.5482   -1.9088    1.0017 H       1  UNL1        0.0283
     65 H           1.5724   -3.6562    1.2649 H       1  UNL1        0.0283
     66 H           3.1631   -1.9336    2.6879 H       1  UNL1        0.0266
     67 H           2.4168   -3.3951    3.4965 H       1  UNL1        0.0266
     68 H           1.6942   -0.4796    3.7699 H       1  UNL1        0.0266
     69 H           1.6039   -1.7800    4.9533 H       1  UNL1        0.0266
     70 H          -0.4611   -2.4161    4.4088 H       1  UNL1        0.0283
     71 H          -0.6288   -0.9067    3.4796 H       1  UNL1        0.0283
     72 H           4.1769   -0.6894   -0.5522 H       1  UNL1        0.0658
     73 H           5.1361   -2.4529   -0.2476 H       1  UNL1        0.0660
     74 H           5.2648   -2.7224   -2.0607 H       1  UNL1        0.0660
     75 H           6.4063   -3.5651   -0.9666 H       1  UNL1        0.0660
@<TRIPOS>BOND
     1     1     2    1
     2     2     3    1
     3     3     4   ar
     4     4     5   ar
     5     5     6   ar
     6     6     7    1
     7     7     8    1
     8     8     9    1
     9     9    10    1
    10    10    11   ar
    11    11    12   ar
    12    12    13   ar
    13    13    14    1
    14    14    15    2
    15    14    16   am
    16    16    17    1
    17    17    18    1
    18    18    19    1
    19    19    20    1
    20    20    21    1
    21    21    22    1
    22    22    23    1
    23    23    24    1
    24    24    25    2
    25    13    26   ar
    26    26    27    1
    27    27    28    1
    28    28    29    1
    29    29    30    1
    30    30    31    1
    31    31    32    1
    32    26    33   ar
    33     6    34   ar
    34    34    35   ar
    35    35    36    1
    36    36    37    1
    37    35     3   ar
    38    33    10   ar
    39    24    20   am
    40    32    28    1
    41     1    38    1
    42     1    39    1
    43     1    40    1
    44     4    41    1
    45     5    42    1
    46     7    43    1
    47     7    44    1
    48     8    45    1
    49     8    46    1
    50     9    47    1
    51    12    48    1
    52    16    49    1
    53    17    50    1
    54    17    51    1
    55    18    52    1
    56    18    53    1
    57    19    54    1
    58    19    55    1
    59    21    56    1
    60    21    57    1
    61    22    58    1
    62    22    59    1
    63    23    60    1
    64    23    61    1
    65    27    62    1
    66    28    63    1
    67    29    64    1
    68    29    65    1
    69    30    66    1
    70    30    67    1
    71    31    68    1
    72    31    69    1
    73    32    70    1
    74    32    71    1
    75    34    72    1
    76    37    73    1
    77    37    74    1
    78    37    75    1
