
     RDKit          3D

 75 78  0  0  0  0  0  0  0  0999 V2000
    9.4699    1.4733   -1.5770 C   0  0  0  0  0  0  0  0  0  0  0  0
    8.4743    0.4760   -1.4409 O   0  0  0  0  0  0  0  0  0  0  0  0
    7.1873    0.8093   -1.1106 C   0  0  0  0  0  0  0  0  0  0  0  0
    6.7753    2.1066   -0.8921 C   0  0  0  0  0  0  0  0  0  0  0  0
    5.4437    2.3910   -0.5548 C   0  0  0  0  0  0  0  0  0  0  0  0
    4.5169    1.3814   -0.4348 C   0  0  0  0  0  0  0  0  0  0  0  0
    3.0997    1.7219   -0.0547 C   0  0  0  0  0  0  0  0  0  0  0  0
    2.9426    1.6276    1.4425 C   0  0  0  0  0  0  0  0  0  0  0  0
    1.5918    1.9527    1.7926 N   0  0  0  0  0  0  0  0  0  0  0  0
    0.5070    1.2437    1.1965 C   0  0  0  0  0  0  0  0  0  0  0  0
   -0.2587    1.8800    0.2927 N   0  0  0  0  0  0  0  0  0  0  0  0
   -1.3003    1.2254   -0.3002 C   0  0  0  0  0  0  0  0  0  0  0  0
   -1.5955   -0.0860    0.0028 C   0  0  0  0  0  0  0  0  0  0  0  0
   -2.6963   -0.7610   -0.6606 C   0  0  0  0  0  0  0  0  0  0  0  0
   -2.9947   -1.9696   -0.4751 O   0  0  0  0  0  0  0  0  0  0  0  0
   -3.5495   -0.0974   -1.5974 N   0  0  0  0  0  0  0  0  0  0  0  0
   -4.6551   -0.7467   -2.2729 C   0  0  0  0  0  0  0  0  0  0  0  0
   -5.6502   -1.2274   -1.2524 C   0  0  0  0  0  0  0  0  0  0  0  0
   -6.2535   -0.1244   -0.4334 C   0  0  0  0  0  0  0  0  0  0  0  0
   -6.9776    0.7761   -1.2851 N   0  0  0  0  0  0  0  0  0  0  0  0
   -8.3731    0.5477   -1.6309 C   0  0  0  0  0  0  0  0  0  0  0  0
   -8.7902    1.8682   -2.2301 C   0  0  0  0  0  0  0  0  0  0  0  0
   -7.5211    2.2742   -2.9566 C   0  0  0  0  0  0  0  0  0  0  0  0
   -6.5041    1.9558   -1.9093 C   0  0  0  0  0  0  0  0  0  0  0  0
   -5.4685    2.5944   -1.6470 O   0  0  0  0  0  0  0  0  0  0  0  0
   -0.8116   -0.7329    0.9260 C   0  0  0  0  0  0  0  0  0  0  0  0
   -1.0142   -2.0858    1.3452 N   0  0  0  0  0  0  0  0  0  0  0  0
   -0.0727   -2.6625    2.2914 C   0  0  0  0  0  0  0  0  0  0  0  0
    1.3336   -2.6716    1.7474 C   0  0  0  0  0  0  0  0  0  0  0  0
    2.1990   -2.4444    2.9628 C   0  0  0  0  0  0  0  0  0  0  0  0
    1.4028   -1.5537    3.8605 C   0  0  0  0  0  0  0  0  0  0  0  0
   -0.0228   -1.8441    3.5293 C   0  0  0  0  0  0  0  0  0  0  0  0
    0.2082   -0.0144    1.4743 N   0  0  0  0  0  0  0  0  0  0  0  0
    4.9277    0.0887   -0.6527 C   0  0  0  0  0  0  0  0  0  0  0  0
    6.2335   -0.1961   -0.9834 C   0  0  0  0  0  0  0  0  0  0  0  0
    6.6486   -1.4978   -1.2005 O   0  0  0  0  0  0  0  0  0  0  0  0
    5.8270   -2.6304   -1.1100 C   0  0  0  0  0  0  0  0  0  0  0  0
    9.4841    2.0556   -0.6219 H   0  0  0  0  0  0  0  0  0  0  0  0
    9.1991    2.1748   -2.3755 H   0  0  0  0  0  0  0  0  0  0  0  0
   10.4692    1.0467   -1.7532 H   0  0  0  0  0  0  0  0  0  0  0  0
    7.5184    2.8923   -0.9924 H   0  0  0  0  0  0  0  0  0  0  0  0
    5.1640    3.4305   -0.3910 H   0  0  0  0  0  0  0  0  0  0  0  0
    2.9167    2.7498   -0.3616 H   0  0  0  0  0  0  0  0  0  0  0  0
    2.4731    0.9673   -0.5413 H   0  0  0  0  0  0  0  0  0  0  0  0
    3.6896    2.2409    1.9642 H   0  0  0  0  0  0  0  0  0  0  0  0
    3.1465    0.5748    1.7970 H   0  0  0  0  0  0  0  0  0  0  0  0
    1.4490    2.7177    2.4890 H   0  0  0  0  0  0  0  0  0  0  0  0
   -1.8628    1.8217   -1.0184 H   0  0  0  0  0  0  0  0  0  0  0  0
   -3.3872    0.8959   -1.8302 H   0  0  0  0  0  0  0  0  0  0  0  0
   -5.1454   -0.0860   -2.9949 H   0  0  0  0  0  0  0  0  0  0  0  0
   -4.2380   -1.5966   -2.8649 H   0  0  0  0  0  0  0  0  0  0  0  0
   -5.2490   -1.9770   -0.5418 H   0  0  0  0  0  0  0  0  0  0  0  0
   -6.4787   -1.7955   -1.7866 H   0  0  0  0  0  0  0  0  0  0  0  0
   -6.8803   -0.5395    0.3879 H   0  0  0  0  0  0  0  0  0  0  0  0
   -5.4377    0.4327    0.1120 H   0  0  0  0  0  0  0  0  0  0  0  0
   -8.9100    0.2598   -0.7301 H   0  0  0  0  0  0  0  0  0  0  0  0
   -8.4608   -0.2146   -2.4475 H   0  0  0  0  0  0  0  0  0  0  0  0
   -9.6258    1.6915   -2.9106 H   0  0  0  0  0  0  0  0  0  0  0  0
   -9.0151    2.5901   -1.4163 H   0  0  0  0  0  0  0  0  0  0  0  0
   -7.5041    3.3432   -3.2262 H   0  0  0  0  0  0  0  0  0  0  0  0
   -7.3565    1.5807   -3.7994 H   0  0  0  0  0  0  0  0  0  0  0  0
   -1.7769   -2.6992    1.0407 H   0  0  0  0  0  0  0  0  0  0  0  0
   -0.3534   -3.6994    2.5749 H   0  0  0  0  0  0  0  0  0  0  0  0
    1.5482   -1.9088    1.0017 H   0  0  0  0  0  0  0  0  0  0  0  0
    1.5724   -3.6562    1.2649 H   0  0  0  0  0  0  0  0  0  0  0  0
    3.1631   -1.9336    2.6879 H   0  0  0  0  0  0  0  0  0  0  0  0
    2.4168   -3.3951    3.4965 H   0  0  0  0  0  0  0  0  0  0  0  0
    1.6942   -0.4796    3.7699 H   0  0  0  0  0  0  0  0  0  0  0  0
    1.6039   -1.7800    4.9533 H   0  0  0  0  0  0  0  0  0  0  0  0
   -0.4611   -2.4161    4.4088 H   0  0  0  0  0  0  0  0  0  0  0  0
   -0.6288   -0.9067    3.4796 H   0  0  0  0  0  0  0  0  0  0  0  0
    4.1769   -0.6894   -0.5522 H   0  0  0  0  0  0  0  0  0  0  0  0
    5.1361   -2.4529   -0.2476 H   0  0  0  0  0  0  0  0  0  0  0  0
    5.2648   -2.7224   -2.0607 H   0  0  0  0  0  0  0  0  0  0  0  0
    6.4063   -3.5651   -0.9666 H   0  0  0  0  0  0  0  0  0  0  0  0
  1  2  1  0
  2  3  1  0
  3  4  2  0
  4  5  1  0
  5  6  2  0
  6  7  1  0
  7  8  1  0
  8  9  1  0
  9 10  1  0
 10 11  2  0
 11 12  1  0
 12 13  2  0
 13 14  1  0
 14 15  2  0
 14 16  1  0
 16 17  1  0
 17 18  1  0
 18 19  1  0
 19 20  1  0
 20 21  1  0
 21 22  1  0
 22 23  1  0
 23 24  1  0
 24 25  2  0
 13 26  1  0
 26 27  1  0
 27 28  1  0
 28 29  1  0
 29 30  1  0
 30 31  1  0
 31 32  1  0
 26 33  2  0
  6 34  1  0
 34 35  2  0
 35 36  1  0
 36 37  1  0
 35  3  1  0
 33 10  1  0
 24 20  1  0
 32 28  1  0
  1 38  1  0
  1 39  1  0
  1 40  1  0
  4 41  1  0
  5 42  1  0
  7 43  1  0
  7 44  1  0
  8 45  1  0
  8 46  1  0
  9 47  1  0
 12 48  1  0
 16 49  1  0
 17 50  1  0
 17 51  1  0
 18 52  1  0
 18 53  1  0
 19 54  1  0
 19 55  1  0
 21 56  1  0
 21 57  1  0
 22 58  1  0
 22 59  1  0
 23 60  1  0
 23 61  1  0
 27 62  1  0
 28 63  1  0
 29 64  1  0
 29 65  1  0
 30 66  1  0
 30 67  1  0
 31 68  1  0
 31 69  1  0
 32 70  1  0
 32 71  1  0
 34 72  1  0
 37 73  1  0
 37 74  1  0
 37 75  1  0
M  END
$$$$
