@<TRIPOS>MOLECULE
*****
 33 35 0 0 0
SMALL
GASTEIGER

@<TRIPOS>ATOM
      1 C           1.1556    2.5953   -0.0328 C.3     1  UNL1        0.0239
      2 N           1.6463    1.2534    0.0399 N.pl3   1  UNL1       -0.1975
      3 C           0.8265    0.0853    0.0090 C.2     1  UNL1        0.1552
      4 C          -0.6036    0.3391   -0.0432 C.2     1  UNL1        0.2685
      5 O          -1.0634    1.5199   -0.0599 O.2     1  UNL1       -0.2683
      6 N          -1.7150   -0.5088   -0.0838 N.am    1  UNL1       -0.2652
      7 C          -3.1095   -0.3147   -0.1347 C.ar    1  UNL1        0.1251
      8 C          -3.7513    0.8979   -0.1579 C.ar    1  UNL1       -0.0215
      9 C          -5.1129    1.0948   -0.2077 C.ar    1  UNL1       -0.0571
     10 C          -5.8782   -0.0445   -0.2360 C.ar    1  UNL1       -0.0435
     11 C          -5.2611   -1.2644   -0.2138 C.ar    1  UNL1        0.0297
     12 N          -3.9409   -1.3679   -0.1655 N.ar    1  UNL1       -0.2401
     13 C           1.3603   -1.1100    0.0291 C.2     1  UNL1        0.1601
     14 O           0.5382   -2.2553   -0.0038 O.2     1  UNL1       -0.5036
     15 C           2.7553   -1.4490    0.0857 C.ar    1  UNL1        0.0836
     16 C           3.7519   -0.5649    0.1307 C.ar    1  UNL1        0.1279
     17 C           5.0357   -0.8717    0.1626 C.ar    1  UNL1       -0.0088
     18 C           5.2699   -2.2456    0.1456 C.ar    1  UNL1        0.0806
     19 CL          6.9185   -3.2453    0.1756 Cl      1  UNL1       -0.0758
     20 S           3.5603   -3.0651    0.0819 S.2     1  UNL1       -0.0716
     21 S           3.3380    1.1390    0.1670 S.O2    1  UNL1        0.0760
     22 O           3.9180    1.8717   -1.0342 O.2     1  UNL1       -0.1497
     23 O           3.8652    1.7532    1.4304 O.2     1  UNL1       -0.1497
     24 H           0.6049    2.7685   -0.9842 H       1  UNL1        0.0446
     25 H           0.5266    2.8765    0.8564 H       1  UNL1        0.0446
     26 H           1.9891    3.3346   -0.0222 H       1  UNL1        0.0446
     27 H          -1.4533   -1.5323   -0.0742 H       1  UNL1        0.1566
     28 H          -3.2311    1.8239   -0.1386 H       1  UNL1        0.0652
     29 H          -5.6078    2.0427   -0.2256 H       1  UNL1        0.0619
     30 H          -6.9508   -0.0827   -0.2753 H       1  UNL1        0.0633
     31 H          -5.8030   -2.2107   -0.2339 H       1  UNL1        0.0830
     32 H           0.4155   -2.8638    0.7855 H       1  UNL1        0.2923
     33 H           6.0064   -0.3992    0.1988 H       1  UNL1        0.0657
@<TRIPOS>BOND
     1     1     2    1
     2     2     3    1
     3     3     4    1
     4     4     5    2
     5     4     6   am
     6     6     7    1
     7     7     8   ar
     8     8     9   ar
     9     9    10   ar
    10    10    11   ar
    11    11    12   ar
    12     3    13    2
    13    13    14    1
    14    13    15    1
    15    15    16   ar
    16    16    17   ar
    17    17    18   ar
    18    18    19    1
    19    18    20   ar
    20    16    21    1
    21    21    22    2
    22    21    23    2
    23    21     2    1
    24    12     7   ar
    25    20    15   ar
    26     1    24    1
    27     1    25    1
    28     1    26    1
    29     6    27    1
    30     8    28    1
    31     9    29    1
    32    10    30    1
    33    11    31    1
    34    14    32    1
    35    17    33    1
