
     RDKit          3D

 33 35  0  0  0  0  0  0  0  0999 V2000
    1.1556    2.5953   -0.0328 C   0  0  0  0  0  0  0  0  0  0  0  0
    1.6463    1.2534    0.0399 N   0  0  0  0  0  0  0  0  0  0  0  0
    0.8265    0.0853    0.0090 C   0  0  0  0  0  0  0  0  0  0  0  0
   -0.6036    0.3391   -0.0432 C   0  0  0  0  0  0  0  0  0  0  0  0
   -1.0634    1.5199   -0.0599 O   0  0  0  0  0  0  0  0  0  0  0  0
   -1.7150   -0.5088   -0.0838 N   0  0  0  0  0  0  0  0  0  0  0  0
   -3.1095   -0.3147   -0.1347 C   0  0  0  0  0  0  0  0  0  0  0  0
   -3.7513    0.8979   -0.1579 C   0  0  0  0  0  0  0  0  0  0  0  0
   -5.1129    1.0948   -0.2077 C   0  0  0  0  0  0  0  0  0  0  0  0
   -5.8782   -0.0445   -0.2360 C   0  0  0  0  0  0  0  0  0  0  0  0
   -5.2611   -1.2644   -0.2138 C   0  0  0  0  0  0  0  0  0  0  0  0
   -3.9409   -1.3679   -0.1655 N   0  0  0  0  0  0  0  0  0  0  0  0
    1.3603   -1.1100    0.0291 C   0  0  0  0  0  0  0  0  0  0  0  0
    0.5382   -2.2553   -0.0038 O   0  0  0  0  0  0  0  0  0  0  0  0
    2.7553   -1.4490    0.0857 C   0  0  0  0  0  0  0  0  0  0  0  0
    3.7519   -0.5649    0.1307 C   0  0  0  0  0  0  0  0  0  0  0  0
    5.0357   -0.8717    0.1626 C   0  0  0  0  0  0  0  0  0  0  0  0
    5.2699   -2.2456    0.1456 C   0  0  0  0  0  0  0  0  0  0  0  0
    6.9185   -3.2453    0.1756 Cl  0  0  0  0  0  0  0  0  0  0  0  0
    3.5603   -3.0651    0.0819 S   0  0  0  0  0  0  0  0  0  0  0  0
    3.3380    1.1390    0.1670 S   0  0  0  0  0  0  0  0  0  0  0  0
    3.9180    1.8717   -1.0342 O   0  0  0  0  0  0  0  0  0  0  0  0
    3.8652    1.7532    1.4304 O   0  0  0  0  0  0  0  0  0  0  0  0
    0.6049    2.7685   -0.9842 H   0  0  0  0  0  0  0  0  0  0  0  0
    0.5266    2.8765    0.8564 H   0  0  0  0  0  0  0  0  0  0  0  0
    1.9891    3.3346   -0.0222 H   0  0  0  0  0  0  0  0  0  0  0  0
   -1.4533   -1.5323   -0.0742 H   0  0  0  0  0  0  0  0  0  0  0  0
   -3.2311    1.8239   -0.1386 H   0  0  0  0  0  0  0  0  0  0  0  0
   -5.6078    2.0427   -0.2256 H   0  0  0  0  0  0  0  0  0  0  0  0
   -6.9508   -0.0827   -0.2753 H   0  0  0  0  0  0  0  0  0  0  0  0
   -5.8030   -2.2107   -0.2339 H   0  0  0  0  0  0  0  0  0  0  0  0
    0.4155   -2.8638    0.7855 H   0  0  0  0  0  0  0  0  0  0  0  0
    6.0064   -0.3992    0.1988 H   0  0  0  0  0  0  0  0  0  0  0  0
  1  2  1  0
  2  3  1  0
  3  4  1  0
  4  5  2  0
  4  6  1  0
  6  7  1  0
  7  8  2  0
  8  9  1  0
  9 10  2  0
 10 11  1  0
 11 12  2  0
  3 13  2  0
 13 14  1  0
 13 15  1  0
 15 16  2  0
 16 17  1  0
 17 18  2  0
 18 19  1  0
 18 20  1  0
 16 21  1  0
 21 22  2  0
 21 23  2  0
 21  2  1  0
 12  7  1  0
 20 15  1  0
  1 24  1  0
  1 25  1  0
  1 26  1  0
  6 27  1  0
  8 28  1  0
  9 29  1  0
 10 30  1  0
 11 31  1  0
 14 32  1  0
 17 33  1  0
M  END
$$$$
