@<TRIPOS>MOLECULE
*****
 123 127 0 0 0
SMALL
GASTEIGER

@<TRIPOS>ATOM
      1 C           2.5814   -1.2909    1.4107 C.3     1  UNL1        0.0814
      2 C           1.8737   -0.0101    1.1150 C.3     1  UNL1        0.0375
      3 C           2.7556    1.2026    1.2182 C.3     1  UNL1       -0.0538
      4 C           1.2026    0.0189   -0.2180 C.2     1  UNL1        0.1409
      5 O           1.5980    0.8061   -1.0884 O.2     1  UNL1       -0.2968
      6 C           0.0499   -0.7207   -0.8886 C.3     1  UNL1        0.0177
      7 C           0.1665   -0.3190   -2.3400 C.3     1  UNL1       -0.0556
      8 C          -1.1938   -0.3240   -0.2232 C.3     1  UNL1       -0.0123
      9 C          -2.4881   -0.9645   -0.5368 C.3     1  UNL1        0.0937
     10 C          -2.8711   -0.8396   -1.9698 C.3     1  UNL1       -0.0333
     11 O          -2.5319   -2.3213   -0.2450 O.3     1  UNL1       -0.3742
     12 C          -3.7430   -2.9320   -0.6168 C.3     1  UNL1        0.0373
     13 C          -3.6222   -0.3270    0.3027 C.3     1  UNL1        0.0996
     14 O          -3.6881    1.0557   -0.0630 O.3     1  UNL1       -0.3420
     15 C          -4.8604    1.3162   -0.6962 C.3     1  UNL1        0.1871
     16 O          -4.6186    1.6998   -2.0582 O.3     1  UNL1       -0.3457
     17 C          -5.7804    1.4239   -2.7676 C.3     1  UNL1        0.0605
     18 C          -5.5036    1.5981   -4.2476 C.3     1  UNL1       -0.0385
     19 C          -6.7876    2.4731   -2.3589 C.3     1  UNL1       -0.0085
     20 C          -7.0698    2.3168   -0.8712 C.3     1  UNL1        0.0429
     21 C          -5.7185    2.4267   -0.1414 C.3     1  UNL1        0.1214
     22 O          -5.9955    2.3111    1.1846 O.3     1  UNL1       -0.3852
     23 N          -7.9563    3.4113   -0.5310 N.3     1  UNL1       -0.3027
     24 C          -9.1054    3.2668   -1.4398 C.3     1  UNL1       -0.0127
     25 C          -8.5199    3.2750    0.8014 C.3     1  UNL1       -0.0127
     26 C          -3.3008   -0.4137    1.7594 C.3     1  UNL1        0.0445
     27 C          -4.4244    0.0549    2.6652 C.3     1  UNL1       -0.0532
     28 C          -2.7370   -1.6466    2.3010 C.2     1  UNL1        0.1521
     29 O          -2.5051   -2.8535    2.2645 O.2     1  UNL1       -0.2962
     30 C          -2.0051   -1.4773    3.6218 C.3     1  UNL1        0.1120
     31 C          -2.7955   -1.9265    4.7986 C.3     1  UNL1       -0.0454
     32 C          -0.6099   -1.8979    3.5577 C.2     1  UNL1        0.3176
     33 O          -0.4897   -2.4757    2.4777 O.2     1  UNL1       -0.2501
     34 O           0.6806   -2.0477    3.9694 O.3     1  UNL1       -0.4568
     35 C           1.7407   -2.6696    3.3271 C.3     1  UNL1        0.1439
     36 C           2.3982   -3.7382    4.1638 C.3     1  UNL1       -0.0146
     37 C           1.3906   -4.8023    4.5030 C.3     1  UNL1       -0.0618
     38 C           2.7756   -1.6303    2.8421 C.3     1  UNL1        0.1678
     39 C           2.7858   -0.4884    3.7983 C.3     1  UNL1       -0.0194
     40 O           4.0376   -2.3041    2.9571 O.3     1  UNL1       -0.4383
     41 C           4.5659   -2.3294    1.6500 C.2     1  UNL1        0.4039
     42 O           5.5351   -3.1135    1.3947 O.2     1  UNL1       -0.2262
     43 N           3.8869   -1.4105    0.7560 N.am    1  UNL1       -0.2598
     44 C           4.5833   -0.9120   -0.4440 C.3     1  UNL1        0.0183
     45 C           4.3241   -1.7807   -1.6144 C.3     1  UNL1       -0.0354
     46 C           4.9823   -1.3661   -2.8598 C.3     1  UNL1       -0.0335
     47 C           6.4286   -1.3645   -3.0523 C.3     1  UNL1        0.0242
     48 N           7.3241   -0.6128   -2.2626 N.ar    1  UNL1       -0.3362
     49 C           8.1199   -0.7315   -1.1608 C.ar    1  UNL1        0.0966
     50 N           8.7665    0.3952   -0.8635 N.ar    1  UNL1       -0.2357
     51 C           8.4340    1.3345   -1.7574 C.ar    1  UNL1        0.0902
     52 C           7.5563    0.6952   -2.5968 C.ar    1  UNL1        0.0319
     53 C           8.9138    2.7059   -1.7994 C.ar    1  UNL1        0.0199
     54 C           8.5558    3.6577   -2.7362 C.ar    1  UNL1       -0.0496
     55 C           9.1093    4.9353   -2.6255 C.ar    1  UNL1       -0.0430
     56 C           9.9882    5.2819   -1.6319 C.ar    1  UNL1        0.0276
     57 N          10.3272    4.3452   -0.7282 N.ar    1  UNL1       -0.2626
     58 C           9.8106    3.1308   -0.8202 C.ar    1  UNL1        0.0368
     59 H           1.9997   -2.1655    0.9680 H       1  UNL1        0.0549
     60 H           1.0321    0.1759    1.8470 H       1  UNL1        0.0394
     61 H           3.7983    0.9548    1.4813 H       1  UNL1        0.0237
     62 H           2.4211    1.9109    2.0268 H       1  UNL1        0.0237
     63 H           2.6821    1.8349    0.2911 H       1  UNL1        0.0237
     64 H           0.2975   -1.7857   -0.8098 H       1  UNL1        0.0376
     65 H          -0.1849   -1.1137   -3.0503 H       1  UNL1        0.0236
     66 H          -0.1719    0.6912   -2.5722 H       1  UNL1        0.0236
     67 H           1.2795   -0.3120   -2.5713 H       1  UNL1        0.0236
     68 H          -1.3058    0.7991   -0.3687 H       1  UNL1        0.0300
     69 H          -1.0277   -0.3890    0.8765 H       1  UNL1        0.0300
     70 H          -3.9739   -0.8455   -2.1290 H       1  UNL1        0.0258
     71 H          -2.4728    0.0985   -2.3804 H       1  UNL1        0.0258
     72 H          -2.4024   -1.6445   -2.6046 H       1  UNL1        0.0258
     73 H          -3.9446   -2.8294   -1.6874 H       1  UNL1        0.0524
     74 H          -3.5187   -4.0454   -0.4926 H       1  UNL1        0.0524
     75 H          -4.5726   -2.7584    0.0576 H       1  UNL1        0.0524
     76 H          -4.5334   -0.7899    0.0326 H       1  UNL1        0.0632
     77 H          -5.4746    0.4082   -0.7624 H       1  UNL1        0.0937
     78 H          -6.1795    0.4276   -2.5862 H       1  UNL1        0.0595
     79 H          -4.7796    2.4176   -4.3494 H       1  UNL1        0.0255
     80 H          -6.4473    1.7903   -4.8066 H       1  UNL1        0.0255
     81 H          -5.0526    0.6767   -4.6340 H       1  UNL1        0.0255
     82 H          -6.3831    3.4641   -2.6177 H       1  UNL1        0.0306
     83 H          -7.7153    2.2728   -2.9360 H       1  UNL1        0.0306
     84 H          -7.5475    1.3457   -0.7226 H       1  UNL1        0.0490
     85 H          -5.3283    3.4223   -0.4462 H       1  UNL1        0.0660
     86 H          -6.6984    1.5915    1.2807 H       1  UNL1        0.2101
     87 H          -9.3768    2.2171   -1.5841 H       1  UNL1        0.0391
     88 H          -9.9753    3.7670   -0.9272 H       1  UNL1        0.0391
     89 H          -8.9456    3.8219   -2.3814 H       1  UNL1        0.0391
     90 H          -9.4065    3.9750    0.7976 H       1  UNL1        0.0391
     91 H          -7.8489    3.6617    1.5697 H       1  UNL1        0.0391
     92 H          -8.9623    2.2827    0.9902 H       1  UNL1        0.0391
     93 H          -2.5150    0.4292    1.8947 H       1  UNL1        0.0401
     94 H          -4.4566   -0.5146    3.6244 H       1  UNL1        0.0237
     95 H          -5.4152   -0.1765    2.1947 H       1  UNL1        0.0237
     96 H          -4.3291    1.1084    2.9660 H       1  UNL1        0.0237
     97 H          -1.9391   -0.3340    3.7513 H       1  UNL1        0.0489
     98 H          -3.6524   -2.6041    4.5438 H       1  UNL1        0.0242
     99 H          -3.1365   -1.1208    5.4730 H       1  UNL1        0.0242
    100 H          -2.1442   -2.5785    5.4625 H       1  UNL1        0.0242
    101 H           1.4043   -3.1401    2.3830 H       1  UNL1        0.0775
    102 H           3.2234   -4.2394    3.6251 H       1  UNL1        0.0299
    103 H           2.8541   -3.3266    5.0912 H       1  UNL1        0.0299
    104 H           0.4009   -4.3421    4.5625 H       1  UNL1        0.0231
    105 H           1.6875   -5.2975    5.4645 H       1  UNL1        0.0231
    106 H           1.3620   -5.5321    3.6458 H       1  UNL1        0.0231
    107 H           2.8751   -0.9472    4.8282 H       1  UNL1        0.0270
    108 H           3.6935    0.1472    3.7216 H       1  UNL1        0.0270
    109 H           1.8398    0.0862    3.8130 H       1  UNL1        0.0270
    110 H           4.1971    0.1218   -0.7060 H       1  UNL1        0.0466
    111 H           5.6477   -0.8688   -0.2088 H       1  UNL1        0.0466
    112 H           3.1977   -1.8422   -1.7236 H       1  UNL1        0.0281
    113 H           4.5833   -2.8516   -1.3336 H       1  UNL1        0.0281
    114 H           4.5399   -2.0155   -3.7104 H       1  UNL1        0.0283
    115 H           4.5425   -0.3418   -3.1724 H       1  UNL1        0.0283
    116 H           6.8349   -2.4508   -3.0489 H       1  UNL1        0.0492
    117 H           6.6057   -1.1252   -4.1705 H       1  UNL1        0.0492
    118 H           8.1027   -1.7290   -0.6932 H       1  UNL1        0.1029
    119 H           7.1341    1.2771   -3.4362 H       1  UNL1        0.0831
    120 H           7.8742    3.3751   -3.5014 H       1  UNL1        0.0625
    121 H           8.8507    5.7009   -3.3418 H       1  UNL1        0.0633
    122 H          10.3990    6.2873   -1.5789 H       1  UNL1        0.0829
    123 H          10.1312    2.4200   -0.0508 H       1  UNL1        0.0836
@<TRIPOS>BOND
     1     1     2    1
     2     2     3    1
     3     2     4    1
     4     4     5    2
     5     4     6    1
     6     6     7    1
     7     6     8    1
     8     8     9    1
     9     9    10    1
    10     9    11    1
    11    11    12    1
    12     9    13    1
    13    13    14    1
    14    14    15    1
    15    15    16    1
    16    16    17    1
    17    17    18    1
    18    17    19    1
    19    19    20    1
    20    20    21    1
    21    21    22    1
    22    20    23    1
    23    23    24    1
    24    23    25    1
    25    13    26    1
    26    26    27    1
    27    26    28    1
    28    28    29    2
    29    28    30    1
    30    30    31    1
    31    30    32    1
    32    32    33    2
    33    32    34    1
    34    34    35    1
    35    35    36    1
    36    36    37    1
    37    35    38    1
    38    38    39    1
    39    38    40    1
    40    40    41    1
    41    41    42    2
    42    41    43   am
    43    43    44    1
    44    44    45    1
    45    45    46    1
    46    46    47    1
    47    47    48    1
    48    48    49   ar
    49    49    50   ar
    50    50    51   ar
    51    51    52   ar
    52    51    53    1
    53    53    54   ar
    54    54    55   ar
    55    55    56   ar
    56    56    57   ar
    57    57    58   ar
    58    38     1    1
    59    52    48   ar
    60    58    53   ar
    61    43     1    1
    62    21    15    1
    63     1    59    1
    64     2    60    1
    65     3    61    1
    66     3    62    1
    67     3    63    1
    68     6    64    1
    69     7    65    1
    70     7    66    1
    71     7    67    1
    72     8    68    1
    73     8    69    1
    74    10    70    1
    75    10    71    1
    76    10    72    1
    77    12    73    1
    78    12    74    1
    79    12    75    1
    80    13    76    1
    81    15    77    1
    82    17    78    1
    83    18    79    1
    84    18    80    1
    85    18    81    1
    86    19    82    1
    87    19    83    1
    88    20    84    1
    89    21    85    1
    90    22    86    1
    91    24    87    1
    92    24    88    1
    93    24    89    1
    94    25    90    1
    95    25    91    1
    96    25    92    1
    97    26    93    1
    98    27    94    1
    99    27    95    1
   100    27    96    1
   101    30    97    1
   102    31    98    1
   103    31    99    1
   104    31   100    1
   105    35   101    1
   106    36   102    1
   107    36   103    1
   108    37   104    1
   109    37   105    1
   110    37   106    1
   111    39   107    1
   112    39   108    1
   113    39   109    1
   114    44   110    1
   115    44   111    1
   116    45   112    1
   117    45   113    1
   118    46   114    1
   119    46   115    1
   120    47   116    1
   121    47   117    1
   122    49   118    1
   123    52   119    1
   124    54   120    1
   125    55   121    1
   126    56   122    1
   127    58   123    1
