
     RDKit          3D

 43 47  0  0  0  0  0  0  0  0999 V2000
   -6.0659   -0.6494    2.1220 C   0  0  0  0  0  0  0  0  0  0  0  0
   -5.3094   -0.5607    0.9507 O   0  0  0  0  0  0  0  0  0  0  0  0
   -3.9141   -0.4445    0.9613 C   0  0  0  0  0  0  0  0  0  0  0  0
   -3.2606   -0.4165    2.1776 C   0  0  0  0  0  0  0  0  0  0  0  0
   -1.8932   -0.3043    2.2686 C   0  0  0  0  0  0  0  0  0  0  0  0
   -1.1765   -0.2189    1.0914 C   0  0  0  0  0  0  0  0  0  0  0  0
    0.2088   -0.1038    1.1135 C   0  0  0  0  0  0  0  0  0  0  0  0
    0.8876   -0.0209   -0.0895 C   0  0  0  0  0  0  0  0  0  0  0  0
    0.2815   -0.0458   -1.2710 N   0  0  0  0  0  4  0  0  0  0  0  0
   -1.0762   -0.1586   -1.2948 C   0  0  0  0  0  0  0  0  0  0  0  0
   -1.8027   -0.2446   -0.1316 C   0  0  0  0  0  0  0  0  0  0  0  0
   -3.1985   -0.3593   -0.2138 C   0  0  0  0  0  0  0  0  0  0  0  0
   -3.8256   -0.3847   -1.4501 O   0  0  0  0  0  0  0  0  0  0  0  0
   -4.2745    0.7615   -2.1188 C   0  0  0  0  0  0  0  0  0  0  0  0
    0.9032    0.0342   -2.5653 C   0  0  0  0  0  0  0  0  0  0  0  0
    2.3648    0.1566   -2.5717 C   0  0  0  0  0  0  0  0  0  0  0  0
    3.0355    0.1842   -1.2689 C   0  0  0  0  0  0  0  0  0  0  0  0
    4.4374    0.3017   -1.2897 C   0  0  0  0  0  0  0  0  0  0  0  0
    5.1363    0.3344   -0.1088 C   0  0  0  0  0  0  0  0  0  0  0  0
    4.4366    0.2503    1.0667 C   0  0  0  0  0  0  0  0  0  0  0  0
    3.0387    0.1327    1.1044 C   0  0  0  0  0  0  0  0  0  0  0  0
    2.3571    0.1017   -0.0862 C   0  0  0  0  0  0  0  0  0  0  0  0
    5.3604    0.3050    2.0966 O   0  0  0  0  0  0  0  0  0  0  0  0
    6.6816    0.1917    1.6007 C   0  0  0  0  0  0  0  0  0  0  0  0
    6.4948    0.4406    0.2222 O   0  0  0  0  0  0  0  0  0  0  0  0
   -7.1114   -0.8795    1.8383 H   0  0  0  0  0  0  0  0  0  0  0  0
   -6.0776    0.2960    2.7033 H   0  0  0  0  0  0  0  0  0  0  0  0
   -5.6225   -1.4295    2.7895 H   0  0  0  0  0  0  0  0  0  0  0  0
   -3.7975   -0.4819    3.1269 H   0  0  0  0  0  0  0  0  0  0  0  0
   -1.3389   -0.2781    3.1906 H   0  0  0  0  0  0  0  0  0  0  0  0
    0.6727   -0.0862    2.0859 H   0  0  0  0  0  0  0  0  0  0  0  0
   -1.6320   -0.1844   -2.2442 H   0  0  0  0  0  0  0  0  0  0  0  0
   -5.3868    0.8792   -2.0034 H   0  0  0  0  0  0  0  0  0  0  0  0
   -3.7728    1.6811   -1.7529 H   0  0  0  0  0  0  0  0  0  0  0  0
   -4.1153    0.6524   -3.2307 H   0  0  0  0  0  0  0  0  0  0  0  0
    0.3659    0.8342   -3.1307 H   0  0  0  0  0  0  0  0  0  0  0  0
    0.6234   -0.9184   -3.1043 H   0  0  0  0  0  0  0  0  0  0  0  0
    2.6326    1.1264   -3.0866 H   0  0  0  0  0  0  0  0  0  0  0  0
    2.8907   -0.6192   -3.1963 H   0  0  0  0  0  0  0  0  0  0  0  0
    4.9612    0.3660   -2.2301 H   0  0  0  0  0  0  0  0  0  0  0  0
    2.5254    0.0696    2.0295 H   0  0  0  0  0  0  0  0  0  0  0  0
    7.2678    0.9994    2.0872 H   0  0  0  0  0  0  0  0  0  0  0  0
    7.0882   -0.8116    1.8126 H   0  0  0  0  0  0  0  0  0  0  0  0
  1  2  1  0
  2  3  1  0
  3  4  2  0
  4  5  1  0
  5  6  2  0
  6  7  1  0
  7  8  2  0
  8  9  1  0
  9 10  2  0
 10 11  1  0
 11 12  2  0
 12 13  1  0
 13 14  1  0
  9 15  1  0
 15 16  1  0
 16 17  1  0
 17 18  2  0
 18 19  1  0
 19 20  2  0
 20 21  1  0
 21 22  2  0
 20 23  1  0
 23 24  1  0
 24 25  1  0
 12  3  1  0
 22 17  1  0
 11  6  1  0
 25 19  1  0
 22  8  1  0
  1 26  1  0
  1 27  1  0
  1 28  1  0
  4 29  1  0
  5 30  1  0
  7 31  1  0
 10 32  1  0
 14 33  1  0
 14 34  1  0
 14 35  1  0
 15 36  1  0
 15 37  1  0
 16 38  1  0
 16 39  1  0
 18 40  1  0
 21 41  1  0
 24 42  1  0
 24 43  1  0
M  CHG  1   9   1
M  END
$$$$
