@<TRIPOS>MOLECULE
*****
 43 47 0 0 0
SMALL
GASTEIGER

@<TRIPOS>ATOM
      1 C          -6.0659   -0.6494    2.1220 C.3     1  UNL1        0.0790
      2 O          -5.3094   -0.5607    0.9507 O.3     1  UNL1       -0.4914
      3 C          -3.9141   -0.4445    0.9613 C.ar    1  UNL1        0.1623
      4 C          -3.2606   -0.4165    2.1776 C.ar    1  UNL1       -0.0157
      5 C          -1.8932   -0.3043    2.2686 C.ar    1  UNL1       -0.0499
      6 C          -1.1765   -0.2189    1.0914 C.ar    1  UNL1       -0.0022
      7 C           0.2088   -0.1038    1.1135 C.ar    1  UNL1        0.0183
      8 C           0.8876   -0.0209   -0.0895 C.ar    1  UNL1        0.2159
      9 N           0.2815   -0.0458   -1.2710 N.ar    1  UNL1       -0.1961
     10 C          -1.0762   -0.1586   -1.2948 C.ar    1  UNL1        0.1831
     11 C          -1.8027   -0.2446   -0.1316 C.ar    1  UNL1        0.0909
     12 C          -3.1985   -0.3593   -0.2138 C.ar    1  UNL1        0.1748
     13 O          -3.8256   -0.3847   -1.4501 O.3     1  UNL1       -0.4907
     14 C          -4.2745    0.7615   -2.1188 C.3     1  UNL1        0.0790
     15 C           0.9032    0.0342   -2.5653 C.3     1  UNL1        0.1550
     16 C           2.3648    0.1566   -2.5717 C.3     1  UNL1        0.0330
     17 C           3.0355    0.1842   -1.2689 C.ar    1  UNL1       -0.0243
     18 C           4.4374    0.3017   -1.2897 C.ar    1  UNL1       -0.0120
     19 C           5.1363    0.3344   -0.1088 C.ar    1  UNL1        0.1665
     20 C           4.4366    0.2503    1.0667 C.ar    1  UNL1        0.1670
     21 C           3.0387    0.1327    1.1044 C.ar    1  UNL1       -0.0025
     22 C           2.3571    0.1017   -0.0862 C.ar    1  UNL1        0.0533
     23 O           5.3604    0.3050    2.0966 O.3     1  UNL1       -0.4526
     24 C           6.6816    0.1917    1.6007 C.3     1  UNL1        0.2332
     25 O           6.4948    0.4406    0.2222 O.3     1  UNL1       -0.4526
     26 H          -7.1114   -0.8795    1.8383 H       1  UNL1        0.0660
     27 H          -6.0776    0.2960    2.7033 H       1  UNL1        0.0660
     28 H          -5.6225   -1.4295    2.7895 H       1  UNL1        0.0660
     29 H          -3.7975   -0.4819    3.1269 H       1  UNL1        0.0655
     30 H          -1.3389   -0.2781    3.1906 H       1  UNL1        0.0625
     31 H           0.6727   -0.0862    2.0859 H       1  UNL1        0.0690
     32 H          -1.6320   -0.1844   -2.2442 H       1  UNL1        0.1384
     33 H          -5.3868    0.8792   -2.0034 H       1  UNL1        0.0660
     34 H          -3.7728    1.6811   -1.7529 H       1  UNL1        0.0660
     35 H          -4.1153    0.6524   -3.2307 H       1  UNL1        0.0660
     36 H           0.3659    0.8342   -3.1307 H       1  UNL1        0.1034
     37 H           0.6234   -0.9184   -3.1043 H       1  UNL1        0.1034
     38 H           2.6326    1.1264   -3.0866 H       1  UNL1        0.0375
     39 H           2.8907   -0.6192   -3.1963 H       1  UNL1        0.0375
     40 H           4.9612    0.3660   -2.2301 H       1  UNL1        0.0658
     41 H           2.5254    0.0696    2.0295 H       1  UNL1        0.0663
     42 H           7.2678    0.9994    2.0872 H       1  UNL1        0.1166
     43 H           7.0882   -0.8116    1.8126 H       1  UNL1        0.1166
@<TRIPOS>UNITY_ATOM_ATTR
9 1
charge 1
@<TRIPOS>BOND
     1     1     2    1
     2     2     3    1
     3     3     4   ar
     4     4     5   ar
     5     5     6   ar
     6     6     7   ar
     7     7     8   ar
     8     8     9   ar
     9     9    10   ar
    10    10    11   ar
    11    11    12   ar
    12    12    13    1
    13    13    14    1
    14     9    15    1
    15    15    16    1
    16    16    17    1
    17    17    18   ar
    18    18    19   ar
    19    19    20   ar
    20    20    21   ar
    21    21    22   ar
    22    20    23    1
    23    23    24    1
    24    24    25    1
    25    12     3   ar
    26    22    17   ar
    27    11     6   ar
    28    25    19    1
    29    22     8    1
    30     1    26    1
    31     1    27    1
    32     1    28    1
    33     4    29    1
    34     5    30    1
    35     7    31    1
    36    10    32    1
    37    14    33    1
    38    14    34    1
    39    14    35    1
    40    15    36    1
    41    15    37    1
    42    16    38    1
    43    16    39    1
    44    18    40    1
    45    21    41    1
    46    24    42    1
    47    24    43    1
