@<TRIPOS>MOLECULE
*****
 24 24 0 0 0
SMALL
GASTEIGER

@<TRIPOS>ATOM
      1 O           2.7324    0.7627    0.9750 O.3     1  UNK1       -0.3934
      2 C           2.4222    0.4280   -0.3223 C.3     1  UNK1        0.0620
      3 C           0.9878   -0.0085   -0.4140 C.3     1  UNK1        0.0596
      4 N           0.7080   -1.1663    0.4194 N.3     1  UNK1       -0.3064
      5 C          -0.5797   -1.6860   -0.0659 C.3     0  UNK0        0.0249
      6 C          -1.6810   -0.7248    0.2132 C.3     1  UNK1        0.0959
      7 O          -2.7780   -1.1024   -0.5968 O.3     1  UNK1       -0.3879
      8 C          -1.3709    0.6995   -0.0692 C.3     1  UNK1        0.1095
      9 O          -2.0917    1.4877    0.8583 O.3     1  UNK1       -0.3866
     10 C           0.0597    1.0810    0.0500 C.3     1  UNK1        0.1009
     11 O           0.3335    2.2649   -0.6182 O.3     1  UNK1       -0.3875
     12 H           2.9455   -0.0647    1.4835 H       1  UNK1        0.2095
     13 H           2.5614    1.2546   -1.0461 H       1  UNK1        0.0573
     14 H           3.0715   -0.4115   -0.6752 H       1  UNK1        0.0573
     15 H           0.7420   -0.2666   -1.4498 H       1  UNK1        0.0509
     16 H           1.4455   -1.8709    0.4189 H       1  UNK1        0.1224
     17 H          -0.5107   -1.8450   -1.1688 H       0  UNK0        0.0450
     18 H          -0.7645   -2.6236    0.4843 H       0  UNK0        0.0450
     19 H          -2.0698   -0.8424    1.2670 H       1  UNK1        0.0633
     20 H          -2.6925   -2.0343   -0.9026 H       1  UNK1        0.2099
     21 H          -1.7525    1.0332   -1.0764 H       1  UNK1        0.0646
     22 H          -1.5518    1.5246    1.6968 H       1  UNK1        0.2100
     23 H           0.2810    1.2497    1.1321 H       1  UNK1        0.0636
     24 H          -0.4474    2.8610   -0.5933 H       1  UNK1        0.2100
@<TRIPOS>BOND
     1     1     2    1
     2     2     3    1
     3     3     4    1
     4     4     5    1
     5     5     6    1
     6     6     7    1
     7     6     8    1
     8     8     9    1
     9     8    10    1
    10    10    11    1
    11    10     3    1
    12     1    12    1
    13     2    13    1
    14     2    14    1
    15     3    15    1
    16     4    16    1
    17     5    17    1
    18     5    18    1
    19     6    19    1
    20     7    20    1
    21     8    21    1
    22     9    22    1
    23    10    23    1
    24    11    24    1
