
     RDKit          3D

 24 24  0  0  0  0  0  0  0  0999 V2000
    2.7324    0.7627    0.9750 O   0  0  0  0  0  0  0  0  0  0  0  0
    2.4222    0.4280   -0.3223 C   0  0  0  0  0  0  0  0  0  0  0  0
    0.9878   -0.0085   -0.4140 C   0  0  1  0  0  0  0  0  0  0  0  0
    0.7080   -1.1663    0.4194 N   0  0  0  0  0  0  0  0  0  0  0  0
   -0.5797   -1.6860   -0.0659 C   0  0  0  0  0  0  0  0  0  0  0  0
   -1.6810   -0.7248    0.2132 C   0  0  2  0  0  0  0  0  0  0  0  0
   -2.7780   -1.1024   -0.5968 O   0  0  0  0  0  0  0  0  0  0  0  0
   -1.3709    0.6995   -0.0692 C   0  0  1  0  0  0  0  0  0  0  0  0
   -2.0917    1.4877    0.8583 O   0  0  0  0  0  0  0  0  0  0  0  0
    0.0597    1.0810    0.0500 C   0  0  2  0  0  0  0  0  0  0  0  0
    0.3335    2.2649   -0.6182 O   0  0  0  0  0  0  0  0  0  0  0  0
    2.9455   -0.0647    1.4835 H   0  0  0  0  0  0  0  0  0  0  0  0
    2.5614    1.2546   -1.0461 H   0  0  0  0  0  0  0  0  0  0  0  0
    3.0715   -0.4115   -0.6752 H   0  0  0  0  0  0  0  0  0  0  0  0
    0.7420   -0.2666   -1.4498 H   0  0  0  0  0  0  0  0  0  0  0  0
    1.4455   -1.8709    0.4189 H   0  0  0  0  0  0  0  0  0  0  0  0
   -0.5107   -1.8450   -1.1688 H   0  0  0  0  0  0  0  0  0  0  0  0
   -0.7645   -2.6236    0.4843 H   0  0  0  0  0  0  0  0  0  0  0  0
   -2.0698   -0.8424    1.2670 H   0  0  0  0  0  0  0  0  0  0  0  0
   -2.6925   -2.0343   -0.9026 H   0  0  0  0  0  0  0  0  0  0  0  0
   -1.7525    1.0332   -1.0764 H   0  0  0  0  0  0  0  0  0  0  0  0
   -1.5518    1.5246    1.6968 H   0  0  0  0  0  0  0  0  0  0  0  0
    0.2810    1.2497    1.1321 H   0  0  0  0  0  0  0  0  0  0  0  0
   -0.4474    2.8610   -0.5933 H   0  0  0  0  0  0  0  0  0  0  0  0
  1  2  1  0
  2  3  1  0
  3  4  1  0
  4  5  1  0
  5  6  1  0
  6  7  1  0
  6  8  1  0
  8  9  1  0
  8 10  1  0
 10 11  1  0
 10  3  1  0
  1 12  1  0
  2 13  1  0
  2 14  1  0
  3 15  1  6
  4 16  1  0
  5 17  1  0
  5 18  1  0
  6 19  1  1
  7 20  1  0
  8 21  1  6
  9 22  1  0
 10 23  1  1
 11 24  1  0
M  END
$$$$
