@<TRIPOS>MOLECULE
*****
 47 49 0 0 0
SMALL
GASTEIGER

@<TRIPOS>ATOM
      1 C          -0.9776   -3.6633   -2.4698 C.3     1  UNL1        0.0789
      2 O          -1.7445   -2.7045   -1.7794 O.3     1  UNL1       -0.4930
      3 C          -1.1206   -1.8546   -0.8633 C.ar    1  UNL1        0.1462
      4 C           0.2213   -1.9095   -0.5997 C.ar    1  UNL1       -0.0143
      5 C           0.8427   -1.0664    0.3092 C.ar    1  UNL1       -0.0387
      6 C           2.2983   -1.2608    0.4727 C.3     1  UNL1        0.0024
      7 C           3.0965   -0.5729   -0.5359 C.ar    1  UNL1        0.0146
      8 C           3.5998   -1.2451   -1.6230 C.ar    1  UNL1        0.0379
      9 N           4.3237   -0.6119   -2.5697 N.ar    1  UNL1       -0.2227
     10 C           4.5777    0.6926   -2.4850 C.ar    1  UNL1        0.2142
     11 N           5.3379    1.3874   -3.4793 N.pl3   1  UNL1       -0.3274
     12 N           4.1037    1.3854   -1.4383 N.ar    1  UNL1       -0.1999
     13 C           3.3671    0.7772   -0.4604 C.ar    1  UNL1        0.1247
     14 N           2.8918    1.5398    0.6367 N.pl3   1  UNL1       -0.3428
     15 C           0.0821   -0.1455    0.9667 C.ar    1  UNL1       -0.0471
     16 C          -1.2798   -0.0818    0.7066 C.ar    1  UNL1        0.0252
     17 C          -2.0695    0.8324    1.3420 C.ar    1  UNL1        0.0403
     18 N          -1.5697    1.7436    2.2851 N.pl3   1  UNL1       -0.3355
     19 C          -1.0139    1.2758    3.5207 C.3     1  UNL1        0.0004
     20 C          -1.6174    3.1508    2.0000 C.3     1  UNL1        0.0004
     21 C          -3.4339    0.8802    1.0576 C.ar    1  UNL1       -0.0190
     22 C          -4.0154    0.0271    0.1487 C.ar    1  UNL1        0.0408
     23 C          -5.4883    0.0790   -0.1630 C.3     1  UNL1       -0.0223
     24 N          -3.2135   -0.8642   -0.4630 N.ar    1  UNL1       -0.2481
     25 C          -1.8921   -0.9277   -0.2035 C.ar    1  UNL1        0.1145
     26 H          -0.3876   -4.3057   -1.7802 H       1  UNL1        0.0660
     27 H          -1.6781   -4.3528   -2.9877 H       1  UNL1        0.0660
     28 H          -0.3228   -3.2129   -3.2429 H       1  UNL1        0.0660
     29 H           0.7873   -2.6711   -1.1579 H       1  UNL1        0.0658
     30 H           2.5108   -0.8420    1.5148 H       1  UNL1        0.0363
     31 H           2.5066   -2.3359    0.5848 H       1  UNL1        0.0363
     32 H           3.4165   -2.3271   -1.7445 H       1  UNL1        0.0834
     33 H           6.2848    1.7329   -3.2420 H       1  UNL1        0.1452
     34 H           4.9454    1.5376   -4.4110 H       1  UNL1        0.1452
     35 H           2.3553    2.4148    0.5885 H       1  UNL1        0.1437
     36 H           3.1245    1.1492    1.5955 H       1  UNL1        0.1437
     37 H           0.5313    0.5106    1.6689 H       1  UNL1        0.0628
     38 H           0.0108    1.5866    3.7265 H       1  UNL1        0.0428
     39 H          -1.1344    0.1739    3.6543 H       1  UNL1        0.0428
     40 H          -1.6237    1.6995    4.3783 H       1  UNL1        0.0428
     41 H          -2.4970    3.5827    2.5410 H       1  UNL1        0.0428
     42 H          -1.8329    3.3265    0.9078 H       1  UNL1        0.0428
     43 H          -0.7006    3.6913    2.3114 H       1  UNL1        0.0428
     44 H          -4.0801    1.5986    1.5521 H       1  UNL1        0.0654
     45 H          -5.7700   -0.9776   -0.3515 H       1  UNL1        0.0292
     46 H          -6.0882    0.4590    0.6643 H       1  UNL1        0.0292
     47 H          -5.6646    0.6987   -1.0833 H       1  UNL1        0.0292
@<TRIPOS>BOND
     1     1     2    1
     2     2     3    1
     3     3     4   ar
     4     4     5   ar
     5     5     6    1
     6     6     7    1
     7     7     8   ar
     8     8     9   ar
     9     9    10   ar
    10    10    11    1
    11    10    12   ar
    12    12    13   ar
    13    13    14    1
    14     5    15   ar
    15    15    16   ar
    16    16    17   ar
    17    17    18    1
    18    18    19    1
    19    18    20    1
    20    17    21   ar
    21    21    22   ar
    22    22    23    1
    23    22    24   ar
    24    24    25   ar
    25    25     3   ar
    26    13     7   ar
    27    25    16   ar
    28     1    26    1
    29     1    27    1
    30     1    28    1
    31     4    29    1
    32     6    30    1
    33     6    31    1
    34     8    32    1
    35    11    33    1
    36    11    34    1
    37    14    35    1
    38    14    36    1
    39    15    37    1
    40    19    38    1
    41    19    39    1
    42    19    40    1
    43    20    41    1
    44    20    42    1
    45    20    43    1
    46    21    44    1
    47    23    45    1
    48    23    46    1
    49    23    47    1
