@<TRIPOS>MOLECULE
*****
 54 54 0 0 0
SMALL
GASTEIGER

@<TRIPOS>ATOM
      1 C          -2.9322   -3.4442   -0.1624 C.3     1  UNL1        0.1409
      2 O          -3.0468   -3.3038    1.2302 O.3     1  UNL1       -0.3820
      3 C          -4.2852   -3.2744   -0.7869 C.3     1  UNL1        0.0792
      4 C          -5.1642   -4.3318   -0.2200 C.2     1  UNL1        0.3077
      5 O          -6.5026   -4.5070   -0.5519 O.3     1  UNL1       -0.4805
      6 O          -4.5660   -5.0614    0.6012 O.2     1  UNL1       -0.2509
      7 C          -1.9198   -2.4889   -0.6357 C.2     1  UNL1        0.2428
      8 O          -1.8087   -2.6088   -1.8983 O.2     1  UNL1       -0.2729
      9 N          -1.1254   -1.5407    0.0628 N.am    1  UNL1       -0.3019
     10 C          -0.1857   -0.7063   -0.6583 C.3     1  UNL1        0.0997
     11 C          -0.4686    0.7661   -0.4407 C.3     1  UNL1       -0.0220
     12 C          -1.8394    1.1852   -0.8941 C.3     1  UNL1       -0.0255
     13 C          -1.9829    2.6578   -0.6206 C.ar    1  UNL1       -0.0473
     14 C          -2.4955    3.0042    0.6281 C.ar    1  UNL1       -0.0586
     15 C          -2.6876    4.3134    1.0309 C.ar    1  UNL1       -0.0615
     16 C          -2.3418    5.2878    0.1222 C.ar    1  UNL1       -0.0617
     17 C          -1.8340    4.9617   -1.1158 C.ar    1  UNL1       -0.0615
     18 C          -1.6444    3.6545   -1.5125 C.ar    1  UNL1       -0.0586
     19 C           1.1606   -0.9790   -0.0891 C.2     1  UNL1        0.2334
     20 O           0.5290   -1.7962    0.6743 O.2     1  UNL1       -0.2738
     21 N           2.5088   -0.5171   -0.3206 N.am    1  UNL1       -0.3138
     22 C           3.3261   -1.2347    0.6254 C.3     1  UNL1        0.0119
     23 C           4.7764   -0.8659    0.5213 C.3     1  UNL1       -0.0350
     24 C           5.0417    0.5578    0.8308 C.3     1  UNL1       -0.0453
     25 C           6.5470    0.8636    0.7180 C.3     1  UNL1       -0.0626
     26 C           4.2790    1.5374   -0.0041 C.3     1  UNL1       -0.0626
     27 H          -2.6096   -4.4877   -0.3833 H       1  UNL1        0.0696
     28 H          -2.1657   -3.3977    1.6694 H       1  UNL1        0.2104
     29 H          -4.1823   -3.3588   -1.8977 H       1  UNL1        0.0408
     30 H          -4.7566   -2.3021   -0.5911 H       1  UNL1        0.0408
     31 H          -6.9916   -5.2949   -0.1289 H       1  UNL1        0.2951
     32 H          -1.3361   -1.5678    1.0846 H       1  UNL1        0.1495
     33 H          -0.2699   -0.9865   -1.7144 H       1  UNL1        0.0595
     34 H          -0.2895    1.0389    0.6176 H       1  UNL1        0.0291
     35 H           0.2513    1.3719   -1.0287 H       1  UNL1        0.0291
     36 H          -2.6002    0.6172   -0.3562 H       1  UNL1        0.0314
     37 H          -1.9349    1.0353   -1.9820 H       1  UNL1        0.0314
     38 H          -2.7728    2.2380    1.3558 H       1  UNL1        0.0620
     39 H          -3.0876    4.5367    2.0078 H       1  UNL1        0.0618
     40 H          -2.4647    6.3274    0.3687 H       1  UNL1        0.0618
     41 H          -1.5710    5.7560   -1.8098 H       1  UNL1        0.0618
     42 H          -1.2486    3.3513   -2.4746 H       1  UNL1        0.0620
     43 H           2.2476    0.1319   -1.0869 H       1  UNL1        0.1487
     44 H           2.9440   -1.0003    1.6602 H       1  UNL1        0.0462
     45 H           3.1814   -2.3387    0.5366 H       1  UNL1        0.0462
     46 H           5.3132   -1.5326    1.2551 H       1  UNL1        0.0283
     47 H           5.1583   -1.1474   -0.5064 H       1  UNL1        0.0283
     48 H           4.7367    0.7277    1.9009 H       1  UNL1        0.0296
     49 H           6.6973    1.9292    0.4948 H       1  UNL1        0.0232
     50 H           7.0054    0.2035   -0.0612 H       1  UNL1        0.0232
     51 H           7.0403    0.5933    1.6738 H       1  UNL1        0.0232
     52 H           4.2970    1.2484   -1.0637 H       1  UNL1        0.0232
     53 H           4.8246    2.5247    0.0607 H       1  UNL1        0.0232
     54 H           3.2461    1.6541    0.3742 H       1  UNL1        0.0232
@<TRIPOS>BOND
     1     1     2    1
     2     1     3    1
     3     3     4    1
     4     4     5    1
     5     4     6    2
     6     1     7    1
     7     7     8    2
     8     7     9   am
     9     9    10    1
    10    10    11    1
    11    11    12    1
    12    12    13    1
    13    13    14   ar
    14    14    15   ar
    15    15    16   ar
    16    16    17   ar
    17    17    18   ar
    18    10    19    1
    19    19    20    2
    20    19    21   am
    21    21    22    1
    22    22    23    1
    23    23    24    1
    24    24    25    1
    25    24    26    1
    26    18    13   ar
    27     1    27    1
    28     2    28    1
    29     3    29    1
    30     3    30    1
    31     5    31    1
    32     9    32    1
    33    10    33    1
    34    11    34    1
    35    11    35    1
    36    12    36    1
    37    12    37    1
    38    14    38    1
    39    15    39    1
    40    16    40    1
    41    17    41    1
    42    18    42    1
    43    21    43    1
    44    22    44    1
    45    22    45    1
    46    23    46    1
    47    23    47    1
    48    24    48    1
    49    25    49    1
    50    25    50    1
    51    25    51    1
    52    26    52    1
    53    26    53    1
    54    26    54    1
