@<TRIPOS>MOLECULE
*****
 59 63 0 0 0
SMALL
GASTEIGER

@<TRIPOS>ATOM
      1 C          -5.3643    3.9670    2.3723 C.3     1  UNL1        0.0788
      2 O          -5.2191    2.6793    2.8795 O.3     1  UNL1       -0.4950
      3 C          -4.3339    1.7337    2.4430 C.ar    1  UNL1        0.1237
      4 C          -3.4442    1.9378    1.4145 C.ar    1  UNL1       -0.0190
      5 C          -2.5572    0.9764    0.9842 C.ar    1  UNL1       -0.0439
      6 C          -2.5453   -0.2551    1.6012 C.ar    1  UNL1        0.0662
      7 C          -1.7918   -1.4048    1.4058 C.ar    1  UNL1        0.1922
      8 N          -0.7703   -1.5714    0.4297 N.ar    1  UNL1       -0.2412
      9 C           0.5537   -1.5259    0.5326 C.ar    1  UNL1        0.3362
     10 O           1.1799   -1.3093    1.6013 O.2     1  UNL1       -0.2459
     11 N           1.1491   -1.7412   -0.6543 N.ar    1  UNL1       -0.2874
     12 C           2.5753   -1.7714   -0.9583 C.3     1  UNL1        0.0533
     13 C           3.0966   -0.4421   -1.3314 C.ar    1  UNL1       -0.0241
     14 C           3.1306    0.0373   -2.6200 C.ar    1  UNL1       -0.0553
     15 C           3.6328    1.2964   -2.9102 C.ar    1  UNL1       -0.0395
     16 C           4.1017    2.0737   -1.8976 C.ar    1  UNL1        0.0826
     17 CL          4.7430    3.6779   -2.2561 Cl      1  UNL1       -0.0798
     18 C           4.0763    1.6065   -0.5847 C.ar    1  UNL1        0.1402
     19 O           4.5760    2.4632    0.4004 O.3     1  UNL1       -0.4765
     20 C           4.6350    2.1591    1.7671 C.3     1  UNL1        0.1931
     21 C           5.4616    0.9511    2.0562 C.3     1  UNL1       -0.0172
     22 C           3.2842    2.0355    2.3634 C.2     1  UNL1        0.3456
     23 O           2.2473    2.2131    1.6600 O.2     1  UNL1       -0.2468
     24 O           3.0735    1.7255    3.6944 O.3     1  UNL1       -0.4781
     25 C           3.5791    0.3695   -0.3279 C.ar    1  UNL1       -0.0136
     26 C           0.1362   -1.9286   -1.5313 C.ar    1  UNL1        0.0709
     27 C           0.1122   -2.1890   -2.8910 C.ar    1  UNL1       -0.0325
     28 C          -1.0841   -2.3423   -3.5707 C.ar    1  UNL1       -0.0175
     29 C          -2.2957   -2.2414   -2.9188 C.ar    1  UNL1        0.1321
     30 O          -3.4922   -2.3986   -3.6191 O.3     1  UNL1       -0.4057
     31 C          -4.0293   -3.7263   -3.7081 C.3     1  UNL1        0.5752
     32 F          -3.0818   -4.5314   -4.3551 F       1  UNL1       -0.1328
     33 F          -5.1749   -3.7239   -4.4572 F       1  UNL1       -0.1328
     34 F          -4.2021   -4.2631   -2.4539 F       1  UNL1       -0.1328
     35 C          -2.2597   -1.9818   -1.5647 C.ar    1  UNL1        0.0065
     36 C          -1.0707   -1.8263   -0.8729 C.ar    1  UNL1        0.0800
     37 N          -2.2498   -2.2726    2.3250 N.ar    1  UNL1       -0.0587
     38 O          -3.1962   -1.7255    3.0287 O.2     1  UNL1       -0.3525
     39 C          -3.4243   -0.4948    2.6368 C.ar    1  UNL1        0.1728
     40 C          -4.3169    0.4981    3.0568 C.ar    1  UNL1        0.0257
     41 H          -6.1882    4.4701    2.9565 H       1  UNL1        0.0660
     42 H          -4.4748    4.6114    2.4861 H       1  UNL1        0.0660
     43 H          -5.6378    3.9765    1.2859 H       1  UNL1        0.0660
     44 H          -3.4536    2.9017    0.9316 H       1  UNL1        0.0654
     45 H          -1.8553    1.1415    0.1707 H       1  UNL1        0.0627
     46 H           3.1646   -2.1356   -0.0905 H       1  UNL1        0.0543
     47 H           2.7882   -2.4955   -1.7841 H       1  UNL1        0.0543
     48 H           2.7619   -0.5735   -3.4174 H       1  UNL1        0.0621
     49 H           3.6389    1.6274   -3.9295 H       1  UNL1        0.0633
     50 H           5.1266    3.0562    2.2470 H       1  UNL1        0.0849
     51 H           4.8638    0.2402    2.6973 H       1  UNL1        0.0271
     52 H           6.3789    1.2567    2.6357 H       1  UNL1        0.0271
     53 H           5.8595    0.4617    1.1527 H       1  UNL1        0.0271
     54 H           2.2565    1.1722    3.9968 H       1  UNL1        0.2952
     55 H           3.5627    0.0119    0.7138 H       1  UNL1        0.0658
     56 H           1.0586   -2.2693   -3.4078 H       1  UNL1        0.0640
     57 H          -1.1022   -2.5470   -4.6392 H       1  UNL1        0.0655
     58 H          -3.2016   -1.9017   -1.0495 H       1  UNL1        0.0676
     59 H          -4.9871    0.2609    3.8742 H       1  UNL1        0.0692
@<TRIPOS>BOND
     1     1     2    1
     2     2     3    1
     3     3     4   ar
     4     4     5   ar
     5     5     6   ar
     6     6     7   ar
     7     7     8    1
     8     8     9   ar
     9     9    10    2
    10     9    11   ar
    11    11    12    1
    12    12    13    1
    13    13    14   ar
    14    14    15   ar
    15    15    16   ar
    16    16    17    1
    17    16    18   ar
    18    18    19    1
    19    19    20    1
    20    20    21    1
    21    20    22    1
    22    22    23    2
    23    22    24    1
    24    18    25   ar
    25    11    26   ar
    26    26    27   ar
    27    27    28   ar
    28    28    29   ar
    29    29    30    1
    30    30    31    1
    31    31    32    1
    32    31    33    1
    33    31    34    1
    34    29    35   ar
    35    35    36   ar
    36     7    37   ar
    37    37    38   ar
    38    38    39   ar
    39    39    40   ar
    40    40     3   ar
    41    39     6   ar
    42    36     8   ar
    43    25    13   ar
    44    36    26   ar
    45     1    41    1
    46     1    42    1
    47     1    43    1
    48     4    44    1
    49     5    45    1
    50    12    46    1
    51    12    47    1
    52    14    48    1
    53    15    49    1
    54    20    50    1
    55    21    51    1
    56    21    52    1
    57    21    53    1
    58    24    54    1
    59    25    55    1
    60    27    56    1
    61    28    57    1
    62    35    58    1
    63    40    59    1
