@<TRIPOS>MOLECULE
*****
 38 37 0 0 0
SMALL
GASTEIGER

@<TRIPOS>ATOM
      1 C          -2.9594    0.3335    0.7274 C.3     1  UNL1        0.0542
      2 C          -4.4789   -0.0473    0.6272 C.3     1  UNL1       -0.0523
      3 C          -2.1698   -0.8645    0.4124 C.3     1  UNL1       -0.0274
      4 C          -0.6706   -0.8169    0.5281 C.3     1  UNL1        0.0578
      5 C          -0.0299    0.2236   -0.3246 C.3     1  UNL1       -0.0271
      6 C           1.4579    0.3665   -0.2268 C.3     1  UNL1        0.0575
      7 C           2.3250   -0.7697   -0.5434 C.3     1  UNL1       -0.0300
      8 C           3.8153   -0.4448   -0.4149 C.3     1  UNL1        0.0455
      9 C           4.1625   -0.0258    0.9834 C.2     1  UNL1        0.3047
     10 O           5.5203    0.2675    1.0510 O.3     1  UNL1       -0.4806
     11 O           3.5585    0.1247    2.0806 O.2     1  UNL1       -0.2510
     12 C           1.8089    1.5981   -1.0374 C.2     1  UNL1        0.3078
     13 O           1.2105    2.7798   -0.5903 O.3     1  UNL1       -0.4804
     14 O           2.5567    1.7512   -2.0604 O.2     1  UNL1       -0.2507
     15 C          -0.2915   -2.2177   -0.0125 C.2     1  UNL1        0.3079
     16 O          -0.8126   -3.1215    0.9033 O.3     1  UNL1       -0.4804
     17 O           0.2714   -2.9495   -0.8985 O.2     1  UNL1       -0.2507
     18 C          -2.9065    1.3917   -0.3833 C.2     1  UNL1        0.3076
     19 O          -3.6973    2.4551    0.0050 O.3     1  UNL1       -0.4804
     20 O          -2.4614    1.7579   -1.5302 O.2     1  UNL1       -0.2507
     21 H          -2.7808    0.8234    1.6628 H       1  UNL1        0.0411
     22 H          -4.7289   -0.7085    1.4770 H       1  UNL1        0.0238
     23 H          -4.6179   -0.5582   -0.3432 H       1  UNL1        0.0238
     24 H          -5.0527    0.8955    0.6306 H       1  UNL1        0.0238
     25 H          -2.5815   -1.7420    0.9975 H       1  UNL1        0.0281
     26 H          -2.4159   -1.1527   -0.6555 H       1  UNL1        0.0281
     27 H          -0.3281   -0.7493    1.5600 H       1  UNL1        0.0414
     28 H          -0.4825    1.2405   -0.0173 H       1  UNL1        0.0281
     29 H          -0.3101    0.0835   -1.3676 H       1  UNL1        0.0281
     30 H           1.6488    0.6359    0.8635 H       1  UNL1        0.0414
     31 H           2.2109   -1.2102   -1.5427 H       1  UNL1        0.0278
     32 H           2.2051   -1.6164    0.1994 H       1  UNL1        0.0278
     33 H           4.1647    0.2982   -1.1296 H       1  UNL1        0.0378
     34 H           4.3710   -1.3882   -0.5969 H       1  UNL1        0.0378
     35 H           5.9672    0.5722    1.9081 H       1  UNL1        0.2951
     36 H           1.0323    3.5754   -1.2213 H       1  UNL1        0.2951
     37 H          -0.6866   -4.1192    0.8980 H       1  UNL1        0.2951
     38 H          -3.8243    3.3284   -0.4512 H       1  UNL1        0.2951
@<TRIPOS>BOND
     1     1     2    1
     2     1     3    1
     3     3     4    1
     4     4     5    1
     5     5     6    1
     6     6     7    1
     7     7     8    1
     8     8     9    1
     9     9    10    1
    10     9    11    2
    11     6    12    1
    12    12    13    1
    13    12    14    2
    14     4    15    1
    15    15    16    1
    16    15    17    2
    17     1    18    1
    18    18    19    1
    19    18    20    2
    20     1    21    1
    21     2    22    1
    22     2    23    1
    23     2    24    1
    24     3    25    1
    25     3    26    1
    26     4    27    1
    27     5    28    1
    28     5    29    1
    29     6    30    1
    30     7    31    1
    31     7    32    1
    32     8    33    1
    33     8    34    1
    34    10    35    1
    35    13    36    1
    36    16    37    1
    37    19    38    1
