
     RDKit          3D

 38 37  0  0  0  0  0  0  0  0999 V2000
   -2.9594    0.3335    0.7274 C   0  0  1  0  0  0  0  0  0  0  0  0
   -4.4789   -0.0473    0.6272 C   0  0  0  0  0  0  0  0  0  0  0  0
   -2.1698   -0.8645    0.4124 C   0  0  0  0  0  0  0  0  0  0  0  0
   -0.6706   -0.8169    0.5281 C   0  0  2  0  0  0  0  0  0  0  0  0
   -0.0299    0.2236   -0.3246 C   0  0  0  0  0  0  0  0  0  0  0  0
    1.4579    0.3665   -0.2268 C   0  0  1  0  0  0  0  0  0  0  0  0
    2.3250   -0.7697   -0.5434 C   0  0  0  0  0  0  0  0  0  0  0  0
    3.8153   -0.4448   -0.4149 C   0  0  0  0  0  0  0  0  0  0  0  0
    4.1625   -0.0258    0.9834 C   0  0  0  0  0  0  0  0  0  0  0  0
    5.5203    0.2675    1.0510 O   0  0  0  0  0  0  0  0  0  0  0  0
    3.5585    0.1247    2.0806 O   0  0  0  0  0  0  0  0  0  0  0  0
    1.8089    1.5981   -1.0374 C   0  0  0  0  0  0  0  0  0  0  0  0
    1.2105    2.7798   -0.5903 O   0  0  0  0  0  0  0  0  0  0  0  0
    2.5567    1.7512   -2.0604 O   0  0  0  0  0  0  0  0  0  0  0  0
   -0.2915   -2.2177   -0.0125 C   0  0  0  0  0  0  0  0  0  0  0  0
   -0.8126   -3.1215    0.9033 O   0  0  0  0  0  0  0  0  0  0  0  0
    0.2714   -2.9495   -0.8985 O   0  0  0  0  0  0  0  0  0  0  0  0
   -2.9065    1.3917   -0.3833 C   0  0  0  0  0  0  0  0  0  0  0  0
   -3.6973    2.4551    0.0050 O   0  0  0  0  0  0  0  0  0  0  0  0
   -2.4614    1.7579   -1.5302 O   0  0  0  0  0  0  0  0  0  0  0  0
   -2.7808    0.8234    1.6628 H   0  0  0  0  0  0  0  0  0  0  0  0
   -4.7289   -0.7085    1.4770 H   0  0  0  0  0  0  0  0  0  0  0  0
   -4.6179   -0.5582   -0.3432 H   0  0  0  0  0  0  0  0  0  0  0  0
   -5.0527    0.8955    0.6306 H   0  0  0  0  0  0  0  0  0  0  0  0
   -2.5815   -1.7420    0.9975 H   0  0  0  0  0  0  0  0  0  0  0  0
   -2.4159   -1.1527   -0.6555 H   0  0  0  0  0  0  0  0  0  0  0  0
   -0.3281   -0.7493    1.5600 H   0  0  0  0  0  0  0  0  0  0  0  0
   -0.4825    1.2405   -0.0173 H   0  0  0  0  0  0  0  0  0  0  0  0
   -0.3101    0.0835   -1.3676 H   0  0  0  0  0  0  0  0  0  0  0  0
    1.6488    0.6359    0.8635 H   0  0  0  0  0  0  0  0  0  0  0  0
    2.2109   -1.2102   -1.5427 H   0  0  0  0  0  0  0  0  0  0  0  0
    2.2051   -1.6164    0.1994 H   0  0  0  0  0  0  0  0  0  0  0  0
    4.1647    0.2982   -1.1296 H   0  0  0  0  0  0  0  0  0  0  0  0
    4.3710   -1.3882   -0.5969 H   0  0  0  0  0  0  0  0  0  0  0  0
    5.9672    0.5722    1.9081 H   0  0  0  0  0  0  0  0  0  0  0  0
    1.0323    3.5754   -1.2213 H   0  0  0  0  0  0  0  0  0  0  0  0
   -0.6866   -4.1192    0.8980 H   0  0  0  0  0  0  0  0  0  0  0  0
   -3.8243    3.3284   -0.4512 H   0  0  0  0  0  0  0  0  0  0  0  0
  1  2  1  0
  1  3  1  0
  3  4  1  0
  4  5  1  0
  5  6  1  0
  6  7  1  0
  7  8  1  0
  8  9  1  0
  9 10  1  0
  9 11  2  0
  6 12  1  0
 12 13  1  0
 12 14  2  0
  4 15  1  0
 15 16  1  0
 15 17  2  0
  1 18  1  0
 18 19  1  0
 18 20  2  0
  1 21  1  1
  2 22  1  0
  2 23  1  0
  2 24  1  0
  3 25  1  0
  3 26  1  0
  4 27  1  1
  5 28  1  0
  5 29  1  0
  6 30  1  1
  7 31  1  0
  7 32  1  0
  8 33  1  0
  8 34  1  0
 10 35  1  0
 13 36  1  0
 16 37  1  0
 19 38  1  0
M  END
$$$$
