@<TRIPOS>MOLECULE
*****
 36 39 0 0 0
SMALL
GASTEIGER

@<TRIPOS>ATOM
      1 C          -0.5300    2.9105    1.4415 C.3     1  UNL1        0.0789
      2 O          -0.2275    1.7212    0.7774 O.3     1  UNL1       -0.4932
      3 C          -1.2151    0.9240    0.2417 C.ar    1  UNL1        0.1432
      4 C          -2.5621    1.2179    0.3076 C.ar    1  UNL1        0.0079
      5 C          -3.5236    0.3741   -0.2549 C.ar    1  UNL1        0.0745
      6 N          -4.8288    0.6586   -0.1967 N.ar    1  UNL1       -0.2549
      7 C          -5.7944   -0.1299   -0.7344 C.ar    1  UNL1        0.0283
      8 C          -5.3827   -1.2962   -1.3768 C.ar    1  UNL1       -0.0430
      9 C          -4.0440   -1.5820   -1.4308 C.ar    1  UNL1       -0.0511
     10 C          -3.0676   -0.7669   -0.8776 C.ar    1  UNL1        0.0024
     11 C          -1.7196   -1.0626   -0.9434 C.ar    1  UNL1       -0.0277
     12 C          -0.7712   -0.2421   -0.3969 C.ar    1  UNL1        0.0765
     13 N           0.6345   -0.4956   -0.4132 N.am    1  UNL1       -0.2785
     14 C           1.2573   -1.1669    0.6710 C.2     1  UNL1        0.2509
     15 O           0.5572   -1.5294    1.6344 O.2     1  UNL1       -0.2698
     16 C           2.7327   -1.4257    0.6365 C.ar    1  UNL1        0.0700
     17 C           3.1757   -2.6807    0.9809 C.ar    1  UNL1       -0.0095
     18 S           4.9901   -2.4762    0.8055 S.2     1  UNL1       -0.0928
     19 C           4.9678   -0.8010    0.3126 C.ar    1  UNL1        0.0564
     20 C           5.9761    0.0998   -0.0105 C.ar    1  UNL1        0.0451
     21 N           5.6971    1.3574   -0.3611 N.ar    1  UNL1       -0.2426
     22 C           4.3847    1.6752   -0.3766 C.ar    1  UNL1        0.1166
     23 N           3.4017    0.8408   -0.0731 N.ar    1  UNL1       -0.2341
     24 C           3.6245   -0.4825    0.3008 C.ar    1  UNL1        0.0933
     25 H           0.2439    3.6896    1.1948 H       1  UNL1        0.0660
     26 H          -1.4842    3.3831    1.1499 H       1  UNL1        0.0660
     27 H          -0.5473    2.7617    2.5551 H       1  UNL1        0.0660
     28 H          -2.9298    2.1152    0.7948 H       1  UNL1        0.0676
     29 H          -6.8098    0.1787   -0.6447 H       1  UNL1        0.0830
     30 H          -6.1444   -1.9302   -1.8124 H       1  UNL1        0.0633
     31 H          -3.6940   -2.4879   -1.9312 H       1  UNL1        0.0625
     32 H          -1.4010   -1.9705   -1.4428 H       1  UNL1        0.0644
     33 H           1.2530   -0.2073   -1.1984 H       1  UNL1        0.1552
     34 H           2.6898   -3.5917    1.2879 H       1  UNL1        0.0702
     35 H           6.9867   -0.2948    0.0465 H       1  UNL1        0.0842
     36 H           4.1044    2.7124   -0.6636 H       1  UNL1        0.1047
@<TRIPOS>BOND
     1     1     2    1
     2     2     3    1
     3     3     4   ar
     4     4     5   ar
     5     5     6   ar
     6     6     7   ar
     7     7     8   ar
     8     8     9   ar
     9     9    10   ar
    10    10    11   ar
    11    11    12   ar
    12    12    13    1
    13    13    14   am
    14    14    15    2
    15    14    16    1
    16    16    17   ar
    17    17    18   ar
    18    18    19   ar
    19    19    20   ar
    20    20    21   ar
    21    21    22   ar
    22    22    23   ar
    23    23    24   ar
    24    12     3   ar
    25    24    16   ar
    26    10     5   ar
    27    24    19   ar
    28     1    25    1
    29     1    26    1
    30     1    27    1
    31     4    28    1
    32     7    29    1
    33     8    30    1
    34     9    31    1
    35    11    32    1
    36    13    33    1
    37    17    34    1
    38    20    35    1
    39    22    36    1
