@<TRIPOS>MOLECULE
*****
 56 58 0 0 0
SMALL
GASTEIGER

@<TRIPOS>ATOM
      1 C          -1.3210   -0.5368   -0.4808 C.3     1  UNL1        0.0218
      2 C          -2.3580    0.1204   -1.3625 C.3     1  UNL1       -0.0181
      3 C          -3.7202    0.0307   -0.8281 C.ar    1  UNL1       -0.0467
      4 C          -4.4667   -1.0747   -1.1937 C.ar    1  UNL1       -0.0577
      5 C          -5.7583   -1.2460   -0.7416 C.ar    1  UNL1       -0.0466
      6 C          -6.3196   -0.2856    0.0994 C.ar    1  UNL1        0.0647
      7 C          -5.5683    0.8153    0.4601 C.ar    1  UNL1       -0.0466
      8 C          -4.2804    0.9776    0.0040 C.ar    1  UNL1       -0.0577
      9 C          -7.7005   -0.5379    0.5397 C.2     1  UNL1        0.3081
     10 N          -8.5920   -1.2562   -0.3051 N.pl3   1  UNL1       -0.2466
     11 N          -8.0591   -0.0856    1.7067 N.2     1  UNL1       -0.0994
     12 C          -1.2915    0.1018    0.8870 C.3     1  UNL1       -0.0432
     13 C          -0.7543    1.4956    0.8523 C.3     1  UNL1       -0.0524
     14 C           0.7587    1.5394    0.9439 C.3     1  UNL1       -0.0524
     15 C           1.3898    1.3288   -0.3892 C.3     1  UNL1       -0.0432
     16 C           1.3847   -0.0681   -0.8872 C.3     1  UNL1        0.0218
     17 C           2.1472   -1.0576   -0.0553 C.3     1  UNL1       -0.0181
     18 C           3.5857   -0.7072    0.0606 C.ar    1  UNL1       -0.0467
     19 C           4.4353   -1.2307   -0.9166 C.ar    1  UNL1       -0.0577
     20 C           5.8054   -0.9971   -0.9487 C.ar    1  UNL1       -0.0466
     21 C           6.3355   -0.2035    0.0460 C.ar    1  UNL1        0.0647
     22 C           5.5305    0.3239    1.0169 C.ar    1  UNL1       -0.0466
     23 C           4.1737    0.0787    1.0287 C.ar    1  UNL1       -0.0577
     24 C           7.7802    0.0248   -0.0136 C.2     1  UNL1        0.3081
     25 N           8.5556    1.1413    0.4178 N.pl3   1  UNL1       -0.2466
     26 N           8.6099   -0.8287   -0.5069 N.2     1  UNL1       -0.0994
     27 C          -0.0086   -0.4970   -1.1530 C.2     1  UNL1        0.1401
     28 O          -0.2541   -0.9921   -2.2629 O.2     1  UNL1       -0.2968
     29 H          -1.6151   -1.6018   -0.3685 H       1  UNL1        0.0381
     30 H          -2.0599    1.1716   -1.6203 H       1  UNL1        0.0320
     31 H          -2.2821   -0.4229   -2.3486 H       1  UNL1        0.0320
     32 H          -4.0664   -1.8384   -1.8425 H       1  UNL1        0.0620
     33 H          -6.3199   -2.1276   -1.0478 H       1  UNL1        0.0626
     34 H          -6.0219    1.5385    1.1067 H       1  UNL1        0.0626
     35 H          -3.7074    1.8463    0.2963 H       1  UNL1        0.0620
     36 H          -9.0859   -1.2198   -1.2010 H       1  UNL1        0.2884
     37 H          -9.0003   -1.0312   -1.2380 H       1  UNL1        0.2884
     38 H          -7.3118    0.4237    2.2263 H       1  UNL1        0.3633
     39 H          -2.3357    0.1343    1.2601 H       1  UNL1        0.0272
     40 H          -0.7487   -0.5369    1.6239 H       1  UNL1        0.0272
     41 H          -1.1365    2.0941    1.7297 H       1  UNL1        0.0265
     42 H          -1.0501    2.0177   -0.0654 H       1  UNL1        0.0265
     43 H           1.0007    2.6065    1.2266 H       1  UNL1        0.0265
     44 H           1.1505    0.9446    1.7702 H       1  UNL1        0.0265
     45 H           2.4212    1.7874   -0.4155 H       1  UNL1        0.0272
     46 H           0.8157    1.9384   -1.1174 H       1  UNL1        0.0272
     47 H           1.9077   -0.0475   -1.8865 H       1  UNL1        0.0381
     48 H           2.0416   -2.0469   -0.5462 H       1  UNL1        0.0320
     49 H           1.7567   -1.1659    0.9731 H       1  UNL1        0.0320
     50 H           4.0242   -1.8621   -1.7110 H       1  UNL1        0.0620
     51 H           6.3979   -1.4331   -1.7318 H       1  UNL1        0.0626
     52 H           5.9787    0.9420    1.7823 H       1  UNL1        0.0626
     53 H           3.5022    0.4759    1.7775 H       1  UNL1        0.0620
     54 H           8.9325    1.8765   -0.2251 H       1  UNL1        0.2884
     55 H           8.5406    0.8855    1.4465 H       1  UNL1        0.2884
     56 H           8.2312   -1.7224   -0.8800 H       1  UNL1        0.3633
@<TRIPOS>BOND
     1     1     2    1
     2     2     3    1
     3     3     4   ar
     4     4     5   ar
     5     5     6   ar
     6     6     7   ar
     7     7     8   ar
     8     6     9    1
     9     9    10    1
    10     9    11    2
    11     1    12    1
    12    12    13    1
    13    13    14    1
    14    14    15    1
    15    15    16    1
    16    16    17    1
    17    17    18    1
    18    18    19   ar
    19    19    20   ar
    20    20    21   ar
    21    21    22   ar
    22    22    23   ar
    23    21    24    1
    24    24    25    1
    25    24    26    2
    26    16    27    1
    27    27    28    2
    28    27     1    1
    29     8     3   ar
    30    23    18   ar
    31     1    29    1
    32     2    30    1
    33     2    31    1
    34     4    32    1
    35     5    33    1
    36     7    34    1
    37     8    35    1
    38    10    36    1
    39    10    37    1
    40    11    38    1
    41    12    39    1
    42    12    40    1
    43    13    41    1
    44    13    42    1
    45    14    43    1
    46    14    44    1
    47    15    45    1
    48    15    46    1
    49    16    47    1
    50    17    48    1
    51    17    49    1
    52    19    50    1
    53    20    51    1
    54    22    52    1
    55    23    53    1
    56    25    54    1
    57    25    55    1
    58    26    56    1
