@<TRIPOS>MOLECULE
*****
 55 58 0 0 0
SMALL
GASTEIGER

@<TRIPOS>ATOM
      1 C           7.3647    0.6565   -3.2943 C.3     1  UNL1        0.0183
      2 N           7.6296    1.1975   -1.9882 N.ar    1  UNL1       -0.2772
      3 C           8.7707    1.6921   -1.5489 C.ar    1  UNL1        0.4210
      4 O           9.8788    1.8202   -2.1533 O.2     1  UNL1       -0.2226
      5 O           8.6262    2.0786   -0.2929 O.2     1  UNL1       -0.4074
      6 C           7.4174    1.8467    0.0962 C.ar    1  UNL1        0.1570
      7 C           6.7334    2.0475    1.2959 C.ar    1  UNL1       -0.0165
      8 C           5.4093    1.6705    1.3690 C.ar    1  UNL1       -0.0504
      9 C           4.7023    1.1041    0.3409 C.ar    1  UNL1       -0.0157
     10 C           3.3175    0.6843    0.4018 C.ar    1  UNL1       -0.0178
     11 C           2.8309   -0.3691   -0.3615 C.ar    1  UNL1       -0.0538
     12 C           1.5145   -0.7546   -0.2779 C.ar    1  UNL1       -0.0579
     13 C           0.5940   -0.1557    0.5406 C.ar    1  UNL1       -0.0446
     14 C          -0.7943   -0.6021    0.6706 C.3     1  UNL1        0.0041
     15 C          -1.7017    0.0712   -0.3258 C.3     1  UNL1        0.1142
     16 C          -1.3007   -0.2031   -1.6856 C.1     1  UNL1        0.0852
     17 N          -0.9855   -0.4274   -2.8271 N.1     1  UNL1       -0.1946
     18 N          -3.0392   -0.5052   -0.0833 N.am    1  UNL1       -0.2974
     19 C          -4.0574    0.1826    0.5366 C.2     1  UNL1        0.2441
     20 O          -3.8326    1.3878    0.9367 O.2     1  UNL1       -0.2729
     21 C          -5.3975   -0.3690    0.7764 C.3     1  UNL1        0.1466
     22 C          -5.5688   -0.6213    2.2837 C.3     1  UNL1        0.0308
     23 N          -6.2285   -1.8860    2.4035 N.3     1  UNL1       -0.3130
     24 C          -7.6174   -1.9027    2.0700 C.3     1  UNL1       -0.0019
     25 C          -7.8668   -1.4091    0.6771 C.3     1  UNL1       -0.0169
     26 C          -6.8397   -1.7611   -0.3385 C.3     1  UNL1        0.0499
     27 O          -5.5133   -1.5988    0.1027 O.3     1  UNL1       -0.3660
     28 C           1.0753    0.9291    1.3375 C.ar    1  UNL1       -0.0579
     29 C           2.4008    1.2828    1.2196 C.ar    1  UNL1       -0.0538
     30 C           5.4130    0.9187   -0.8385 C.ar    1  UNL1       -0.0267
     31 C           6.7332    1.2701   -0.9823 C.ar    1  UNL1        0.0904
     32 H           7.0542   -0.4181   -3.2446 H       1  UNL1        0.0458
     33 H           8.2871    0.6559   -3.9266 H       1  UNL1        0.0458
     34 H           6.6059    1.2376   -3.8484 H       1  UNL1        0.0458
     35 H           7.2601    2.4889    2.1290 H       1  UNL1        0.0655
     36 H           4.8867    1.8344    2.3097 H       1  UNL1        0.0625
     37 H           3.5536   -0.8687   -1.0220 H       1  UNL1        0.0624
     38 H           1.1866   -1.5882   -0.9011 H       1  UNL1        0.0620
     39 H          -0.9300   -1.7036    0.5898 H       1  UNL1        0.0341
     40 H          -1.1434   -0.3766    1.7270 H       1  UNL1        0.0341
     41 H          -1.7399    1.1644   -0.1526 H       1  UNL1        0.0660
     42 H          -3.1834   -1.4972   -0.4126 H       1  UNL1        0.1500
     43 H          -6.1716    0.3267    0.4286 H       1  UNL1        0.0706
     44 H          -6.0815    0.2048    2.7710 H       1  UNL1        0.0454
     45 H          -4.5733   -0.7475    2.7812 H       1  UNL1        0.0454
     46 H          -5.7146   -2.6642    1.9378 H       1  UNL1        0.1220
     47 H          -8.2717   -1.3384    2.7695 H       1  UNL1        0.0425
     48 H          -7.9555   -2.9657    2.1111 H       1  UNL1        0.0425
     49 H          -8.0613   -0.3165    0.6415 H       1  UNL1        0.0300
     50 H          -8.8446   -1.8791    0.3327 H       1  UNL1        0.0300
     51 H          -6.9543   -1.0223   -1.1752 H       1  UNL1        0.0560
     52 H          -6.9332   -2.7961   -0.7082 H       1  UNL1        0.0560
     53 H           0.3641    1.4013    1.9718 H       1  UNL1        0.0620
     54 H           2.7778    2.1228    1.8401 H       1  UNL1        0.0624
     55 H           4.9140    0.4700   -1.7145 H       1  UNL1        0.0645
@<TRIPOS>BOND
     1     1     2    1
     2     2     3   ar
     3     3     4    2
     4     3     5   ar
     5     5     6   ar
     6     6     7   ar
     7     7     8   ar
     8     8     9   ar
     9     9    10    1
    10    10    11   ar
    11    11    12   ar
    12    12    13   ar
    13    13    14    1
    14    14    15    1
    15    15    16    1
    16    16    17    3
    17    15    18    1
    18    18    19   am
    19    19    20    2
    20    19    21    1
    21    21    22    1
    22    22    23    1
    23    23    24    1
    24    24    25    1
    25    25    26    1
    26    26    27    1
    27    13    28   ar
    28    28    29   ar
    29     9    30   ar
    30    30    31   ar
    31    31     2   ar
    32    31     6   ar
    33    29    10   ar
    34    27    21    1
    35     1    32    1
    36     1    33    1
    37     1    34    1
    38     7    35    1
    39     8    36    1
    40    11    37    1
    41    12    38    1
    42    14    39    1
    43    14    40    1
    44    15    41    1
    45    18    42    1
    46    21    43    1
    47    22    44    1
    48    22    45    1
    49    23    46    1
    50    24    47    1
    51    24    48    1
    52    25    49    1
    53    25    50    1
    54    26    51    1
    55    26    52    1
    56    28    53    1
    57    29    54    1
    58    30    55    1
