
     RDKit          3D

 55 58  0  0  0  0  0  0  0  0999 V2000
    7.3647    0.6565   -3.2943 C   0  0  0  0  0  0  0  0  0  0  0  0
    7.6296    1.1975   -1.9882 N   0  0  0  0  0  0  0  0  0  0  0  0
    8.7707    1.6921   -1.5489 C   0  0  0  0  0  0  0  0  0  0  0  0
    9.8788    1.8202   -2.1533 O   0  0  0  0  0  0  0  0  0  0  0  0
    8.6262    2.0786   -0.2929 O   0  0  0  0  0  0  0  0  0  0  0  0
    7.4174    1.8467    0.0962 C   0  0  0  0  0  0  0  0  0  0  0  0
    6.7334    2.0475    1.2959 C   0  0  0  0  0  0  0  0  0  0  0  0
    5.4093    1.6705    1.3690 C   0  0  0  0  0  0  0  0  0  0  0  0
    4.7023    1.1041    0.3409 C   0  0  0  0  0  0  0  0  0  0  0  0
    3.3175    0.6843    0.4018 C   0  0  0  0  0  0  0  0  0  0  0  0
    2.8309   -0.3691   -0.3615 C   0  0  0  0  0  0  0  0  0  0  0  0
    1.5145   -0.7546   -0.2779 C   0  0  0  0  0  0  0  0  0  0  0  0
    0.5940   -0.1557    0.5406 C   0  0  0  0  0  0  0  0  0  0  0  0
   -0.7943   -0.6021    0.6706 C   0  0  0  0  0  0  0  0  0  0  0  0
   -1.7017    0.0712   -0.3258 C   0  0  1  0  0  0  0  0  0  0  0  0
   -1.3007   -0.2031   -1.6856 C   0  0  0  0  0  0  0  0  0  0  0  0
   -0.9855   -0.4274   -2.8271 N   0  0  0  0  0  0  0  0  0  0  0  0
   -3.0392   -0.5052   -0.0833 N   0  0  0  0  0  0  0  0  0  0  0  0
   -4.0574    0.1826    0.5366 C   0  0  0  0  0  0  0  0  0  0  0  0
   -3.8326    1.3878    0.9367 O   0  0  0  0  0  0  0  0  0  0  0  0
   -5.3975   -0.3690    0.7764 C   0  0  2  0  0  0  0  0  0  0  0  0
   -5.5688   -0.6213    2.2837 C   0  0  0  0  0  0  0  0  0  0  0  0
   -6.2285   -1.8860    2.4035 N   0  0  0  0  0  0  0  0  0  0  0  0
   -7.6174   -1.9027    2.0700 C   0  0  0  0  0  0  0  0  0  0  0  0
   -7.8668   -1.4091    0.6771 C   0  0  0  0  0  0  0  0  0  0  0  0
   -6.8397   -1.7611   -0.3385 C   0  0  0  0  0  0  0  0  0  0  0  0
   -5.5133   -1.5988    0.1027 O   0  0  0  0  0  0  0  0  0  0  0  0
    1.0753    0.9291    1.3375 C   0  0  0  0  0  0  0  0  0  0  0  0
    2.4008    1.2828    1.2196 C   0  0  0  0  0  0  0  0  0  0  0  0
    5.4130    0.9187   -0.8385 C   0  0  0  0  0  0  0  0  0  0  0  0
    6.7332    1.2701   -0.9823 C   0  0  0  0  0  0  0  0  0  0  0  0
    7.0542   -0.4181   -3.2446 H   0  0  0  0  0  0  0  0  0  0  0  0
    8.2871    0.6559   -3.9266 H   0  0  0  0  0  0  0  0  0  0  0  0
    6.6059    1.2376   -3.8484 H   0  0  0  0  0  0  0  0  0  0  0  0
    7.2601    2.4889    2.1290 H   0  0  0  0  0  0  0  0  0  0  0  0
    4.8867    1.8344    2.3097 H   0  0  0  0  0  0  0  0  0  0  0  0
    3.5536   -0.8687   -1.0220 H   0  0  0  0  0  0  0  0  0  0  0  0
    1.1866   -1.5882   -0.9011 H   0  0  0  0  0  0  0  0  0  0  0  0
   -0.9300   -1.7036    0.5898 H   0  0  0  0  0  0  0  0  0  0  0  0
   -1.1434   -0.3766    1.7270 H   0  0  0  0  0  0  0  0  0  0  0  0
   -1.7399    1.1644   -0.1526 H   0  0  0  0  0  0  0  0  0  0  0  0
   -3.1834   -1.4972   -0.4126 H   0  0  0  0  0  0  0  0  0  0  0  0
   -6.1716    0.3267    0.4286 H   0  0  0  0  0  0  0  0  0  0  0  0
   -6.0815    0.2048    2.7710 H   0  0  0  0  0  0  0  0  0  0  0  0
   -4.5733   -0.7475    2.7812 H   0  0  0  0  0  0  0  0  0  0  0  0
   -5.7146   -2.6642    1.9378 H   0  0  0  0  0  0  0  0  0  0  0  0
   -8.2717   -1.3384    2.7695 H   0  0  0  0  0  0  0  0  0  0  0  0
   -7.9555   -2.9657    2.1111 H   0  0  0  0  0  0  0  0  0  0  0  0
   -8.0613   -0.3165    0.6415 H   0  0  0  0  0  0  0  0  0  0  0  0
   -8.8446   -1.8791    0.3327 H   0  0  0  0  0  0  0  0  0  0  0  0
   -6.9543   -1.0223   -1.1752 H   0  0  0  0  0  0  0  0  0  0  0  0
   -6.9332   -2.7961   -0.7082 H   0  0  0  0  0  0  0  0  0  0  0  0
    0.3641    1.4013    1.9718 H   0  0  0  0  0  0  0  0  0  0  0  0
    2.7778    2.1228    1.8401 H   0  0  0  0  0  0  0  0  0  0  0  0
    4.9140    0.4700   -1.7145 H   0  0  0  0  0  0  0  0  0  0  0  0
  1  2  1  0
  2  3  1  0
  3  4  2  0
  3  5  1  0
  5  6  1  0
  6  7  2  0
  7  8  1  0
  8  9  2  0
  9 10  1  0
 10 11  2  0
 11 12  1  0
 12 13  2  0
 13 14  1  0
 14 15  1  0
 15 16  1  0
 16 17  3  0
 15 18  1  0
 18 19  1  0
 19 20  2  0
 19 21  1  0
 21 22  1  0
 22 23  1  0
 23 24  1  0
 24 25  1  0
 25 26  1  0
 26 27  1  0
 13 28  1  0
 28 29  2  0
  9 30  1  0
 30 31  2  0
 31  2  1  0
 31  6  1  0
 29 10  1  0
 27 21  1  0
  1 32  1  0
  1 33  1  0
  1 34  1  0
  7 35  1  0
  8 36  1  0
 11 37  1  0
 12 38  1  0
 14 39  1  0
 14 40  1  0
 15 41  1  1
 18 42  1  0
 21 43  1  6
 22 44  1  0
 22 45  1  0
 23 46  1  0
 24 47  1  0
 24 48  1  0
 25 49  1  0
 25 50  1  0
 26 51  1  0
 26 52  1  0
 28 53  1  0
 29 54  1  0
 30 55  1  0
M  END
$$$$
