@<TRIPOS>MOLECULE
*****
 57 61 0 0 0
SMALL
GASTEIGER

@<TRIPOS>ATOM
      1 C          -2.5736   -4.1157   -0.4519 C.3     1  UNL1       -0.0372
      2 C          -1.8708   -3.0745    0.3513 C.3     1  UNL1        0.0717
      3 C          -2.1760   -1.7232   -0.2686 C.3     1  UNL1        0.0414
      4 N          -1.3392   -0.7525    0.4400 N.am    1  UNL1       -0.2895
      5 C          -1.9195    0.3095    1.1846 C.2     1  UNL1        0.2491
      6 O          -1.2026    1.1447    1.7853 O.2     1  UNL1       -0.2699
      7 C          -3.3658    0.4124    1.2403 C.ar    1  UNL1        0.0641
      8 C          -4.0677   -0.2466    2.2572 C.ar    1  UNL1       -0.0461
      9 C          -5.4517   -0.1239    2.2737 C.ar    1  UNL1       -0.0425
     10 C          -6.1127    0.6232    1.3188 C.ar    1  UNL1        0.0431
     11 CL         -7.8456    0.7280    1.4069 Cl      1  UNL1       -0.0835
     12 C          -5.4039    1.2785    0.3063 C.ar    1  UNL1       -0.0155
     13 C          -4.0142    1.1567    0.2879 C.ar    1  UNL1        0.0996
     14 N          -3.2917    1.8216   -0.7354 N.ar    1  UNL1       -0.1495
     15 N          -3.5475    3.0677   -1.1663 N.ar    1  UNL1       -0.1556
     16 C          -2.6819    3.3917   -2.1412 C.ar    1  UNL1        0.0697
     17 C          -1.8647    2.3018   -2.3134 C.ar    1  UNL1        0.0697
     18 N          -2.2746    1.3744   -1.4371 N.ar    1  UNL1       -0.1556
     19 C           0.0950   -0.9562    0.3366 C.3     1  UNL1        0.0537
     20 C           0.6118   -0.0417   -0.7496 C.3     1  UNL1       -0.0068
     21 C           2.0835   -0.2075   -0.8997 C.ar    1  UNL1       -0.0449
     22 C           2.6050   -1.1268   -1.7813 C.ar    1  UNL1       -0.0585
     23 C           3.9947   -1.2496   -1.8866 C.ar    1  UNL1       -0.0608
     24 C           4.8150   -0.4556   -1.1134 C.ar    1  UNL1       -0.0510
     25 C           4.3191    0.4732   -0.2224 C.ar    1  UNL1        0.0194
     26 C           5.2016    1.3055    0.5894 C.ar    1  UNL1        0.1597
     27 N           4.7361    2.2130    1.4615 N.ar    1  UNL1       -0.2357
     28 C           5.5332    2.9889    2.2195 C.ar    1  UNL1        0.0314
     29 C           6.8933    2.8581    2.1070 C.ar    1  UNL1       -0.0254
     30 C           7.3835    1.9325    1.2178 C.ar    1  UNL1        0.0314
     31 N           6.5340    1.1785    0.4804 N.ar    1  UNL1       -0.2357
     32 C           2.9466    0.5759   -0.1363 C.ar    1  UNL1       -0.0478
     33 C           0.2946   -2.3847   -0.1389 C.3     1  UNL1        0.0669
     34 O          -0.5292   -3.2832    0.5306 O.3     1  UNL1       -0.3734
     35 H          -1.9670   -4.4042   -1.3089 H       1  UNL1        0.0255
     36 H          -3.5287   -3.6488   -0.8300 H       1  UNL1        0.0255
     37 H          -2.8692   -4.9488    0.2182 H       1  UNL1        0.0255
     38 H          -2.3750   -3.0507    1.3619 H       1  UNL1        0.0609
     39 H          -3.2383   -1.4433   -0.1281 H       1  UNL1        0.0490
     40 H          -1.8605   -1.7506   -1.3111 H       1  UNL1        0.0490
     41 H          -3.5306   -0.8265    2.9952 H       1  UNL1        0.0626
     42 H          -6.0034   -0.6282    3.0537 H       1  UNL1        0.0632
     43 H          -5.9147    1.8658   -0.4456 H       1  UNL1        0.0654
     44 H          -2.6249    4.3369   -2.7002 H       1  UNL1        0.0864
     45 H          -1.0636    2.2395   -3.0214 H       1  UNL1        0.0864
     46 H           0.6058   -0.7756    1.3050 H       1  UNL1        0.0526
     47 H           0.4086    1.0010   -0.4156 H       1  UNL1        0.0332
     48 H           0.1080   -0.1832   -1.7039 H       1  UNL1        0.0332
     49 H           1.9868   -1.7611   -2.4001 H       1  UNL1        0.0620
     50 H           4.3724   -1.9867   -2.5939 H       1  UNL1        0.0618
     51 H           5.8971   -0.5481   -1.1928 H       1  UNL1        0.0625
     52 H           5.1444    3.7171    2.9195 H       1  UNL1        0.0831
     53 H           7.5447    3.4754    2.7098 H       1  UNL1        0.0648
     54 H           8.4661    1.8314    1.1316 H       1  UNL1        0.0831
     55 H           2.5474    1.3006    0.5588 H       1  UNL1        0.0627
     56 H           1.3430   -2.7393    0.0438 H       1  UNL1        0.0578
     57 H           0.0378   -2.4669   -1.2130 H       1  UNL1        0.0578
@<TRIPOS>BOND
     1     1     2    1
     2     2     3    1
     3     3     4    1
     4     4     5   am
     5     5     6    2
     6     5     7    1
     7     7     8   ar
     8     8     9   ar
     9     9    10   ar
    10    10    11    1
    11    10    12   ar
    12    12    13   ar
    13    13    14    1
    14    14    15   ar
    15    15    16   ar
    16    16    17   ar
    17    17    18   ar
    18     4    19    1
    19    19    20    1
    20    20    21    1
    21    21    22   ar
    22    22    23   ar
    23    23    24   ar
    24    24    25   ar
    25    25    26    1
    26    26    27   ar
    27    27    28   ar
    28    28    29   ar
    29    29    30   ar
    30    30    31   ar
    31    25    32   ar
    32    19    33    1
    33    33    34    1
    34    34     2    1
    35    13     7   ar
    36    18    14   ar
    37    32    21   ar
    38    31    26   ar
    39     1    35    1
    40     1    36    1
    41     1    37    1
    42     2    38    1
    43     3    39    1
    44     3    40    1
    45     8    41    1
    46     9    42    1
    47    12    43    1
    48    16    44    1
    49    17    45    1
    50    19    46    1
    51    20    47    1
    52    20    48    1
    53    22    49    1
    54    23    50    1
    55    24    51    1
    56    28    52    1
    57    29    53    1
    58    30    54    1
    59    32    55    1
    60    33    56    1
    61    33    57    1
