
     RDKit          3D

 57 61  0  0  0  0  0  0  0  0999 V2000
   -2.5736   -4.1157   -0.4519 C   0  0  0  0  0  0  0  0  0  0  0  0
   -1.8708   -3.0745    0.3513 C   0  0  2  0  0  0  0  0  0  0  0  0
   -2.1760   -1.7232   -0.2686 C   0  0  0  0  0  0  0  0  0  0  0  0
   -1.3392   -0.7525    0.4400 N   0  0  0  0  0  0  0  0  0  0  0  0
   -1.9195    0.3095    1.1846 C   0  0  0  0  0  0  0  0  0  0  0  0
   -1.2026    1.1447    1.7853 O   0  0  0  0  0  0  0  0  0  0  0  0
   -3.3658    0.4124    1.2403 C   0  0  0  0  0  0  0  0  0  0  0  0
   -4.0677   -0.2466    2.2572 C   0  0  0  0  0  0  0  0  0  0  0  0
   -5.4517   -0.1239    2.2737 C   0  0  0  0  0  0  0  0  0  0  0  0
   -6.1127    0.6232    1.3188 C   0  0  0  0  0  0  0  0  0  0  0  0
   -7.8456    0.7280    1.4069 Cl  0  0  0  0  0  0  0  0  0  0  0  0
   -5.4039    1.2785    0.3063 C   0  0  0  0  0  0  0  0  0  0  0  0
   -4.0142    1.1567    0.2879 C   0  0  0  0  0  0  0  0  0  0  0  0
   -3.2917    1.8216   -0.7354 N   0  0  0  0  0  0  0  0  0  0  0  0
   -3.5475    3.0677   -1.1663 N   0  0  0  0  0  0  0  0  0  0  0  0
   -2.6819    3.3917   -2.1412 C   0  0  0  0  0  0  0  0  0  0  0  0
   -1.8647    2.3018   -2.3134 C   0  0  0  0  0  0  0  0  0  0  0  0
   -2.2746    1.3744   -1.4371 N   0  0  0  0  0  0  0  0  0  0  0  0
    0.0950   -0.9562    0.3366 C   0  0  2  0  0  0  0  0  0  0  0  0
    0.6118   -0.0417   -0.7496 C   0  0  0  0  0  0  0  0  0  0  0  0
    2.0835   -0.2075   -0.8997 C   0  0  0  0  0  0  0  0  0  0  0  0
    2.6050   -1.1268   -1.7813 C   0  0  0  0  0  0  0  0  0  0  0  0
    3.9947   -1.2496   -1.8866 C   0  0  0  0  0  0  0  0  0  0  0  0
    4.8150   -0.4556   -1.1134 C   0  0  0  0  0  0  0  0  0  0  0  0
    4.3191    0.4732   -0.2224 C   0  0  0  0  0  0  0  0  0  0  0  0
    5.2016    1.3055    0.5894 C   0  0  0  0  0  0  0  0  0  0  0  0
    4.7361    2.2130    1.4615 N   0  0  0  0  0  0  0  0  0  0  0  0
    5.5332    2.9889    2.2195 C   0  0  0  0  0  0  0  0  0  0  0  0
    6.8933    2.8581    2.1070 C   0  0  0  0  0  0  0  0  0  0  0  0
    7.3835    1.9325    1.2178 C   0  0  0  0  0  0  0  0  0  0  0  0
    6.5340    1.1785    0.4804 N   0  0  0  0  0  0  0  0  0  0  0  0
    2.9466    0.5759   -0.1363 C   0  0  0  0  0  0  0  0  0  0  0  0
    0.2946   -2.3847   -0.1389 C   0  0  0  0  0  0  0  0  0  0  0  0
   -0.5292   -3.2832    0.5306 O   0  0  0  0  0  0  0  0  0  0  0  0
   -1.9670   -4.4042   -1.3089 H   0  0  0  0  0  0  0  0  0  0  0  0
   -3.5287   -3.6488   -0.8300 H   0  0  0  0  0  0  0  0  0  0  0  0
   -2.8692   -4.9488    0.2182 H   0  0  0  0  0  0  0  0  0  0  0  0
   -2.3750   -3.0507    1.3619 H   0  0  0  0  0  0  0  0  0  0  0  0
   -3.2383   -1.4433   -0.1281 H   0  0  0  0  0  0  0  0  0  0  0  0
   -1.8605   -1.7506   -1.3111 H   0  0  0  0  0  0  0  0  0  0  0  0
   -3.5306   -0.8265    2.9952 H   0  0  0  0  0  0  0  0  0  0  0  0
   -6.0034   -0.6282    3.0537 H   0  0  0  0  0  0  0  0  0  0  0  0
   -5.9147    1.8658   -0.4456 H   0  0  0  0  0  0  0  0  0  0  0  0
   -2.6249    4.3369   -2.7002 H   0  0  0  0  0  0  0  0  0  0  0  0
   -1.0636    2.2395   -3.0214 H   0  0  0  0  0  0  0  0  0  0  0  0
    0.6058   -0.7756    1.3050 H   0  0  0  0  0  0  0  0  0  0  0  0
    0.4086    1.0010   -0.4156 H   0  0  0  0  0  0  0  0  0  0  0  0
    0.1080   -0.1832   -1.7039 H   0  0  0  0  0  0  0  0  0  0  0  0
    1.9868   -1.7611   -2.4001 H   0  0  0  0  0  0  0  0  0  0  0  0
    4.3724   -1.9867   -2.5939 H   0  0  0  0  0  0  0  0  0  0  0  0
    5.8971   -0.5481   -1.1928 H   0  0  0  0  0  0  0  0  0  0  0  0
    5.1444    3.7171    2.9195 H   0  0  0  0  0  0  0  0  0  0  0  0
    7.5447    3.4754    2.7098 H   0  0  0  0  0  0  0  0  0  0  0  0
    8.4661    1.8314    1.1316 H   0  0  0  0  0  0  0  0  0  0  0  0
    2.5474    1.3006    0.5588 H   0  0  0  0  0  0  0  0  0  0  0  0
    1.3430   -2.7393    0.0438 H   0  0  0  0  0  0  0  0  0  0  0  0
    0.0378   -2.4669   -1.2130 H   0  0  0  0  0  0  0  0  0  0  0  0
  1  2  1  0
  2  3  1  0
  3  4  1  0
  4  5  1  0
  5  6  2  0
  5  7  1  0
  7  8  2  0
  8  9  1  0
  9 10  2  0
 10 11  1  0
 10 12  1  0
 12 13  2  0
 13 14  1  0
 14 15  1  0
 15 16  2  0
 16 17  1  0
 17 18  2  0
  4 19  1  0
 19 20  1  0
 20 21  1  0
 21 22  2  0
 22 23  1  0
 23 24  2  0
 24 25  1  0
 25 26  1  0
 26 27  2  0
 27 28  1  0
 28 29  2  0
 29 30  1  0
 30 31  2  0
 25 32  2  0
 19 33  1  0
 33 34  1  0
 34  2  1  0
 13  7  1  0
 18 14  1  0
 32 21  1  0
 31 26  1  0
  1 35  1  0
  1 36  1  0
  1 37  1  0
  2 38  1  1
  3 39  1  0
  3 40  1  0
  8 41  1  0
  9 42  1  0
 12 43  1  0
 16 44  1  0
 17 45  1  0
 19 46  1  1
 20 47  1  0
 20 48  1  0
 22 49  1  0
 23 50  1  0
 24 51  1  0
 28 52  1  0
 29 53  1  0
 30 54  1  0
 32 55  1  0
 33 56  1  0
 33 57  1  0
M  END
$$$$
