@<TRIPOS>MOLECULE
*****
 43 45 0 0 0
SMALL
GASTEIGER

@<TRIPOS>ATOM
      1 C           3.7988    0.1168   -0.0046 C.3     1  UNL1       -0.0507
      2 C           3.1275   -0.9871   -0.7348 C.3     1  UNL1       -0.0401
      3 C           1.6853   -0.7706   -1.0868 C.3     1  UNL1       -0.0003
      4 N           0.9874    0.0971   -0.2001 N.3     1  UNL1       -0.2927
      5 C           1.6396    0.2888    1.0649 C.3     1  UNL1       -0.0003
      6 C           2.9222    1.0271    0.7821 C.3     1  UNL1       -0.0401
      7 C          -0.4261   -0.1944   -0.0666 C.3     1  UNL1        0.0470
      8 C          -1.0908   -0.2113   -1.3986 C.3     1  UNL1       -0.0303
      9 C          -1.7265   -1.5165   -1.7784 C.3     1  UNL1       -0.0511
     10 C          -2.5932   -1.9762   -0.6119 C.3     1  UNL1       -0.0529
     11 C          -1.6040   -2.3823    0.4452 C.3     1  UNL1       -0.0511
     12 C          -0.6055   -1.3511    0.8157 C.3     1  UNL1       -0.0303
     13 C          -0.9605    1.0342    0.6115 C.ar    1  UNL1       -0.0272
     14 C          -2.0685    0.8813    1.4141 C.ar    1  UNL1       -0.0568
     15 C          -2.6533    1.9438    2.0790 C.ar    1  UNL1       -0.0614
     16 C          -2.1360    3.2173    1.9578 C.ar    1  UNL1       -0.0617
     17 C          -1.0386    3.3776    1.1647 C.ar    1  UNL1       -0.0614
     18 C          -0.4517    2.3366    0.5028 C.ar    1  UNL1       -0.0568
     19 H           4.4466    0.7521   -0.6693 H       1  UNL1        0.0266
     20 H           4.5451   -0.3367    0.7121 H       1  UNL1        0.0266
     21 H           3.2531   -1.9774   -0.2179 H       1  UNL1        0.0278
     22 H           3.7255   -1.1297   -1.6839 H       1  UNL1        0.0278
     23 H           1.6577   -0.3269   -2.1037 H       1  UNL1        0.0427
     24 H           1.1957   -1.7643   -1.1280 H       1  UNL1        0.0427
     25 H           1.9078   -0.6670    1.5593 H       1  UNL1        0.0427
     26 H           0.9539    0.8112    1.7471 H       1  UNL1        0.0427
     27 H           3.3841    1.2768    1.7586 H       1  UNL1        0.0278
     28 H           2.7444    1.9482    0.1910 H       1  UNL1        0.0278
     29 H          -1.8832    0.5542   -1.5321 H       1  UNL1        0.0286
     30 H          -0.3482    0.0206   -2.1900 H       1  UNL1        0.0286
     31 H          -2.4207   -1.3495   -2.6189 H       1  UNL1        0.0266
     32 H          -1.0007   -2.3005   -1.9789 H       1  UNL1        0.0266
     33 H          -3.3431   -1.2494   -0.3072 H       1  UNL1        0.0265
     34 H          -3.1490   -2.9048   -0.8979 H       1  UNL1        0.0265
     35 H          -2.1421   -2.7876    1.3318 H       1  UNL1        0.0266
     36 H          -1.0730   -3.2836    0.0164 H       1  UNL1        0.0266
     37 H           0.3822   -1.8840    0.9711 H       1  UNL1        0.0286
     38 H          -0.8474   -1.0292    1.8744 H       1  UNL1        0.0286
     39 H          -2.5976   -0.0370    1.6181 H       1  UNL1        0.0621
     40 H          -3.5330    1.8718    2.7267 H       1  UNL1        0.0618
     41 H          -2.5175    4.1173    2.4352 H       1  UNL1        0.0618
     42 H          -0.5641    4.3254    1.0070 H       1  UNL1        0.0618
     43 H           0.4175    2.4187   -0.1356 H       1  UNL1        0.0621
@<TRIPOS>BOND
     1     1     2    1
     2     2     3    1
     3     3     4    1
     4     4     5    1
     5     5     6    1
     6     4     7    1
     7     7     8    1
     8     8     9    1
     9     9    10    1
    10    10    11    1
    11    11    12    1
    12     7    13    1
    13    13    14   ar
    14    14    15   ar
    15    15    16   ar
    16    16    17   ar
    17    17    18   ar
    18     6     1    1
    19    12     7    1
    20    18    13   ar
    21     1    19    1
    22     1    20    1
    23     2    21    1
    24     2    22    1
    25     3    23    1
    26     3    24    1
    27     5    25    1
    28     5    26    1
    29     6    27    1
    30     6    28    1
    31     8    29    1
    32     8    30    1
    33     9    31    1
    34     9    32    1
    35    10    33    1
    36    10    34    1
    37    11    35    1
    38    11    36    1
    39    12    37    1
    40    12    38    1
    41    14    39    1
    42    15    40    1
    43    16    41    1
    44    17    42    1
    45    18    43    1
