@<TRIPOS>MOLECULE
*****
 60 63 0 0 0
SMALL
GASTEIGER

@<TRIPOS>ATOM
      1 C          -1.8050    6.6942    3.1485 C.3     1  UNL1       -0.0319
      2 C          -1.2310    5.3932    2.6742 C.ar    1  UNL1        0.0068
      3 C           0.0063    4.8979    2.7488 C.ar    1  UNL1        0.0383
      4 N           0.2030    3.7031    2.2325 N.ar    1  UNL1       -0.2471
      5 C          -0.5734    3.0082    1.7092 C.ar    1  UNL1        0.1086
      6 C          -0.7216    1.6844    1.0440 C.ar    1  UNL1        0.0113
      7 C          -1.9206    1.2644    0.5435 C.ar    1  UNL1       -0.0102
      8 C          -2.0314    0.0245   -0.0746 C.ar    1  UNL1        0.1219
      9 O          -3.2527   -0.4014   -0.5832 O.3     1  UNL1       -0.4913
     10 C          -3.4142   -1.6534   -1.2174 C.3     1  UNL1        0.0971
     11 C          -4.8670   -1.7463   -1.6294 C.3     1  UNL1        0.0274
     12 C          -5.2212   -0.6291   -2.5815 C.3     1  UNL1       -0.0543
     13 C          -5.2045   -3.0618   -2.2897 C.3     1  UNL1       -0.0188
     14 C          -6.5386   -3.4006   -1.7097 C.3     1  UNL1        0.0484
     15 O          -6.9483   -2.3116   -0.9497 O.3     1  UNL1       -0.3791
     16 C          -5.7964   -1.7162   -0.4570 C.3     1  UNL1        0.0562
     17 C          -0.8842   -0.7390   -0.1502 C.ar    1  UNL1       -0.0078
     18 C           0.3358   -0.3431    0.3442 C.ar    1  UNL1        0.0408
     19 C           1.4732   -1.2246    0.2009 C.2     1  UNL1        0.2447
     20 O           1.3214   -2.3064   -0.4202 O.2     1  UNL1       -0.2702
     21 N           2.7685   -0.9584    0.7160 N.am    1  UNL1       -0.3047
     22 C           3.9090   -1.8316    0.5773 C.3     1  UNL1        0.0487
     23 C           4.3159   -2.4339    1.9235 C.3     1  UNL1       -0.0423
     24 C           5.0463   -1.1473   -0.0428 C.ar    1  UNL1        0.0087
     25 C           4.9487   -0.3418   -1.1556 C.ar    1  UNL1        0.0363
     26 N           6.0604    0.2597   -1.6648 N.ar    1  UNL1       -0.2321
     27 C           7.2762    0.1016   -1.1207 C.ar    1  UNL1        0.2339
     28 C           8.4863    0.7770   -1.6973 C.3     1  UNL1        0.4522
     29 F           8.7537    0.3875   -2.9793 F       1  UNL1       -0.1632
     30 F           9.5912    0.5647   -0.8970 F       1  UNL1       -0.1632
     31 F           8.2359    2.1483   -1.6715 F       1  UNL1       -0.1632
     32 N           7.3663   -0.6860   -0.0344 N.ar    1  UNL1       -0.2321
     33 C           6.3007   -1.3020    0.5071 C.ar    1  UNL1        0.0363
     34 C           0.3964    0.8885    0.9454 C.ar    1  UNL1       -0.0397
     35 S          -2.1256    4.0841    1.8309 S.2     1  UNL1       -0.0725
     36 H          -1.7023    7.4723    2.3516 H       1  UNL1        0.0283
     37 H          -2.8713    6.5748    3.4365 H       1  UNL1        0.0283
     38 H          -1.2935    7.0650    4.0379 H       1  UNL1        0.0283
     39 H           0.8398    5.4538    3.2196 H       1  UNL1        0.0838
     40 H          -2.8247    1.8812    0.6112 H       1  UNL1        0.0661
     41 H          -2.7696   -1.7808   -2.1114 H       1  UNL1        0.0703
     42 H          -3.1784   -2.4646   -0.5028 H       1  UNL1        0.0703
     43 H          -6.2930   -0.6535   -2.7735 H       1  UNL1        0.0237
     44 H          -4.6922   -0.8394   -3.5552 H       1  UNL1        0.0237
     45 H          -4.8768    0.3534   -2.2347 H       1  UNL1        0.0237
     46 H          -5.2050   -2.9952   -3.3971 H       1  UNL1        0.0294
     47 H          -4.4740   -3.8346   -1.9217 H       1  UNL1        0.0294
     48 H          -6.5341   -4.3445   -1.1168 H       1  UNL1        0.0560
     49 H          -7.2654   -3.5132   -2.5445 H       1  UNL1        0.0560
     50 H          -6.0768   -0.6793   -0.1513 H       1  UNL1        0.0566
     51 H          -5.4138   -2.3143    0.4000 H       1  UNL1        0.0566
     52 H          -0.9655   -1.7211   -0.6385 H       1  UNL1        0.0662
     53 H           2.8764   -0.0451    1.2335 H       1  UNL1        0.1496
     54 H           3.6165   -2.7039   -0.0400 H       1  UNL1        0.0546
     55 H           3.3680   -2.7433    2.4364 H       1  UNL1        0.0251
     56 H           4.9829   -3.2944    1.7672 H       1  UNL1        0.0251
     57 H           4.7584   -1.6355    2.5321 H       1  UNL1        0.0251
     58 H           3.9725   -0.2129   -1.5932 H       1  UNL1        0.0834
     59 H           6.4412   -1.9242    1.3828 H       1  UNL1        0.0834
     60 H           1.3211    1.2520    1.3518 H       1  UNL1        0.0632
@<TRIPOS>BOND
     1     1     2    1
     2     2     3   ar
     3     3     4   ar
     4     4     5   ar
     5     5     6    1
     6     6     7   ar
     7     7     8   ar
     8     8     9    1
     9     9    10    1
    10    10    11    1
    11    11    12    1
    12    11    13    1
    13    13    14    1
    14    14    15    1
    15    15    16    1
    16     8    17   ar
    17    17    18   ar
    18    18    19    1
    19    19    20    2
    20    19    21   am
    21    21    22    1
    22    22    23    1
    23    22    24    1
    24    24    25   ar
    25    25    26   ar
    26    26    27   ar
    27    27    28    1
    28    28    29    1
    29    28    30    1
    30    28    31    1
    31    27    32   ar
    32    32    33   ar
    33    18    34   ar
    34     5    35   ar
    35    35     2   ar
    36    34     6   ar
    37    16    11    1
    38    33    24   ar
    39     1    36    1
    40     1    37    1
    41     1    38    1
    42     3    39    1
    43     7    40    1
    44    10    41    1
    45    10    42    1
    46    12    43    1
    47    12    44    1
    48    12    45    1
    49    13    46    1
    50    13    47    1
    51    14    48    1
    52    14    49    1
    53    16    50    1
    54    16    51    1
    55    17    52    1
    56    21    53    1
    57    22    54    1
    58    23    55    1
    59    23    56    1
    60    23    57    1
    61    25    58    1
    62    33    59    1
    63    34    60    1
