@<TRIPOS>MOLECULE
*****
 34 34 0 0 0
SMALL
GASTEIGER

@<TRIPOS>ATOM
      1 C           4.0539    0.0795   -2.1780 C.3     1  UNL1       -0.0252
      2 C           3.8982    0.5626   -0.7793 C.2     1  UNL1        0.0311
      3 N           3.8805    1.8140   -0.5435 N.2     1  UNL1       -0.3069
      4 C           3.7681   -0.4571    0.2931 C.3     1  UNL1        0.1418
      5 C           4.9559   -1.3256    0.3273 C.1     1  UNL1        0.0795
      6 N           5.8927   -2.0287    0.3405 N.1     1  UNL1       -0.1954
      7 C           2.5191   -1.2188    0.0636 C.2     1  UNL1        0.1657
      8 O           1.7989   -0.9505   -0.8800 O.2     1  UNL1       -0.2948
      9 C           2.1151   -2.3164    0.9656 C.3     1  UNL1        0.0604
     10 S           1.1136   -1.5505    2.2970 S.3     1  UNL1       -0.0893
     11 C          -0.3749   -0.9313    1.5285 C.ar    1  UNL1        0.1604
     12 N          -1.4604   -1.2368    1.2468 N.ar    1  UNL1       -0.1332
     13 N          -2.3357   -0.4832    0.6515 N.ar    1  UNL1       -0.1252
     14 C          -2.1803    0.6054    0.3070 C.ar    1  UNL1        0.1825
     15 N          -2.8551    1.6964   -0.3389 N.pl3   1  UNL1       -0.3197
     16 C          -4.2195    1.4329   -0.7327 C.3     1  UNL1        0.0168
     17 C          -4.9949    1.0924    0.5081 C.3     1  UNL1       -0.0469
     18 C          -4.2038    0.2544   -1.6837 C.3     1  UNL1       -0.0469
     19 S          -0.3844    0.8647    0.8636 S.2     1  UNL1       -0.0245
     20 H           4.5698    0.8742   -2.7548 H       1  UNL1        0.0290
     21 H           3.0731   -0.0870   -2.6349 H       1  UNL1        0.0290
     22 H           4.6764   -0.8512   -2.1254 H       1  UNL1        0.0290
     23 H           3.7701    2.1414    0.4463 H       1  UNL1        0.1860
     24 H           3.7283    0.0161    1.3061 H       1  UNL1        0.0594
     25 H           2.9803   -2.8066    1.4589 H       1  UNL1        0.0458
     26 H           1.5209   -3.0478    0.3819 H       1  UNL1        0.0458
     27 H          -2.3628    2.5805   -0.4881 H       1  UNL1        0.1483
     28 H          -4.6922    2.3106   -1.2162 H       1  UNL1        0.0492
     29 H          -6.0794    1.2095    0.2485 H       1  UNL1        0.0247
     30 H          -4.7374    1.8567    1.2837 H       1  UNL1        0.0247
     31 H          -4.7725    0.1075    0.9177 H       1  UNL1        0.0247
     32 H          -5.2280    0.0346   -2.0776 H       1  UNL1        0.0247
     33 H          -3.8838   -0.6610   -1.1456 H       1  UNL1        0.0247
     34 H          -3.5496    0.4191   -2.5486 H       1  UNL1        0.0247
@<TRIPOS>BOND
     1     1     2    1
     2     2     3    2
     3     2     4    1
     4     4     5    1
     5     5     6    3
     6     4     7    1
     7     7     8    2
     8     7     9    1
     9     9    10    1
    10    10    11    1
    11    11    12   ar
    12    12    13   ar
    13    13    14   ar
    14    14    15    1
    15    15    16    1
    16    16    17    1
    17    16    18    1
    18    14    19   ar
    19    19    11   ar
    20     1    20    1
    21     1    21    1
    22     1    22    1
    23     3    23    1
    24     4    24    1
    25     9    25    1
    26     9    26    1
    27    15    27    1
    28    16    28    1
    29    17    29    1
    30    17    30    1
    31    17    31    1
    32    18    32    1
    33    18    33    1
    34    18    34    1
