
     RDKit          3D

 48 50  0  0  0  0  0  0  0  0999 V2000
   -8.4726   -0.7247   -0.3719 C   0  0  0  0  0  0  0  0  0  0  0  0
   -7.3824   -0.7312   -0.2116 C   0  0  0  0  0  0  0  0  0  0  0  0
   -5.9786   -0.7323   -0.0116 C   0  0  0  0  0  0  0  0  0  0  0  0
   -4.4675   -0.7074    0.1971 C   0  0  0  0  0  0  0  0  0  0  0  0
   -3.6610   -1.5607   -0.3656 F   0  0  0  0  0  0  0  0  0  0  0  0
   -4.1108    0.2630    1.0215 C   0  0  0  0  0  0  0  0  0  0  0  0
   -2.7614    0.5426    1.4348 C   0  0  0  0  0  0  0  0  0  0  0  0
   -2.6126    1.1650    2.6998 C   0  0  0  0  0  0  0  0  0  0  0  0
   -1.3973    1.4236    3.2390 C   0  0  0  0  0  0  0  0  0  0  0  0
   -0.2875    1.0729    2.5250 C   0  0  0  0  0  0  0  0  0  0  0  0
    0.9188    1.3666    3.1347 F   0  0  0  0  0  0  0  0  0  0  0  0
   -0.3670    0.4633    1.2834 C   0  0  0  0  0  0  0  0  0  0  0  0
    0.9498    0.1008    0.7138 C   0  0  1  0  0  0  0  0  0  0  0  0
    1.7817    1.4112    0.8838 C   0  0  0  0  0  0  0  0  0  0  0  0
    1.5068   -0.8157    1.6799 N   0  0  0  0  0  0  0  0  0  0  0  0
    2.5837   -1.4813    1.6259 C   0  0  0  0  0  0  0  0  0  0  0  0
    3.0238   -2.3604    2.6494 N   0  0  0  0  0  0  0  0  0  0  0  0
    3.5484   -1.2286    0.1280 S   0  0  0  0  0  0  0  0  0  0  0  0
    2.3397   -0.8300   -1.1593 C   0  0  1  0  0  0  0  0  0  0  0  0
    2.8988   -0.2535   -2.3938 C   0  0  0  0  0  0  0  0  0  0  0  0
    2.3096   -0.4165   -3.4921 O   0  0  0  0  0  0  0  0  0  0  0  0
    4.0999    0.4860   -2.3501 N   0  0  0  0  0  0  0  0  0  0  0  0
    4.5812    1.0643   -3.6252 C   0  0  0  0  0  0  0  0  0  0  0  0
    4.9427    0.7458   -1.2256 C   0  0  0  0  0  0  0  0  0  0  0  0
    1.1413   -1.7411   -1.1346 C   0  0  0  0  0  0  0  0  0  0  0  0
    1.0361   -0.3204   -0.6870 C   0  0  1  0  0  0  0  0  0  0  0  0
   -1.6170    0.2156    0.7709 C   0  0  0  0  0  0  0  0  0  0  0  0
   -9.1685   -1.6774   -0.1625 H   0  0  0  0  0  0  0  0  0  0  0  0
   -9.1892    0.1219    0.1930 H   0  0  0  0  0  0  0  0  0  0  0  0
   -9.0179   -0.5055   -1.4442 H   0  0  0  0  0  0  0  0  0  0  0  0
   -4.9237    0.9335    1.3725 H   0  0  0  0  0  0  0  0  0  0  0  0
   -3.5026    1.4045    3.1922 H   0  0  0  0  0  0  0  0  0  0  0  0
   -1.2474    1.8966    4.2305 H   0  0  0  0  0  0  0  0  0  0  0  0
    2.1493    1.6938   -0.1511 H   0  0  0  0  0  0  0  0  0  0  0  0
    1.0867    2.2541    1.1730 H   0  0  0  0  0  0  0  0  0  0  0  0
    2.5989    1.2905    1.5833 H   0  0  0  0  0  0  0  0  0  0  0  0
    3.7834   -2.2279    3.3269 H   0  0  0  0  0  0  0  0  0  0  0  0
    2.4637   -3.2778    2.6907 H   0  0  0  0  0  0  0  0  0  0  0  0
    5.1406    1.9999   -3.4834 H   0  0  0  0  0  0  0  0  0  0  0  0
    3.7783    1.2350   -4.3463 H   0  0  0  0  0  0  0  0  0  0  0  0
    5.2804    0.3561   -4.0968 H   0  0  0  0  0  0  0  0  0  0  0  0
    5.4148   -0.1486   -0.8032 H   0  0  0  0  0  0  0  0  0  0  0  0
    5.7317    1.4944   -1.5228 H   0  0  0  0  0  0  0  0  0  0  0  0
    4.4092    1.2352   -0.3480 H   0  0  0  0  0  0  0  0  0  0  0  0
    1.0777   -2.5113   -0.3275 H   0  0  0  0  0  0  0  0  0  0  0  0
    0.7723   -2.0590   -2.0955 H   0  0  0  0  0  0  0  0  0  0  0  0
    0.4965    0.3594   -1.4093 H   0  0  0  0  0  0  0  0  0  0  0  0
   -1.6810   -0.2842   -0.2269 H   0  0  0  0  0  0  0  0  0  0  0  0
  1  2  1  0
  2  3  3  0
  3  4  1  0
  4  5  1  0
  4  6  2  0
  6  7  1  0
  7  8  2  0
  8  9  1  0
  9 10  2  0
 10 11  1  0
 10 12  1  0
 12 13  1  0
 13 14  1  6
 13 15  1  0
 15 16  2  0
 16 17  1  0
 16 18  1  0
 18 19  1  0
 19 20  1  6
 20 21  2  0
 20 22  1  0
 22 23  1  0
 22 24  1  0
 19 25  1  0
 25 26  1  0
 12 27  2  0
 27  7  1  0
 26 13  1  0
 26 19  1  0
  1 28  1  0
  1 29  1  0
  1 30  1  0
  6 31  1  0
  8 32  1  0
  9 33  1  0
 14 34  1  0
 14 35  1  0
 14 36  1  0
 17 37  1  0
 17 38  1  0
 23 39  1  0
 23 40  1  0
 23 41  1  0
 24 42  1  0
 24 43  1  0
 24 44  1  0
 25 45  1  0
 25 46  1  0
 26 47  1  6
 27 48  1  0
M  END
$$$$
