@<TRIPOS>MOLECULE
*****
 48 50 0 0 0
SMALL
GASTEIGER

@<TRIPOS>ATOM
      1 C          -8.4726   -0.7247   -0.3719 C.3     1  UNL1       -0.0022
      2 C          -7.3824   -0.7312   -0.2116 C.1     1  UNL1       -0.0981
      3 C          -5.9786   -0.7323   -0.0116 C.1     1  UNL1       -0.0364
      4 C          -4.4675   -0.7074    0.1971 C.2     1  UNL1        0.1737
      5 F          -3.6610   -1.5607   -0.3656 F       1  UNL1       -0.1958
      6 C          -4.1108    0.2630    1.0215 C.2     1  UNL1       -0.0107
      7 C          -2.7614    0.5426    1.4348 C.ar    1  UNL1       -0.0212
      8 C          -2.6126    1.1650    2.6998 C.ar    1  UNL1       -0.0518
      9 C          -1.3973    1.4236    3.2390 C.ar    1  UNL1       -0.0255
     10 C          -0.2875    1.0729    2.5250 C.ar    1  UNL1        0.1289
     11 F           0.9188    1.3666    3.1347 F       1  UNL1       -0.2051
     12 C          -0.3670    0.4633    1.2834 C.ar    1  UNL1        0.0158
     13 C           0.9498    0.1008    0.7138 C.3     1  UNL1        0.0935
     14 C           1.7817    1.4112    0.8838 C.3     1  UNL1       -0.0351
     15 N           1.5068   -0.8157    1.6799 N.2     1  UNL1       -0.2521
     16 C           2.5837   -1.4813    1.6259 C.2     1  UNL1        0.1485
     17 N           3.0238   -2.3604    2.6494 N.pl3   1  UNL1       -0.3380
     18 S           3.5484   -1.2286    0.1280 S.3     1  UNL1       -0.0746
     19 C           2.3397   -0.8300   -1.1593 C.3     1  UNL1        0.1054
     20 C           2.8988   -0.2535   -2.3938 C.2     1  UNL1        0.2319
     21 O           2.3096   -0.4165   -3.4921 O.2     1  UNL1       -0.2741
     22 N           4.0999    0.4860   -2.3501 N.am    1  UNL1       -0.3064
     23 C           4.5812    1.0643   -3.6252 C.3     1  UNL1        0.0029
     24 C           4.9427    0.7458   -1.2256 C.3     1  UNL1        0.0029
     25 C           1.1413   -1.7411   -1.1346 C.3     1  UNL1       -0.0220
     26 C           1.0361   -0.3204   -0.6870 C.3     1  UNL1        0.0134
     27 C          -1.6170    0.2156    0.7709 C.ar    1  UNL1       -0.0463
     28 H          -9.1685   -1.6774   -0.1625 H       1  UNL1        0.0362
     29 H          -9.1892    0.1219    0.1930 H       1  UNL1        0.0362
     30 H          -9.0179   -0.5055   -1.4442 H       1  UNL1        0.0362
     31 H          -4.9237    0.9335    1.3725 H       1  UNL1        0.0659
     32 H          -3.5026    1.4045    3.1922 H       1  UNL1        0.0624
     33 H          -1.2474    1.8966    4.2305 H       1  UNL1        0.0646
     34 H           2.1493    1.6938   -0.1511 H       1  UNL1        0.0256
     35 H           1.0867    2.2541    1.1730 H       1  UNL1        0.0256
     36 H           2.5989    1.2905    1.5833 H       1  UNL1        0.0256
     37 H           3.7834   -2.2279    3.3269 H       1  UNL1        0.1442
     38 H           2.4637   -3.2778    2.6907 H       1  UNL1        0.1442
     39 H           5.1406    1.9999   -3.4834 H       1  UNL1        0.0428
     40 H           3.7783    1.2350   -4.3463 H       1  UNL1        0.0428
     41 H           5.2804    0.3561   -4.0968 H       1  UNL1        0.0428
     42 H           5.4148   -0.1486   -0.8032 H       1  UNL1        0.0428
     43 H           5.7317    1.4944   -1.5228 H       1  UNL1        0.0428
     44 H           4.4092    1.2352   -0.3480 H       1  UNL1        0.0428
     45 H           1.0777   -2.5113   -0.3275 H       1  UNL1        0.0287
     46 H           0.7723   -2.0590   -2.0955 H       1  UNL1        0.0287
     47 H           0.4965    0.3594   -1.4093 H       1  UNL1        0.0346
     48 H          -1.6810   -0.2842   -0.2269 H       1  UNL1        0.0628
@<TRIPOS>BOND
     1     1     2    1
     2     2     3    3
     3     3     4    1
     4     4     5    1
     5     4     6    2
     6     6     7    1
     7     7     8   ar
     8     8     9   ar
     9     9    10   ar
    10    10    11    1
    11    10    12   ar
    12    12    13    1
    13    13    14    1
    14    13    15    1
    15    15    16    2
    16    16    17    1
    17    16    18    1
    18    18    19    1
    19    19    20    1
    20    20    21    2
    21    20    22   am
    22    22    23    1
    23    22    24    1
    24    19    25    1
    25    25    26    1
    26    12    27   ar
    27    27     7   ar
    28    26    13    1
    29    26    19    1
    30     1    28    1
    31     1    29    1
    32     1    30    1
    33     6    31    1
    34     8    32    1
    35     9    33    1
    36    14    34    1
    37    14    35    1
    38    14    36    1
    39    17    37    1
    40    17    38    1
    41    23    39    1
    42    23    40    1
    43    23    41    1
    44    24    42    1
    45    24    43    1
    46    24    44    1
    47    25    45    1
    48    25    46    1
    49    26    47    1
    50    27    48    1
