
     RDKit          3D

 50 53  0  0  0  0  0  0  0  0999 V2000
   -3.5816    4.3220    0.5471 C   0  0  0  0  0  0  0  0  0  0  0  0
   -3.0073    2.9345    0.6387 C   0  0  0  0  0  0  0  0  0  0  0  0
   -2.7328    2.2126   -0.4811 C   0  0  0  0  0  0  0  0  0  0  0  0
   -2.2016    0.9300   -0.3797 C   0  0  0  0  0  0  0  0  0  0  0  0
   -1.9337    0.3422    0.8360 C   0  0  0  0  0  0  0  0  0  0  0  0
   -1.3657   -1.0269    0.9310 C   0  0  0  0  0  0  0  0  0  0  0  0
   -2.1510   -1.9866    0.0776 C   0  0  0  0  0  0  0  0  0  0  0  0
   -1.3711   -3.0190   -0.6459 C   0  0  1  0  0  0  0  0  0  0  0  0
   -0.7306   -2.5027   -1.9042 C   0  0  0  0  0  0  0  0  0  0  0  0
    0.6302   -2.1183   -1.4352 C   0  0  0  0  0  0  0  0  0  0  0  0
    0.6053   -2.3000    0.0251 C   0  0  0  0  0  0  0  0  0  0  0  0
    0.0982   -1.1383    0.8425 C   0  0  1  0  0  0  0  0  0  0  0  0
    0.8594    0.0635    0.4562 C   0  0  0  0  0  0  0  0  0  0  0  0
    0.3992    1.1952    0.2198 O   0  0  0  0  0  0  0  0  0  0  0  0
    2.2359   -0.0917    0.3464 O   0  0  0  0  0  0  0  0  0  0  0  0
    3.1077    0.9103   -0.0014 C   0  0  0  0  0  0  0  0  0  0  0  0
    3.4842    1.2039   -1.2822 C   0  0  0  0  0  0  0  0  0  0  0  0
    4.3655    2.2327   -1.5053 C   0  0  0  0  0  0  0  0  0  0  0  0
    4.8908    2.9901   -0.4675 C   0  0  0  0  0  0  0  0  0  0  0  0
    4.5230    2.7078    0.8196 C   0  0  0  0  0  0  0  0  0  0  0  0
    3.6374    1.6723    1.0309 C   0  0  0  0  0  0  0  0  0  0  0  0
   -0.2748   -3.4355    0.2175 N   0  0  0  0  0  0  0  0  0  0  0  0
    0.3032   -4.6786   -0.1792 C   0  0  0  0  0  0  0  0  0  0  0  0
   -2.2341    1.1268    1.9506 C   0  0  0  0  0  0  0  0  0  0  0  0
   -2.7542    2.3834    1.8699 C   0  0  0  0  0  0  0  0  0  0  0  0
   -2.7352    5.0062    0.3421 H   0  0  0  0  0  0  0  0  0  0  0  0
   -4.2745    4.3679   -0.3008 H   0  0  0  0  0  0  0  0  0  0  0  0
   -4.1058    4.6019    1.4892 H   0  0  0  0  0  0  0  0  0  0  0  0
   -2.9225    2.6227   -1.4632 H   0  0  0  0  0  0  0  0  0  0  0  0
   -1.9890    0.3696   -1.2752 H   0  0  0  0  0  0  0  0  0  0  0  0
   -1.6382   -1.3272    2.0026 H   0  0  0  0  0  0  0  0  0  0  0  0
   -2.7543   -1.4327   -0.7046 H   0  0  0  0  0  0  0  0  0  0  0  0
   -2.9552   -2.5350    0.6554 H   0  0  0  0  0  0  0  0  0  0  0  0
   -2.0034   -3.8994   -0.8598 H   0  0  0  0  0  0  0  0  0  0  0  0
   -0.7024   -3.2684   -2.7106 H   0  0  0  0  0  0  0  0  0  0  0  0
   -1.2216   -1.6117   -2.3380 H   0  0  0  0  0  0  0  0  0  0  0  0
    0.9023   -1.1092   -1.7899 H   0  0  0  0  0  0  0  0  0  0  0  0
    1.3501   -2.8722   -1.8617 H   0  0  0  0  0  0  0  0  0  0  0  0
    1.6204   -2.6393    0.3610 H   0  0  0  0  0  0  0  0  0  0  0  0
    0.5332   -1.3821    1.8772 H   0  0  0  0  0  0  0  0  0  0  0  0
    3.0606    0.5987   -2.0733 H   0  0  0  0  0  0  0  0  0  0  0  0
    4.6711    2.4753   -2.5094 H   0  0  0  0  0  0  0  0  0  0  0  0
    5.5839    3.7982   -0.6508 H   0  0  0  0  0  0  0  0  0  0  0  0
    4.9367    3.3025    1.6221 H   0  0  0  0  0  0  0  0  0  0  0  0
    3.3507    1.4566    2.0686 H   0  0  0  0  0  0  0  0  0  0  0  0
    1.4150   -4.5514   -0.2022 H   0  0  0  0  0  0  0  0  0  0  0  0
   -0.0507   -5.0533   -1.1509 H   0  0  0  0  0  0  0  0  0  0  0  0
    0.1082   -5.4346    0.6285 H   0  0  0  0  0  0  0  0  0  0  0  0
   -2.0143    0.6429    2.9118 H   0  0  0  0  0  0  0  0  0  0  0  0
   -2.9664    2.9439    2.7766 H   0  0  0  0  0  0  0  0  0  0  0  0
  1  2  1  0
  2  3  2  0
  3  4  1  0
  4  5  2  0
  5  6  1  0
  6  7  1  0
  7  8  1  0
  8  9  1  0
  9 10  1  0
 10 11  1  0
 11 12  1  0
 12 13  1  0
 13 14  2  0
 13 15  1  0
 15 16  1  0
 16 17  2  0
 17 18  1  0
 18 19  2  0
 19 20  1  0
 20 21  2  0
 11 22  1  0
 22 23  1  0
  5 24  1  0
 24 25  2  0
 25  2  1  0
 12  6  1  0
 21 16  1  0
 22  8  1  0
  1 26  1  0
  1 27  1  0
  1 28  1  0
  3 29  1  0
  4 30  1  0
  6 31  1  0
  7 32  1  0
  7 33  1  0
  8 34  1  6
  9 35  1  0
  9 36  1  0
 10 37  1  0
 10 38  1  0
 11 39  1  0
 12 40  1  1
 17 41  1  0
 18 42  1  0
 19 43  1  0
 20 44  1  0
 21 45  1  0
 23 46  1  0
 23 47  1  0
 23 48  1  0
 24 49  1  0
 25 50  1  0
M  END
$$$$
