@<TRIPOS>MOLECULE
*****
 50 53 0 0 0
SMALL
GASTEIGER

@<TRIPOS>ATOM
      1 C          -3.5816    4.3220    0.5471 C.3     1  UNL1       -0.0397
      2 C          -3.0073    2.9345    0.6387 C.ar    1  UNL1       -0.0504
      3 C          -2.7328    2.2126   -0.4811 C.ar    1  UNL1       -0.0586
      4 C          -2.2016    0.9300   -0.3797 C.ar    1  UNL1       -0.0580
      5 C          -1.9337    0.3422    0.8360 C.ar    1  UNL1       -0.0434
      6 C          -1.3657   -1.0269    0.9310 C.3     1  UNL1       -0.0001
      7 C          -2.1510   -1.9866    0.0776 C.3     1  UNL1       -0.0297
      8 C          -1.3711   -3.0190   -0.6459 C.3     1  UNL1        0.0110
      9 C          -0.7306   -2.5027   -1.9042 C.3     1  UNL1       -0.0359
     10 C           0.6302   -2.1183   -1.4352 C.3     1  UNL1       -0.0351
     11 C           0.6053   -2.3000    0.0251 C.3     1  UNL1        0.0239
     12 C           0.0982   -1.1383    0.8425 C.3     1  UNL1        0.0791
     13 C           0.8594    0.0635    0.4562 C.2     1  UNL1        0.3175
     14 O           0.3992    1.1952    0.2198 O.2     1  UNL1       -0.2500
     15 O           2.2359   -0.0917    0.3464 O.3     1  UNL1       -0.4256
     16 C           3.1077    0.9103   -0.0014 C.ar    1  UNL1        0.1316
     17 C           3.4842    1.2039   -1.2822 C.ar    1  UNL1       -0.0192
     18 C           4.3655    2.2327   -1.5053 C.ar    1  UNL1       -0.0583
     19 C           4.8908    2.9901   -0.4675 C.ar    1  UNL1       -0.0615
     20 C           4.5230    2.7078    0.8196 C.ar    1  UNL1       -0.0583
     21 C           3.6374    1.6723    1.0309 C.ar    1  UNL1       -0.0192
     22 N          -0.2748   -3.4355    0.2175 N.3     1  UNL1       -0.2986
     23 C           0.3032   -4.6786   -0.1792 C.3     1  UNL1       -0.0122
     24 C          -2.2341    1.1268    1.9506 C.ar    1  UNL1       -0.0580
     25 C          -2.7542    2.3834    1.8699 C.ar    1  UNL1       -0.0586
     26 H          -2.7352    5.0062    0.3421 H       1  UNL1        0.0278
     27 H          -4.2745    4.3679   -0.3008 H       1  UNL1        0.0278
     28 H          -4.1058    4.6019    1.4892 H       1  UNL1        0.0278
     29 H          -2.9225    2.6227   -1.4632 H       1  UNL1        0.0620
     30 H          -1.9890    0.3696   -1.2752 H       1  UNL1        0.0620
     31 H          -1.6382   -1.3272    2.0026 H       1  UNL1        0.0358
     32 H          -2.7543   -1.4327   -0.7046 H       1  UNL1        0.0286
     33 H          -2.9552   -2.5350    0.6554 H       1  UNL1        0.0286
     34 H          -2.0034   -3.8994   -0.8598 H       1  UNL1        0.0463
     35 H          -0.7024   -3.2684   -2.7106 H       1  UNL1        0.0281
     36 H          -1.2216   -1.6117   -2.3380 H       1  UNL1        0.0281
     37 H           0.9023   -1.1092   -1.7899 H       1  UNL1        0.0281
     38 H           1.3501   -2.8722   -1.8617 H       1  UNL1        0.0281
     39 H           1.6204   -2.6393    0.3610 H       1  UNL1        0.0471
     40 H           0.5332   -1.3821    1.8772 H       1  UNL1        0.0435
     41 H           3.0606    0.5987   -2.0733 H       1  UNL1        0.0654
     42 H           4.6711    2.4753   -2.5094 H       1  UNL1        0.0619
     43 H           5.5839    3.7982   -0.6508 H       1  UNL1        0.0618
     44 H           4.9367    3.3025    1.6221 H       1  UNL1        0.0619
     45 H           3.3507    1.4566    2.0686 H       1  UNL1        0.0654
     46 H           1.4150   -4.5514   -0.2022 H       1  UNL1        0.0391
     47 H          -0.0507   -5.0533   -1.1509 H       1  UNL1        0.0391
     48 H           0.1082   -5.4346    0.6285 H       1  UNL1        0.0391
     49 H          -2.0143    0.6429    2.9118 H       1  UNL1        0.0620
     50 H          -2.9664    2.9439    2.7766 H       1  UNL1        0.0620
@<TRIPOS>BOND
     1     1     2    1
     2     2     3   ar
     3     3     4   ar
     4     4     5   ar
     5     5     6    1
     6     6     7    1
     7     7     8    1
     8     8     9    1
     9     9    10    1
    10    10    11    1
    11    11    12    1
    12    12    13    1
    13    13    14    2
    14    13    15    1
    15    15    16    1
    16    16    17   ar
    17    17    18   ar
    18    18    19   ar
    19    19    20   ar
    20    20    21   ar
    21    11    22    1
    22    22    23    1
    23     5    24   ar
    24    24    25   ar
    25    25     2   ar
    26    12     6    1
    27    21    16   ar
    28    22     8    1
    29     1    26    1
    30     1    27    1
    31     1    28    1
    32     3    29    1
    33     4    30    1
    34     6    31    1
    35     7    32    1
    36     7    33    1
    37     8    34    1
    38     9    35    1
    39     9    36    1
    40    10    37    1
    41    10    38    1
    42    11    39    1
    43    12    40    1
    44    17    41    1
    45    18    42    1
    46    19    43    1
    47    20    44    1
    48    21    45    1
    49    23    46    1
    50    23    47    1
    51    23    48    1
    52    24    49    1
    53    25    50    1
