@<TRIPOS>MOLECULE
*****
 35 36 0 0 0
SMALL
GASTEIGER

@<TRIPOS>ATOM
      1 C          -5.0245    2.7436   -0.1636 C.3     1  UNL1        0.0788
      2 O          -4.8573    1.3494   -0.2889 O.3     1  UNL1       -0.4950
      3 C          -3.5763    0.7849   -0.2512 C.ar    1  UNL1        0.1236
      4 C          -2.4674    1.5766   -0.0923 C.ar    1  UNL1       -0.0190
      5 C          -1.1917    0.9897   -0.0572 C.ar    1  UNL1       -0.0440
      6 C          -1.0598   -0.3687   -0.1815 C.ar    1  UNL1        0.0635
      7 C           0.2160   -1.0292   -0.1536 C.2     1  UNL1        0.1896
      8 O           0.3125   -2.2964   -0.2716 O.2     1  UNL1       -0.2872
      9 C           1.4373   -0.2396    0.0132 C.2     1  UNL1       -0.0136
     10 C           2.6243   -0.8085    0.0437 C.2     1  UNL1       -0.0495
     11 C           3.8221   -0.0539    0.2054 C.ar    1  UNL1       -0.0068
     12 C           5.0379   -0.7561    0.2249 C.ar    1  UNL1       -0.0517
     13 C           6.2247   -0.0782    0.3782 C.ar    1  UNL1       -0.0430
     14 C           6.2291    1.2843    0.5128 C.ar    1  UNL1        0.0276
     15 N           5.0860    1.9502    0.4951 N.ar    1  UNL1       -0.2627
     16 C           3.9168    1.2978    0.3455 C.ar    1  UNL1        0.0347
     17 C          -2.1989   -1.1615   -0.3427 C.ar    1  UNL1        0.1343
     18 O          -2.0135   -2.5132   -0.4625 O.3     1  UNL1       -0.4943
     19 C          -3.0206   -3.4670   -0.6302 C.3     1  UNL1        0.0788
     20 C          -3.4519   -0.5870   -0.3774 C.ar    1  UNL1        0.0225
     21 H          -6.0595    3.0067   -0.4668 H       1  UNL1        0.0660
     22 H          -4.3301    3.2981   -0.8372 H       1  UNL1        0.0660
     23 H          -4.8978    3.0971    0.8917 H       1  UNL1        0.0660
     24 H          -2.5894    2.6450    0.0042 H       1  UNL1        0.0654
     25 H          -0.3493    1.6368    0.0681 H       1  UNL1        0.0627
     26 H           1.3946    0.8244    0.1150 H       1  UNL1        0.0656
     27 H           2.6470   -1.9017   -0.0625 H       1  UNL1        0.0625
     28 H           5.0200   -1.8299    0.1177 H       1  UNL1        0.0624
     29 H           7.1836   -0.6151    0.3952 H       1  UNL1        0.0633
     30 H           7.1693    1.8042    0.6326 H       1  UNL1        0.0829
     31 H           2.9781    1.8881    0.3353 H       1  UNL1        0.0835
     32 H          -3.3668   -3.7636    0.3853 H       1  UNL1        0.0660
     33 H          -2.6323   -4.4175   -1.0930 H       1  UNL1        0.0660
     34 H          -3.8881   -3.0754   -1.2028 H       1  UNL1        0.0660
     35 H          -4.3241   -1.2143   -0.5026 H       1  UNL1        0.0691
@<TRIPOS>BOND
     1     1     2    1
     2     2     3    1
     3     3     4   ar
     4     4     5   ar
     5     5     6   ar
     6     6     7    1
     7     7     8    2
     8     7     9    1
     9     9    10    2
    10    10    11    1
    11    11    12   ar
    12    12    13   ar
    13    13    14   ar
    14    14    15   ar
    15    15    16   ar
    16     6    17   ar
    17    17    18    1
    18    18    19    1
    19    17    20   ar
    20    20     3   ar
    21    16    11   ar
    22     1    21    1
    23     1    22    1
    24     1    23    1
    25     4    24    1
    26     5    25    1
    27     9    26    1
    28    10    27    1
    29    12    28    1
    30    13    29    1
    31    14    30    1
    32    16    31    1
    33    19    32    1
    34    19    33    1
    35    19    34    1
    36    20    35    1
