
     RDKit          3D

 53 56  0  0  0  0  0  0  0  0999 V2000
    7.3833    1.2717    1.0755 O   0  0  0  0  0  0  0  0  0  0  0  0
    6.3196    1.3366    0.1640 C   0  0  0  0  0  0  0  0  0  0  0  0
    5.4248    0.1412    0.4249 C   0  0  0  0  0  0  0  0  0  0  0  0
    4.2876    0.0708   -0.4446 N   0  0  0  0  0  0  0  0  0  0  0  0
    3.3139    1.1043   -0.2359 C   0  0  0  0  0  0  0  0  0  0  0  0
    1.8810    0.6246   -0.4264 C   0  0  0  0  0  0  0  0  0  0  0  0
    1.5078   -0.4019    0.4894 N   0  0  0  0  0  0  0  0  0  0  0  0
    0.6698   -1.4316   -0.0342 C   0  0  0  0  0  0  0  0  0  0  0  0
   -0.7258   -0.9648   -0.3697 C   0  0  0  0  0  0  0  0  0  0  0  0
   -1.4601   -0.4162    0.8599 C   0  0  0  0  0  0  0  0  0  0  0  0
   -2.7893   -0.0646    0.3566 N   0  0  0  0  0  0  0  0  0  0  0  0
   -3.6649   -1.1726    0.0904 C   0  0  0  0  0  0  0  0  0  0  0  0
   -3.2200   -2.4460    0.3809 C   0  0  0  0  0  0  0  0  0  0  0  0
   -4.0211   -3.5765    0.1645 C   0  0  0  0  0  0  0  0  0  0  0  0
   -5.2912   -3.4571   -0.3493 C   0  0  0  0  0  0  0  0  0  0  0  0
   -5.6958   -2.1695   -0.6245 C   0  0  0  0  0  0  0  0  0  0  0  0
   -4.9185   -1.0840   -0.4135 C   0  0  0  0  0  0  0  0  0  0  0  0
   -5.5999    0.4879   -0.8134 S   0  0  0  0  0  0  0  0  0  0  0  0
   -4.3694    1.7007   -0.3938 C   0  0  0  0  0  0  0  0  0  0  0  0
   -4.7250    2.9982   -0.6233 C   0  0  0  0  0  0  0  0  0  0  0  0
   -3.8116    3.9903   -0.3288 C   0  0  0  0  0  0  0  0  0  0  0  0
   -2.5861    3.6468    0.1805 C   0  0  0  0  0  0  0  0  0  0  0  0
   -1.4393    4.8977    0.5483 Cl  0  0  0  0  0  0  0  0  0  0  0  0
   -2.2671    2.3081    0.3982 C   0  0  0  0  0  0  0  0  0  0  0  0
   -3.1641    1.2690    0.1138 C   0  0  0  0  0  0  0  0  0  0  0  0
    2.7366   -1.0557    0.9475 C   0  0  0  0  0  0  0  0  0  0  0  0
    3.6547   -1.2224   -0.2414 C   0  0  0  0  0  0  0  0  0  0  0  0
    8.2588    1.2618    0.5906 H   0  0  0  0  0  0  0  0  0  0  0  0
    6.7206    1.2829   -0.8621 H   0  0  0  0  0  0  0  0  0  0  0  0
    5.7681    2.2820    0.3707 H   0  0  0  0  0  0  0  0  0  0  0  0
    5.1100    0.1590    1.5041 H   0  0  0  0  0  0  0  0  0  0  0  0
    6.0226   -0.7957    0.2364 H   0  0  0  0  0  0  0  0  0  0  0  0
    3.4741    1.8803   -1.0160 H   0  0  0  0  0  0  0  0  0  0  0  0
    3.4001    1.6020    0.7304 H   0  0  0  0  0  0  0  0  0  0  0  0
    1.2461    1.5304   -0.2793 H   0  0  0  0  0  0  0  0  0  0  0  0
    1.7568    0.3565   -1.5028 H   0  0  0  0  0  0  0  0  0  0  0  0
    0.6046   -2.3118    0.6681 H   0  0  0  0  0  0  0  0  0  0  0  0
    1.0980   -1.8868   -0.9668 H   0  0  0  0  0  0  0  0  0  0  0  0
   -0.5698   -0.0767   -1.0829 H   0  0  0  0  0  0  0  0  0  0  0  0
   -1.3048   -1.6645   -0.9717 H   0  0  0  0  0  0  0  0  0  0  0  0
   -0.8474    0.3974    1.2070 H   0  0  0  0  0  0  0  0  0  0  0  0
   -1.5460   -1.1822    1.6664 H   0  0  0  0  0  0  0  0  0  0  0  0
   -2.2555   -2.6817    0.7983 H   0  0  0  0  0  0  0  0  0  0  0  0
   -3.6767   -4.5772    0.3902 H   0  0  0  0  0  0  0  0  0  0  0  0
   -5.9432   -4.2927   -0.5332 H   0  0  0  0  0  0  0  0  0  0  0  0
   -6.7141   -2.0680   -1.0379 H   0  0  0  0  0  0  0  0  0  0  0  0
   -5.7047    3.2785   -1.0310 H   0  0  0  0  0  0  0  0  0  0  0  0
   -4.1043    5.0318   -0.5155 H   0  0  0  0  0  0  0  0  0  0  0  0
   -1.3018    2.0501    0.7951 H   0  0  0  0  0  0  0  0  0  0  0  0
    3.1560   -0.3970    1.7200 H   0  0  0  0  0  0  0  0  0  0  0  0
    2.4542   -2.0298    1.3581 H   0  0  0  0  0  0  0  0  0  0  0  0
    4.3807   -2.0205    0.0239 H   0  0  0  0  0  0  0  0  0  0  0  0
    3.0879   -1.5130   -1.1250 H   0  0  0  0  0  0  0  0  0  0  0  0
  1  2  1  0
  2  3  1  0
  3  4  1  0
  4  5  1  0
  5  6  1  0
  6  7  1  0
  7  8  1  0
  8  9  1  0
  9 10  1  0
 10 11  1  0
 11 12  1  0
 12 13  2  0
 13 14  1  0
 14 15  2  0
 15 16  1  0
 16 17  2  0
 17 18  1  0
 18 19  1  0
 19 20  2  0
 20 21  1  0
 21 22  2  0
 22 23  1  0
 22 24  1  0
 24 25  2  0
  7 26  1  0
 26 27  1  0
 27  4  1  0
 25 11  1  0
 17 12  1  0
 25 19  1  0
  1 28  1  0
  2 29  1  0
  2 30  1  0
  3 31  1  0
  3 32  1  0
  5 33  1  0
  5 34  1  0
  6 35  1  0
  6 36  1  0
  8 37  1  0
  8 38  1  0
  9 39  1  0
  9 40  1  0
 10 41  1  0
 10 42  1  0
 13 43  1  0
 14 44  1  0
 15 45  1  0
 16 46  1  0
 20 47  1  0
 21 48  1  0
 24 49  1  0
 26 50  1  0
 26 51  1  0
 27 52  1  0
 27 53  1  0
M  END
$$$$
