@<TRIPOS>MOLECULE
*****
 53 56 0 0 0
SMALL
GASTEIGER

@<TRIPOS>ATOM
      1 O           7.3833    1.2717    1.0755 O.3     1  UNL1       -0.3937
      2 C           6.3196    1.3366    0.1640 C.3     1  UNL1        0.0569
      3 C           5.4248    0.1412    0.4249 C.3     1  UNL1        0.0222
      4 N           4.2876    0.0708   -0.4446 N.3     1  UNL1       -0.2977
      5 C           3.3139    1.1043   -0.2359 C.3     1  UNL1        0.0118
      6 C           1.8810    0.6246   -0.4264 C.3     1  UNL1        0.0117
      7 N           1.5078   -0.4019    0.4894 N.3     1  UNL1       -0.2999
      8 C           0.6698   -1.4316   -0.0342 C.3     1  UNL1        0.0004
      9 C          -0.7258   -0.9648   -0.3697 C.3     1  UNL1       -0.0240
     10 C          -1.4601   -0.4162    0.8599 C.3     1  UNL1        0.0185
     11 N          -2.7893   -0.0646    0.3566 N.pl3   1  UNL1       -0.2982
     12 C          -3.6649   -1.1726    0.0904 C.ar    1  UNL1        0.0479
     13 C          -3.2200   -2.4460    0.3809 C.ar    1  UNL1       -0.0393
     14 C          -4.0211   -3.5765    0.1645 C.ar    1  UNL1       -0.0599
     15 C          -5.2912   -3.4571   -0.3493 C.ar    1  UNL1       -0.0606
     16 C          -5.6958   -2.1695   -0.6245 C.ar    1  UNL1       -0.0462
     17 C          -4.9185   -1.0840   -0.4135 C.ar    1  UNL1        0.0341
     18 S          -5.5999    0.4879   -0.8134 S.3     1  UNL1       -0.0857
     19 C          -4.3694    1.7007   -0.3938 C.ar    1  UNL1        0.0342
     20 C          -4.7250    2.9982   -0.6233 C.ar    1  UNL1       -0.0448
     21 C          -3.8116    3.9903   -0.3288 C.ar    1  UNL1       -0.0422
     22 C          -2.5861    3.6468    0.1805 C.ar    1  UNL1        0.0428
     23 CL         -1.4393    4.8977    0.5483 Cl      1  UNL1       -0.0835
     24 C          -2.2671    2.3081    0.3982 C.ar    1  UNL1       -0.0209
     25 C          -3.1641    1.2690    0.1138 C.ar    1  UNL1        0.0493
     26 C           2.7366   -1.0557    0.9475 C.3     1  UNL1        0.0117
     27 C           3.6547   -1.2224   -0.2414 C.3     1  UNL1        0.0118
     28 H           8.2588    1.2618    0.5906 H       1  UNL1        0.2095
     29 H           6.7206    1.2829   -0.8621 H       1  UNL1        0.0570
     30 H           5.7681    2.2820    0.3707 H       1  UNL1        0.0570
     31 H           5.1100    0.1590    1.5041 H       1  UNL1        0.0449
     32 H           6.0226   -0.7957    0.2364 H       1  UNL1        0.0449
     33 H           3.4741    1.8803   -1.0160 H       1  UNL1        0.0439
     34 H           3.4001    1.6020    0.7304 H       1  UNL1        0.0439
     35 H           1.2461    1.5304   -0.2793 H       1  UNL1        0.0439
     36 H           1.7568    0.3565   -1.5028 H       1  UNL1        0.0439
     37 H           0.6046   -2.3118    0.6681 H       1  UNL1        0.0427
     38 H           1.0980   -1.8868   -0.9668 H       1  UNL1        0.0427
     39 H          -0.5698   -0.0767   -1.0829 H       1  UNL1        0.0293
     40 H          -1.3048   -1.6645   -0.9717 H       1  UNL1        0.0293
     41 H          -0.8474    0.3974    1.2070 H       1  UNL1        0.0468
     42 H          -1.5460   -1.1822    1.6664 H       1  UNL1        0.0468
     43 H          -2.2555   -2.6817    0.7983 H       1  UNL1        0.0636
     44 H          -3.6767   -4.5772    0.3902 H       1  UNL1        0.0618
     45 H          -5.9432   -4.2927   -0.5332 H       1  UNL1        0.0618
     46 H          -6.7141   -2.0680   -1.0379 H       1  UNL1        0.0629
     47 H          -5.7047    3.2785   -1.0310 H       1  UNL1        0.0630
     48 H          -4.1043    5.0318   -0.5155 H       1  UNL1        0.0632
     49 H          -1.3018    2.0501    0.7951 H       1  UNL1        0.0651
     50 H           3.1560   -0.3970    1.7200 H       1  UNL1        0.0439
     51 H           2.4542   -2.0298    1.3581 H       1  UNL1        0.0439
     52 H           4.3807   -2.0205    0.0239 H       1  UNL1        0.0439
     53 H           3.0879   -1.5130   -1.1250 H       1  UNL1        0.0439
@<TRIPOS>BOND
     1     1     2    1
     2     2     3    1
     3     3     4    1
     4     4     5    1
     5     5     6    1
     6     6     7    1
     7     7     8    1
     8     8     9    1
     9     9    10    1
    10    10    11    1
    11    11    12    1
    12    12    13   ar
    13    13    14   ar
    14    14    15   ar
    15    15    16   ar
    16    16    17   ar
    17    17    18    1
    18    18    19    1
    19    19    20   ar
    20    20    21   ar
    21    21    22   ar
    22    22    23    1
    23    22    24   ar
    24    24    25   ar
    25     7    26    1
    26    26    27    1
    27    27     4    1
    28    25    11    1
    29    17    12   ar
    30    25    19   ar
    31     1    28    1
    32     2    29    1
    33     2    30    1
    34     3    31    1
    35     3    32    1
    36     5    33    1
    37     5    34    1
    38     6    35    1
    39     6    36    1
    40     8    37    1
    41     8    38    1
    42     9    39    1
    43     9    40    1
    44    10    41    1
    45    10    42    1
    46    13    43    1
    47    14    44    1
    48    15    45    1
    49    16    46    1
    50    20    47    1
    51    21    48    1
    52    24    49    1
    53    26    50    1
    54    26    51    1
    55    27    52    1
    56    27    53    1
