@<TRIPOS>MOLECULE
*****
 51 54 0 0 0
SMALL
GASTEIGER

@<TRIPOS>ATOM
      1 C           0.9131   -1.3979    1.6737 C.3     1  UNL1       -0.0381
      2 C           0.6451   -0.8075    0.3142 C.3     1  UNL1        0.0948
      3 N           1.4822    0.3405    0.0392 N.pl3   1  UNL1       -0.3320
      4 C           2.8858    0.1823   -0.0667 C.ar    1  UNL1        0.0461
      5 C           3.4884   -1.0426    0.0572 C.ar    1  UNL1       -0.0373
      6 C           4.8782   -1.1035   -0.0535 C.ar    1  UNL1       -0.0325
      7 C           5.6568    0.0075   -0.2801 C.ar    1  UNL1        0.0889
      8 C           7.1100   -0.0797   -0.3926 C.ar    1  UNL1        0.0867
      9 C           7.8787   -1.2161   -0.2954 C.ar    1  UNL1       -0.0148
     10 C           9.1875   -0.8360   -0.4626 C.ar    1  UNL1        0.0500
     11 N           9.1910    0.4828   -0.6524 N.ar    1  UNL1       -0.1793
     12 N           7.9428    0.9508   -0.6123 N.ar    1  UNL1       -0.2653
     13 C           7.5481    2.3475   -0.7791 C.3     1  UNL1        0.0309
     14 N           5.0298    1.1873   -0.3957 N.ar    1  UNL1       -0.2516
     15 C           3.6941    1.2876   -0.2951 C.ar    1  UNL1        0.0491
     16 C          -0.7597   -0.4199    0.1268 C.2     1  UNL1        0.2382
     17 O          -1.0639    0.7499   -0.2189 O.2     1  UNL1       -0.2734
     18 N          -1.8520   -1.3148    0.3171 N.am    1  UNL1       -0.2689
     19 C          -3.2002   -0.9037    0.1263 C.ar    1  UNL1        0.1249
     20 C          -3.8469   -1.0001   -1.0860 C.ar    1  UNL1       -0.0209
     21 C          -5.1625   -0.5939   -1.2511 C.ar    1  UNL1       -0.0493
     22 C          -5.8455   -0.0769   -0.1679 C.ar    1  UNL1        0.0018
     23 C          -7.2287    0.3760   -0.2415 C.ar    1  UNL1        0.0017
     24 C          -7.7122    1.4025    0.5436 C.ar    1  UNL1       -0.0511
     25 C          -9.0266    1.8142    0.4567 C.ar    1  UNL1       -0.0430
     26 C          -9.8976    1.2080   -0.4217 C.ar    1  UNL1        0.0276
     27 N          -9.4199    0.2085   -1.1836 N.ar    1  UNL1       -0.2627
     28 C          -8.1320   -0.2096   -1.1122 C.ar    1  UNL1        0.0353
     29 C          -5.1851    0.0130    1.0373 C.ar    1  UNL1        0.0374
     30 N          -3.8942   -0.3956    1.1612 N.ar    1  UNL1       -0.2395
     31 H           0.1081   -1.1449    2.4031 H       1  UNL1        0.0252
     32 H           1.0611   -2.4780    1.6280 H       1  UNL1        0.0252
     33 H           1.8270   -0.9280    2.0832 H       1  UNL1        0.0252
     34 H           0.8704   -1.5970   -0.4337 H       1  UNL1        0.0591
     35 H           1.0565    1.3036   -0.0848 H       1  UNL1        0.1468
     36 H           2.9096   -1.9514    0.2315 H       1  UNL1        0.0637
     37 H           5.3735   -2.0634    0.0419 H       1  UNL1        0.0640
     38 H           7.5438   -2.2342   -0.1204 H       1  UNL1        0.0655
     39 H          10.0840   -1.4723   -0.4483 H       1  UNL1        0.0848
     40 H           6.7311    2.3912   -1.5430 H       1  UNL1        0.0473
     41 H           7.1215    2.7510    0.1588 H       1  UNL1        0.0473
     42 H           8.3716    2.9569   -1.1806 H       1  UNL1        0.0473
     43 H           3.1840    2.2420   -0.3883 H       1  UNL1        0.0848
     44 H          -1.5976   -2.2897    0.6053 H       1  UNL1        0.1563
     45 H          -3.3259   -1.4042   -1.9493 H       1  UNL1        0.0652
     46 H          -5.6874   -0.6617   -2.1951 H       1  UNL1        0.0625
     47 H          -7.0214    1.8781    1.2355 H       1  UNL1        0.0625
     48 H          -9.4037    2.6162    1.0704 H       1  UNL1        0.0633
     49 H         -10.9484    1.5218   -0.5055 H       1  UNL1        0.0829
     50 H          -7.8309   -1.0165   -1.7580 H       1  UNL1        0.0836
     51 H          -5.7314    0.4195    1.8768 H       1  UNL1        0.0836
@<TRIPOS>BOND
     1     1     2    1
     2     2     3    1
     3     3     4    1
     4     4     5   ar
     5     5     6   ar
     6     6     7   ar
     7     7     8    1
     8     8     9   ar
     9     9    10   ar
    10    10    11   ar
    11    11    12   ar
    12    12    13    1
    13     7    14   ar
    14    14    15   ar
    15     2    16    1
    16    16    17    2
    17    16    18   am
    18    18    19    1
    19    19    20   ar
    20    20    21   ar
    21    21    22   ar
    22    22    23    1
    23    23    24   ar
    24    24    25   ar
    25    25    26   ar
    26    26    27   ar
    27    27    28   ar
    28    22    29   ar
    29    29    30   ar
    30    15     4   ar
    31    30    19   ar
    32    12     8   ar
    33    28    23   ar
    34     1    31    1
    35     1    32    1
    36     1    33    1
    37     2    34    1
    38     3    35    1
    39     5    36    1
    40     6    37    1
    41     9    38    1
    42    10    39    1
    43    13    40    1
    44    13    41    1
    45    13    42    1
    46    15    43    1
    47    18    44    1
    48    20    45    1
    49    21    46    1
    50    24    47    1
    51    25    48    1
    52    26    49    1
    53    28    50    1
    54    29    51    1
