
     RDKit          3D

 70 74  0  0  0  0  0  0  0  0999 V2000
  -10.0150    2.3020    0.4591 C   0  0  0  0  0  0  0  0  0  0  0  0
  -10.0214    1.3104   -0.6598 C   0  0  0  0  0  0  0  0  0  0  0  0
   -8.7569    0.7895   -0.9942 O   0  0  0  0  0  0  0  0  0  0  0  0
   -8.0347    0.1066   -0.0391 C   0  0  0  0  0  0  0  0  0  0  0  0
   -8.3609   -0.1444    1.2239 N   0  0  0  0  0  0  0  0  0  0  0  0
   -7.4206   -0.8266    1.8409 N   0  0  0  0  0  0  0  0  0  0  0  0
   -7.4760   -1.2623    3.2238 C   0  0  0  0  0  0  0  0  0  0  0  0
   -6.4149   -1.0552    0.9844 C   0  0  0  0  0  0  0  0  0  0  0  0
   -6.7836   -0.4667   -0.2313 C   0  0  0  0  0  0  0  0  0  0  0  0
   -6.0627   -0.4419   -1.4401 N   0  0  0  0  0  0  0  0  0  0  0  0
   -4.8362   -1.1515   -1.5325 C   0  0  0  0  0  0  0  0  0  0  0  0
   -4.8959   -2.5174   -1.6826 N   0  0  0  0  0  0  0  0  0  0  0  0
   -3.7946   -3.2747   -1.7949 C   0  0  0  0  0  0  0  0  0  0  0  0
   -2.5490   -2.6913   -1.7634 C   0  0  0  0  0  0  0  0  0  0  0  0
   -1.4270   -3.4333   -1.8756 F   0  0  0  0  0  0  0  0  0  0  0  0
   -2.4765   -1.2999   -1.6110 C   0  0  0  0  0  0  0  0  0  0  0  0
   -1.1511   -0.7350   -1.5967 C   0  0  0  0  0  0  0  0  0  0  0  0
   -0.1500   -0.8982   -2.5703 C   0  0  0  0  0  0  0  0  0  0  0  0
    0.9466   -0.2257   -2.1888 N   0  0  0  0  0  0  0  0  0  0  0  0
    0.7187    0.3681   -1.0203 C   0  0  0  0  0  0  0  0  0  0  0  0
    1.5710    1.1669   -0.2467 C   0  0  0  0  0  0  0  0  0  0  0  0
    2.8994    1.4687   -0.6493 N   0  0  0  0  0  0  0  0  0  0  0  0
    3.9413    0.5476   -0.2603 C   0  0  0  0  0  0  0  0  0  0  0  0
    3.6273   -0.4620    0.4094 O   0  0  0  0  0  0  0  0  0  0  0  0
    5.3573    0.7546   -0.6260 C   0  0  1  0  0  0  0  0  0  0  0  0
    5.7988    2.0730   -0.0170 C   0  0  0  0  0  0  0  0  0  0  0  0
    6.1470   -0.3443   -0.2077 N   0  0  0  0  0  0  0  0  0  0  0  0
    6.2341   -0.6213    1.1736 C   0  0  0  0  0  0  0  0  0  0  0  0
    7.6699   -0.5231    1.7105 C   0  0  0  0  0  0  0  0  0  0  0  0
    8.4053    0.2554    0.7732 N   0  0  0  0  0  0  0  0  0  0  0  0
    9.5218    0.9752    1.2747 C   0  0  0  0  0  0  0  0  0  0  0  0
    8.5864   -0.3942   -0.4936 C   0  0  0  0  0  0  0  0  0  0  0  0
    7.2221   -0.7070   -1.0433 C   0  0  0  0  0  0  0  0  0  0  0  0
    1.0925    1.6637    0.9346 C   0  0  0  0  0  0  0  0  0  0  0  0
   -0.2123    1.3649    1.3318 C   0  0  0  0  0  0  0  0  0  0  0  0
   -1.0278    0.5698    0.5409 C   0  0  0  0  0  0  0  0  0  0  0  0
   -0.5694    0.0610   -0.6482 C   0  0  0  0  0  0  0  0  0  0  0  0
   -3.6161   -0.6114   -1.5041 N   0  0  0  0  0  0  0  0  0  0  0  0
  -11.0857    2.6118    0.6350 H   0  0  0  0  0  0  0  0  0  0  0  0
   -9.5797    1.8880    1.3649 H   0  0  0  0  0  0  0  0  0  0  0  0
   -9.4893    3.2384    0.2136 H   0  0  0  0  0  0  0  0  0  0  0  0
  -10.6301    0.4159   -0.3315 H   0  0  0  0  0  0  0  0  0  0  0  0
  -10.4813    1.7813   -1.5569 H   0  0  0  0  0  0  0  0  0  0  0  0
   -8.5504   -1.3919    3.4911 H   0  0  0  0  0  0  0  0  0  0  0  0
   -6.9241   -2.1923    3.3828 H   0  0  0  0  0  0  0  0  0  0  0  0
   -7.0872   -0.4158    3.8344 H   0  0  0  0  0  0  0  0  0  0  0  0
   -5.5007   -1.5891    1.1868 H   0  0  0  0  0  0  0  0  0  0  0  0
   -6.4089    0.0807   -2.2493 H   0  0  0  0  0  0  0  0  0  0  0  0
   -3.8979   -4.3535   -1.9105 H   0  0  0  0  0  0  0  0  0  0  0  0
   -0.2741   -1.4723   -3.4622 H   0  0  0  0  0  0  0  0  0  0  0  0
    1.8709   -0.1522   -2.7025 H   0  0  0  0  0  0  0  0  0  0  0  0
    3.1800    2.3051   -1.2037 H   0  0  0  0  0  0  0  0  0  0  0  0
    5.4855    0.8782   -1.7267 H   0  0  0  0  0  0  0  0  0  0  0  0
    5.7367    2.0705    1.0770 H   0  0  0  0  0  0  0  0  0  0  0  0
    5.1099    2.8515   -0.3936 H   0  0  0  0  0  0  0  0  0  0  0  0
    6.8057    2.3145   -0.4020 H   0  0  0  0  0  0  0  0  0  0  0  0
    5.8428   -1.6643    1.3491 H   0  0  0  0  0  0  0  0  0  0  0  0
    5.6089    0.0448    1.8019 H   0  0  0  0  0  0  0  0  0  0  0  0
    7.7038   -0.0910    2.7142 H   0  0  0  0  0  0  0  0  0  0  0  0
    8.0629   -1.5750    1.6949 H   0  0  0  0  0  0  0  0  0  0  0  0
   10.2432    0.3912    1.8720 H   0  0  0  0  0  0  0  0  0  0  0  0
   10.0298    1.4570    0.3952 H   0  0  0  0  0  0  0  0  0  0  0  0
    9.1239    1.8425    1.8771 H   0  0  0  0  0  0  0  0  0  0  0  0
    9.1485   -1.3408   -0.3691 H   0  0  0  0  0  0  0  0  0  0  0  0
    9.0850    0.3191   -1.1813 H   0  0  0  0  0  0  0  0  0  0  0  0
    7.1393   -1.7989   -1.2874 H   0  0  0  0  0  0  0  0  0  0  0  0
    7.0682   -0.1810   -2.0300 H   0  0  0  0  0  0  0  0  0  0  0  0
    1.6633    2.2896    1.6077 H   0  0  0  0  0  0  0  0  0  0  0  0
   -0.6472    1.7254    2.2546 H   0  0  0  0  0  0  0  0  0  0  0  0
   -2.0387    0.3525    0.8704 H   0  0  0  0  0  0  0  0  0  0  0  0
  1  2  1  0
  2  3  1  0
  3  4  1  0
  4  5  2  0
  5  6  1  0
  6  7  1  0
  6  8  1  0
  8  9  2  0
  9 10  1  0
 10 11  1  0
 11 12  2  0
 12 13  1  0
 13 14  2  0
 14 15  1  0
 14 16  1  0
 16 17  1  0
 17 18  2  0
 18 19  1  0
 19 20  1  0
 20 21  2  0
 21 22  1  0
 22 23  1  0
 23 24  2  0
 23 25  1  0
 25 26  1  0
 25 27  1  0
 27 28  1  0
 28 29  1  0
 29 30  1  0
 30 31  1  0
 30 32  1  0
 32 33  1  0
 21 34  1  0
 34 35  2  0
 35 36  1  0
 36 37  2  0
 16 38  2  0
  9  4  1  0
 38 11  1  0
 37 17  1  0
 37 20  1  0
 33 27  1  0
  1 39  1  0
  1 40  1  0
  1 41  1  0
  2 42  1  0
  2 43  1  0
  7 44  1  0
  7 45  1  0
  7 46  1  0
  8 47  1  0
 10 48  1  0
 13 49  1  0
 18 50  1  0
 19 51  1  0
 22 52  1  0
 25 53  1  6
 26 54  1  0
 26 55  1  0
 26 56  1  0
 28 57  1  0
 28 58  1  0
 29 59  1  0
 29 60  1  0
 31 61  1  0
 31 62  1  0
 31 63  1  0
 32 64  1  0
 32 65  1  0
 33 66  1  0
 33 67  1  0
 34 68  1  0
 35 69  1  0
 36 70  1  0
M  END
$$$$
