@<TRIPOS>MOLECULE
*****
 70 74 0 0 0
SMALL
GASTEIGER

@<TRIPOS>ATOM
      1 C         -10.0150    2.3020    0.4591 C.3     1  UNL1       -0.0306
      2 C         -10.0214    1.3104   -0.6598 C.3     1  UNL1        0.0885
      3 O          -8.7569    0.7895   -0.9942 O.3     1  UNL1       -0.4744
      4 C          -8.0347    0.1066   -0.0391 C.ar    1  UNL1        0.2555
      5 N          -8.3609   -0.1444    1.2239 N.ar    1  UNL1       -0.1317
      6 N          -7.4206   -0.8266    1.8409 N.ar    1  UNL1       -0.2692
      7 C          -7.4760   -1.2623    3.2238 C.3     1  UNL1        0.0304
      8 C          -6.4149   -1.0552    0.9844 C.ar    1  UNL1        0.0503
      9 C          -6.7836   -0.4667   -0.2313 C.ar    1  UNL1        0.1152
     10 N          -6.0627   -0.4419   -1.4401 N.pl3   1  UNL1       -0.2782
     11 C          -4.8362   -1.1515   -1.5325 C.ar    1  UNL1        0.2203
     12 N          -4.8959   -2.5174   -1.6826 N.ar    1  UNL1       -0.2198
     13 C          -3.7946   -3.2747   -1.7949 C.ar    1  UNL1        0.0685
     14 C          -2.5490   -2.6913   -1.7634 C.ar    1  UNL1        0.1674
     15 F          -1.4270   -3.4333   -1.8756 F       1  UNL1       -0.2016
     16 C          -2.4765   -1.2999   -1.6110 C.ar    1  UNL1        0.1132
     17 C          -1.1511   -0.7350   -1.5967 C.ar    1  UNL1        0.0284
     18 C          -0.1500   -0.8982   -2.5703 C.ar    1  UNL1        0.0121
     19 N           0.9466   -0.2257   -2.1888 N.ar    1  UNL1       -0.3586
     20 C           0.7187    0.3681   -1.0203 C.ar    1  UNL1        0.0686
     21 C           1.5710    1.1669   -0.2467 C.ar    1  UNL1        0.0576
     22 N           2.8994    1.4687   -0.6493 N.am    1  UNL1       -0.2825
     23 C           3.9413    0.5476   -0.2603 C.2     1  UNL1        0.2342
     24 O           3.6273   -0.4620    0.4094 O.2     1  UNL1       -0.2738
     25 C           5.3573    0.7546   -0.6260 C.3     1  UNL1        0.0848
     26 C           5.7988    2.0730   -0.0170 C.3     1  UNL1       -0.0409
     27 N           6.1470   -0.3443   -0.2077 N.3     1  UNL1       -0.2893
     28 C           6.2341   -0.6213    1.1736 C.3     1  UNL1        0.0124
     29 C           7.6699   -0.5231    1.7105 C.3     1  UNL1        0.0114
     30 N           8.4053    0.2554    0.7732 N.3     1  UNL1       -0.3029
     31 C           9.5218    0.9752    1.2747 C.3     1  UNL1       -0.0127
     32 C           8.5864   -0.3942   -0.4936 C.3     1  UNL1        0.0114
     33 C           7.2221   -0.7070   -1.0433 C.3     1  UNL1        0.0124
     34 C           1.0925    1.6637    0.9346 C.ar    1  UNL1       -0.0384
     35 C          -0.2123    1.3649    1.3318 C.ar    1  UNL1       -0.0593
     36 C          -1.0278    0.5698    0.5409 C.ar    1  UNL1       -0.0518
     37 C          -0.5694    0.0610   -0.6482 C.ar    1  UNL1        0.0107
     38 N          -3.6161   -0.6114   -1.5041 N.ar    1  UNL1       -0.2113
     39 H         -11.0857    2.6118    0.6350 H       1  UNL1        0.0262
     40 H          -9.5797    1.8880    1.3649 H       1  UNL1        0.0262
     41 H          -9.4893    3.2384    0.2136 H       1  UNL1        0.0262
     42 H         -10.6301    0.4159   -0.3315 H       1  UNL1        0.0694
     43 H         -10.4813    1.7813   -1.5569 H       1  UNL1        0.0694
     44 H          -8.5504   -1.3919    3.4911 H       1  UNL1        0.0473
     45 H          -6.9241   -2.1923    3.3828 H       1  UNL1        0.0473
     46 H          -7.0872   -0.4158    3.8344 H       1  UNL1        0.0473
     47 H          -5.5007   -1.5891    1.1868 H       1  UNL1        0.0846
     48 H          -6.4089    0.0807   -2.2493 H       1  UNL1        0.1552
     49 H          -3.8979   -4.3535   -1.9105 H       1  UNL1        0.0861
     50 H          -0.2741   -1.4723   -3.4622 H       1  UNL1        0.0814
     51 H           1.8709   -0.1522   -2.7025 H       1  UNL1        0.1654
     52 H           3.1800    2.3051   -1.2037 H       1  UNL1        0.1549
     53 H           5.4855    0.8782   -1.7267 H       1  UNL1        0.0556
     54 H           5.7367    2.0705    1.0770 H       1  UNL1        0.0249
     55 H           5.1099    2.8515   -0.3936 H       1  UNL1        0.0249
     56 H           6.8057    2.3145   -0.4020 H       1  UNL1        0.0249
     57 H           5.8428   -1.6643    1.3491 H       1  UNL1        0.0439
     58 H           5.6089    0.0448    1.8019 H       1  UNL1        0.0439
     59 H           7.7038   -0.0910    2.7142 H       1  UNL1        0.0439
     60 H           8.0629   -1.5750    1.6949 H       1  UNL1        0.0439
     61 H          10.2432    0.3912    1.8720 H       1  UNL1        0.0391
     62 H          10.0298    1.4570    0.3952 H       1  UNL1        0.0391
     63 H           9.1239    1.8425    1.8771 H       1  UNL1        0.0391
     64 H           9.1485   -1.3408   -0.3691 H       1  UNL1        0.0439
     65 H           9.0850    0.3191   -1.1813 H       1  UNL1        0.0439
     66 H           7.1393   -1.7989   -1.2874 H       1  UNL1        0.0439
     67 H           7.0682   -0.1810   -2.0300 H       1  UNL1        0.0439
     68 H           1.6633    2.2896    1.6077 H       1  UNL1        0.0637
     69 H          -0.6472    1.7254    2.2546 H       1  UNL1        0.0618
     70 H          -2.0387    0.3525    0.8704 H       1  UNL1        0.0624
@<TRIPOS>BOND
     1     1     2    1
     2     2     3    1
     3     3     4    1
     4     4     5   ar
     5     5     6   ar
     6     6     7    1
     7     6     8   ar
     8     8     9   ar
     9     9    10    1
    10    10    11    1
    11    11    12   ar
    12    12    13   ar
    13    13    14   ar
    14    14    15    1
    15    14    16   ar
    16    16    17    1
    17    17    18   ar
    18    18    19   ar
    19    19    20   ar
    20    20    21   ar
    21    21    22    1
    22    22    23   am
    23    23    24    2
    24    23    25    1
    25    25    26    1
    26    25    27    1
    27    27    28    1
    28    28    29    1
    29    29    30    1
    30    30    31    1
    31    30    32    1
    32    32    33    1
    33    21    34   ar
    34    34    35   ar
    35    35    36   ar
    36    36    37   ar
    37    16    38   ar
    38     9     4   ar
    39    38    11   ar
    40    37    17   ar
    41    37    20   ar
    42    33    27    1
    43     1    39    1
    44     1    40    1
    45     1    41    1
    46     2    42    1
    47     2    43    1
    48     7    44    1
    49     7    45    1
    50     7    46    1
    51     8    47    1
    52    10    48    1
    53    13    49    1
    54    18    50    1
    55    19    51    1
    56    22    52    1
    57    25    53    1
    58    26    54    1
    59    26    55    1
    60    26    56    1
    61    28    57    1
    62    28    58    1
    63    29    59    1
    64    29    60    1
    65    31    61    1
    66    31    62    1
    67    31    63    1
    68    32    64    1
    69    32    65    1
    70    33    66    1
    71    33    67    1
    72    34    68    1
    73    35    69    1
    74    36    70    1
