@<TRIPOS>MOLECULE
*****
 69 74 0 0 0
SMALL
GASTEIGER

@<TRIPOS>ATOM
      1 C          -5.6099    2.7651    1.0266 C.3     1  UNL1       -0.0380
      2 C          -6.3848    1.5848    0.5638 C.ar    1  UNL1       -0.0279
      3 C          -7.6232    1.3285    1.1187 C.ar    1  UNL1       -0.0557
      4 C          -8.3012    0.2171    0.6496 C.ar    1  UNL1       -0.0433
      5 C          -7.7624   -0.5825   -0.3171 C.ar    1  UNL1        0.0279
      6 N          -6.5392   -0.2839   -0.8290 N.ar    1  UNL1       -0.2583
      7 C          -5.8440    0.7802   -0.4078 C.ar    1  UNL1        0.0581
      8 C          -4.5195    1.0471   -0.9990 C.3     1  UNL1        0.0415
      9 N          -3.4387    0.6599   -0.1070 N.3     1  UNL1       -0.2965
     10 C          -2.1890    0.9534   -0.7377 C.3     1  UNL1        0.0017
     11 C          -1.4615   -0.3177   -1.1157 C.3     1  UNL1       -0.0095
     12 C          -1.1605   -1.1059    0.1359 C.3     1  UNL1        0.1240
     13 C          -2.3503   -1.1598    1.0589 C.3     1  UNL1       -0.0095
     14 C          -3.5708   -0.7384    0.2720 C.3     1  UNL1        0.0017
     15 C           0.0339   -0.5212    0.8109 C.2     1  UNL1        0.2516
     16 O          -0.0096    0.2659    1.8167 O.2     1  UNL1       -0.2724
     17 N           1.1713   -1.0164    0.1133 N.am    1  UNL1       -0.1920
     18 C           2.4470   -0.4309    0.0552 C.ar    1  UNL1        0.0455
     19 C           2.6860    0.7847    0.6861 C.ar    1  UNL1       -0.0392
     20 C           3.9178    1.4045    0.6687 C.ar    1  UNL1       -0.0523
     21 C           4.9700    0.8005   -0.0027 C.ar    1  UNL1       -0.0178
     22 C           6.2687    1.4616   -0.0211 C.ar    1  UNL1       -0.0178
     23 C           7.4490    0.7617   -0.0688 C.ar    1  UNL1       -0.0533
     24 C           8.6823    1.3839   -0.0882 C.ar    1  UNL1       -0.0472
     25 C           8.7461    2.7758   -0.0589 C.ar    1  UNL1        0.0589
     26 C          10.0497    3.4617   -0.0788 C.2     1  UNL1        0.3368
     27 O          11.1279    2.8297   -0.1187 O.2     1  UNL1       -0.2451
     28 O          10.0471    4.8525   -0.0516 O.3     1  UNL1       -0.4771
     29 C           7.5709    3.4922   -0.0110 C.ar    1  UNL1       -0.0472
     30 C           6.3349    2.8392    0.0079 C.ar    1  UNL1       -0.0533
     31 C           4.7440   -0.4051   -0.6318 C.ar    1  UNL1       -0.0523
     32 C           3.4937   -1.0212   -0.6064 C.ar    1  UNL1       -0.0392
     33 C           0.7239   -2.2175   -0.5106 C.2     1  UNL1        0.3219
     34 O           1.3493   -3.0264   -1.2384 O.2     1  UNL1       -0.2512
     35 N          -0.6684   -2.4387   -0.1905 N.am    1  UNL1       -0.2229
     36 C          -1.3802   -3.6669   -0.2003 C.ar    1  UNL1        0.1478
     37 C          -2.0047   -4.0417   -1.3715 C.ar    1  UNL1        0.0679
     38 N          -2.7051   -5.2104   -1.4534 N.ar    1  UNL1       -0.2583
     39 C          -2.7852   -6.0027   -0.3781 C.ar    1  UNL1        0.0458
     40 C          -2.1750   -5.6536    0.7952 C.ar    1  UNL1        0.0478
     41 N          -1.4934   -4.4995    0.8469 N.ar    1  UNL1       -0.2368
     42 H          -6.2107    3.3816    1.7171 H       1  UNL1        0.0278
     43 H          -4.6581    2.4971    1.5172 H       1  UNL1        0.0278
     44 H          -5.3797    3.3940    0.1374 H       1  UNL1        0.0278
     45 H          -8.0525    1.9535    1.8787 H       1  UNL1        0.0621
     46 H          -9.2765   -0.0023    1.0723 H       1  UNL1        0.0633
     47 H          -8.3214   -1.4498   -0.6641 H       1  UNL1        0.0829
     48 H          -4.4171    0.5664   -2.0017 H       1  UNL1        0.0491
     49 H          -4.4377    2.1383   -1.1669 H       1  UNL1        0.0491
     50 H          -1.5593    1.5086   -0.0091 H       1  UNL1        0.0427
     51 H          -2.3253    1.5611   -1.6773 H       1  UNL1        0.0427
     52 H          -2.1082   -0.8672   -1.8133 H       1  UNL1        0.0303
     53 H          -0.5077   -0.0113   -1.5925 H       1  UNL1        0.0303
     54 H          -2.2320   -0.4484    1.8935 H       1  UNL1        0.0303
     55 H          -2.5088   -2.1661    1.4886 H       1  UNL1        0.0303
     56 H          -3.6829   -1.3870   -0.6242 H       1  UNL1        0.0427
     57 H          -4.4696   -0.8021    0.9348 H       1  UNL1        0.0427
     58 H           1.9111    1.3321    1.2363 H       1  UNL1        0.0636
     59 H           4.0631    2.3576    1.1766 H       1  UNL1        0.0624
     60 H           7.4345   -0.3155   -0.0928 H       1  UNL1        0.0624
     61 H           9.6050    0.8221   -0.1259 H       1  UNL1        0.0626
     62 H          10.9393    5.3456   -0.1511 H       1  UNL1        0.2954
     63 H           7.6216    4.5696    0.0110 H       1  UNL1        0.0626
     64 H           5.4196    3.4175    0.0460 H       1  UNL1        0.0624
     65 H           5.5641   -0.8533   -1.1423 H       1  UNL1        0.0624
     66 H           3.3392   -1.9620   -1.1027 H       1  UNL1        0.0636
     67 H          -1.9612   -3.4323   -2.2523 H       1  UNL1        0.0865
     68 H          -3.3578   -6.9295   -0.4892 H       1  UNL1        0.0845
     69 H          -2.2678   -6.3275    1.6392 H       1  UNL1        0.0846
@<TRIPOS>BOND
     1     1     2    1
     2     2     3   ar
     3     3     4   ar
     4     4     5   ar
     5     5     6   ar
     6     6     7   ar
     7     7     8    1
     8     8     9    1
     9     9    10    1
    10    10    11    1
    11    11    12    1
    12    12    13    1
    13    13    14    1
    14    12    15    1
    15    15    16    2
    16    15    17   am
    17    17    18    1
    18    18    19   ar
    19    19    20   ar
    20    20    21   ar
    21    21    22    1
    22    22    23   ar
    23    23    24   ar
    24    24    25   ar
    25    25    26    1
    26    26    27    2
    27    26    28    1
    28    25    29   ar
    29    29    30   ar
    30    21    31   ar
    31    31    32   ar
    32    17    33   am
    33    33    34    2
    34    33    35   am
    35    35    36    1
    36    36    37   ar
    37    37    38   ar
    38    38    39   ar
    39    39    40   ar
    40    40    41   ar
    41     7     2   ar
    42    14     9    1
    43    32    18   ar
    44    41    36   ar
    45    35    12    1
    46    30    22   ar
    47     1    42    1
    48     1    43    1
    49     1    44    1
    50     3    45    1
    51     4    46    1
    52     5    47    1
    53     8    48    1
    54     8    49    1
    55    10    50    1
    56    10    51    1
    57    11    52    1
    58    11    53    1
    59    13    54    1
    60    13    55    1
    61    14    56    1
    62    14    57    1
    63    19    58    1
    64    20    59    1
    65    23    60    1
    66    24    61    1
    67    28    62    1
    68    29    63    1
    69    30    64    1
    70    31    65    1
    71    32    66    1
    72    37    67    1
    73    39    68    1
    74    40    69    1
