@<TRIPOS>MOLECULE
*****
 47 51 0 0 0
SMALL
GASTEIGER

@<TRIPOS>ATOM
      1 C           7.4392   -0.2520    2.2014 C.3     1  UNL1        0.0833
      2 O           6.0179   -0.1196    2.0735 O.3     1  UNL1       -0.4535
      3 C           5.4178   -0.4219    0.8564 C.2     1  UNL1        0.4027
      4 O           6.1382   -0.8048   -0.1044 O.2     1  UNL1       -0.2263
      5 N           4.0215   -0.3010    0.7010 N.am    1  UNL1       -0.2634
      6 C           2.9053    0.0912    1.5363 C.3     1  UNL1        0.0402
      7 C           1.8958   -0.3426    0.4975 C.3     1  UNL1        0.0676
      8 N           0.9822    0.6985    0.1291 N.ar    1  UNL1       -0.3222
      9 C           1.2882    2.0075    0.1044 C.ar    1  UNL1        0.0975
     10 N           0.1941    2.6852   -0.2872 N.ar    1  UNL1       -0.2351
     11 C          -0.8296    1.8100   -0.5184 C.ar    1  UNL1        0.0982
     12 C          -2.1511    2.2233   -0.9544 C.ar    1  UNL1        0.0027
     13 C          -2.9435    3.0670   -0.2000 C.ar    1  UNL1       -0.0498
     14 C          -4.2051    3.4697   -0.6013 C.ar    1  UNL1       -0.0258
     15 C          -4.6979    3.0045   -1.8190 C.ar    1  UNL1        0.1234
     16 F          -5.9122    3.3506   -2.2761 F       1  UNL1       -0.2055
     17 C          -3.9323    2.1622   -2.5944 C.ar    1  UNL1       -0.0258
     18 C          -2.6714    1.7834   -2.1527 C.ar    1  UNL1       -0.0498
     19 C          -0.3200    0.5752   -0.2536 C.ar    1  UNL1        0.0969
     20 C          -1.0543   -0.6674   -0.3654 C.ar    1  UNL1        0.1103
     21 C          -0.5842   -1.6074   -1.2558 C.ar    1  UNL1       -0.0290
     22 C          -1.2498   -2.8049   -1.3972 C.ar    1  UNL1       -0.0153
     23 C          -2.3921   -3.0312   -0.6258 C.ar    1  UNL1        0.1555
     24 N          -3.2460   -4.0667   -0.5294 N.ar    1  UNL1       -0.2333
     25 C          -4.2140   -3.8226    0.3662 C.ar    1  UNL1        0.0659
     26 C          -3.9504   -2.5672    0.8553 C.ar    1  UNL1        0.1618
     27 C          -4.7193   -1.8506    1.8558 C.1     1  UNL1        0.1208
     28 N          -5.3444   -1.2724    2.6388 N.1     1  UNL1       -0.1892
     29 N          -2.8242   -2.0997    0.2301 N.ar    1  UNL1       -0.2023
     30 N          -2.1560   -0.9672    0.3334 N.ar    1  UNL1       -0.1623
     31 C           3.0876   -0.5233   -0.3848 C.3     1  UNL1        0.0402
     32 H           7.7771   -1.2531    1.8550 H       1  UNL1        0.0661
     33 H           7.9695    0.5481    1.6276 H       1  UNL1        0.0661
     34 H           7.6502   -0.1726    3.2899 H       1  UNL1        0.0661
     35 H           2.9555    1.1790    1.7362 H       1  UNL1        0.0486
     36 H           2.8612   -0.5010    2.4840 H       1  UNL1        0.0486
     37 H           1.4007   -1.2914    0.7904 H       1  UNL1        0.0559
     38 H           2.2262    2.4793    0.3458 H       1  UNL1        0.1029
     39 H          -2.5342    3.4217    0.7575 H       1  UNL1        0.0625
     40 H          -4.8042    4.1338    0.0138 H       1  UNL1        0.0646
     41 H          -4.2772    1.7733   -3.5544 H       1  UNL1        0.0646
     42 H          -2.0448    1.1243   -2.7355 H       1  UNL1        0.0625
     43 H           0.3051   -1.4383   -1.8602 H       1  UNL1        0.0641
     44 H          -0.9432   -3.5820   -2.0688 H       1  UNL1        0.0655
     45 H          -5.0046   -4.4960    0.6137 H       1  UNL1        0.0859
     46 H           3.2313   -1.5797   -0.7557 H       1  UNL1        0.0486
     47 H           3.2417    0.2489   -1.1711 H       1  UNL1        0.0486
@<TRIPOS>BOND
     1     1     2    1
     2     2     3    1
     3     3     4    2
     4     3     5   am
     5     5     6    1
     6     6     7    1
     7     7     8    1
     8     8     9   ar
     9     9    10   ar
    10    10    11   ar
    11    11    12    1
    12    12    13   ar
    13    13    14   ar
    14    14    15   ar
    15    15    16    1
    16    15    17   ar
    17    17    18   ar
    18    11    19   ar
    19    19    20    1
    20    20    21   ar
    21    21    22   ar
    22    22    23   ar
    23    23    24   ar
    24    24    25   ar
    25    25    26   ar
    26    26    27    1
    27    27    28    3
    28    26    29   ar
    29    29    30   ar
    30     7    31    1
    31    31     5    1
    32    19     8   ar
    33    30    20   ar
    34    18    12   ar
    35    29    23   ar
    36     1    32    1
    37     1    33    1
    38     1    34    1
    39     6    35    1
    40     6    36    1
    41     7    37    1
    42     9    38    1
    43    13    39    1
    44    14    40    1
    45    17    41    1
    46    18    42    1
    47    21    43    1
    48    22    44    1
    49    25    45    1
    50    31    46    1
    51    31    47    1
