@<TRIPOS>MOLECULE
*****
 54 59 0 0 0
SMALL
GASTEIGER

@<TRIPOS>ATOM
      1 N          -5.3693    0.6990    2.4718 N.1     1  UNL1       -0.1908
      2 C          -4.5660    0.5731    1.6512 C.1     1  UNL1        0.1010
      3 C          -3.5540    0.4116    0.6510 C.ar    1  UNL1        0.0733
      4 C          -2.2138    0.4239    1.0038 C.ar    1  UNL1       -0.0347
      5 C          -1.2240    0.2703    0.0560 C.ar    1  UNL1       -0.0137
      6 C           0.1793    0.2849    0.4393 C.ar    1  UNL1        0.0185
      7 C           1.1323    0.7688   -0.4471 C.ar    1  UNL1        0.0391
      8 N           2.4303    0.7835   -0.0959 N.ar    1  UNL1       -0.2350
      9 C           2.8309    0.3305    1.1194 C.ar    1  UNL1        0.1632
     10 C           4.0781    0.2430    1.7025 C.ar    1  UNL1        0.0467
     11 C           5.3590    0.6378    1.1292 C.ar    1  UNL1       -0.0022
     12 C           5.8907    1.9046    1.2727 C.ar    1  UNL1       -0.0351
     13 C           7.0983    2.2639    0.7283 C.ar    1  UNL1        0.0288
     14 N           7.8199    1.3794    0.0229 N.ar    1  UNL1       -0.2549
     15 C           7.3290    0.1410   -0.1335 C.ar    1  UNL1        0.0715
     16 C           8.0709   -0.7890   -0.8659 C.ar    1  UNL1       -0.0357
     17 C           7.5992   -2.0706   -1.0478 C.ar    1  UNL1       -0.0597
     18 C           6.3814   -2.4396   -0.5010 C.ar    1  UNL1       -0.0611
     19 C           5.6217   -1.5485    0.2278 C.ar    1  UNL1       -0.0520
     20 C           6.1209   -0.2624    0.3960 C.ar    1  UNL1        0.0082
     21 C           3.8509   -0.3016    2.9519 C.ar    1  UNL1        0.0597
     22 N           2.5234   -0.5145    3.0715 N.ar    1  UNL1       -0.1727
     23 N           1.8904   -0.1363    1.9683 N.ar    1  UNL1       -0.2206
     24 C           0.5803   -0.1790    1.6810 C.ar    1  UNL1        0.0406
     25 C          -1.5915    0.1028   -1.2595 C.ar    1  UNL1       -0.0521
     26 C          -2.9279    0.0855   -1.6484 C.ar    1  UNL1       -0.0388
     27 C          -3.9098    0.2437   -0.6647 C.ar    1  UNL1        0.0474
     28 N          -5.2701    0.2244   -1.0686 N.pl3   1  UNL1       -0.3265
     29 C          -6.1653    1.3613   -0.8394 C.3     1  UNL1        0.0248
     30 C          -7.4096    0.8537   -0.1646 C.3     1  UNL1        0.0117
     31 N          -7.2985   -0.5490    0.1848 N.3     1  UNL1       -0.3130
     32 C          -7.0744   -1.3738   -0.9939 C.3     1  UNL1        0.0117
     33 C          -5.8339   -0.9316   -1.7316 C.3     1  UNL1        0.0248
     34 H          -1.8879    0.5555    2.0440 H       1  UNL1        0.0637
     35 H           0.7892    1.1288   -1.4204 H       1  UNL1        0.0837
     36 H           5.2710    2.6035    1.8576 H       1  UNL1        0.0639
     37 H           7.4391    3.2748    0.8891 H       1  UNL1        0.0830
     38 H           9.0207   -0.4914   -1.2889 H       1  UNL1        0.0639
     39 H           8.1572   -2.8082   -1.6117 H       1  UNL1        0.0618
     40 H           6.0063   -3.4420   -0.6399 H       1  UNL1        0.0618
     41 H           4.6701   -1.8020    0.6671 H       1  UNL1        0.0624
     42 H           4.5812   -0.5302    3.7223 H       1  UNL1        0.0855
     43 H          -0.1791   -0.5503    2.3529 H       1  UNL1        0.0837
     44 H          -0.8231   -0.0192   -2.0160 H       1  UNL1        0.0624
     45 H          -3.2148   -0.0473   -2.6898 H       1  UNL1        0.0637
     46 H          -5.6458    2.0585   -0.1681 H       1  UNL1        0.0476
     47 H          -6.4121    1.8250   -1.8176 H       1  UNL1        0.0476
     48 H          -8.2846    1.0281   -0.8535 H       1  UNL1        0.0439
     49 H          -7.5634    1.4135    0.7793 H       1  UNL1        0.0439
     50 H          -8.1644   -0.8865    0.6265 H       1  UNL1        0.1220
     51 H          -7.9671   -1.4091   -1.6447 H       1  UNL1        0.0439
     52 H          -6.9097   -2.4051   -0.6273 H       1  UNL1        0.0439
     53 H          -6.1517   -0.6241   -2.7547 H       1  UNL1        0.0476
     54 H          -5.1096   -1.7634   -1.8134 H       1  UNL1        0.0476
@<TRIPOS>BOND
     1     1     2    3
     2     2     3    1
     3     3     4   ar
     4     4     5   ar
     5     5     6    1
     6     6     7   ar
     7     7     8   ar
     8     8     9   ar
     9     9    10   ar
    10    10    11    1
    11    11    12   ar
    12    12    13   ar
    13    13    14   ar
    14    14    15   ar
    15    15    16   ar
    16    16    17   ar
    17    17    18   ar
    18    18    19   ar
    19    19    20   ar
    20    10    21   ar
    21    21    22   ar
    22    22    23   ar
    23    23    24   ar
    24     5    25   ar
    25    25    26   ar
    26    26    27   ar
    27    27    28    1
    28    28    29    1
    29    29    30    1
    30    30    31    1
    31    31    32    1
    32    32    33    1
    33    27     3   ar
    34    33    28    1
    35    24     6   ar
    36    23     9   ar
    37    20    11   ar
    38    20    15   ar
    39     4    34    1
    40     7    35    1
    41    12    36    1
    42    13    37    1
    43    16    38    1
    44    17    39    1
    45    18    40    1
    46    19    41    1
    47    21    42    1
    48    24    43    1
    49    25    44    1
    50    26    45    1
    51    29    46    1
    52    29    47    1
    53    30    48    1
    54    30    49    1
    55    31    50    1
    56    32    51    1
    57    32    52    1
    58    33    53    1
    59    33    54    1
