
     RDKit          3D

 54 59  0  0  0  0  0  0  0  0999 V2000
   -5.3693    0.6990    2.4718 N   0  0  0  0  0  0  0  0  0  0  0  0
   -4.5660    0.5731    1.6512 C   0  0  0  0  0  0  0  0  0  0  0  0
   -3.5540    0.4116    0.6510 C   0  0  0  0  0  0  0  0  0  0  0  0
   -2.2138    0.4239    1.0038 C   0  0  0  0  0  0  0  0  0  0  0  0
   -1.2240    0.2703    0.0560 C   0  0  0  0  0  0  0  0  0  0  0  0
    0.1793    0.2849    0.4393 C   0  0  0  0  0  0  0  0  0  0  0  0
    1.1323    0.7688   -0.4471 C   0  0  0  0  0  0  0  0  0  0  0  0
    2.4303    0.7835   -0.0959 N   0  0  0  0  0  0  0  0  0  0  0  0
    2.8309    0.3305    1.1194 C   0  0  0  0  0  0  0  0  0  0  0  0
    4.0781    0.2430    1.7025 C   0  0  0  0  0  0  0  0  0  0  0  0
    5.3590    0.6378    1.1292 C   0  0  0  0  0  0  0  0  0  0  0  0
    5.8907    1.9046    1.2727 C   0  0  0  0  0  0  0  0  0  0  0  0
    7.0983    2.2639    0.7283 C   0  0  0  0  0  0  0  0  0  0  0  0
    7.8199    1.3794    0.0229 N   0  0  0  0  0  0  0  0  0  0  0  0
    7.3290    0.1410   -0.1335 C   0  0  0  0  0  0  0  0  0  0  0  0
    8.0709   -0.7890   -0.8659 C   0  0  0  0  0  0  0  0  0  0  0  0
    7.5992   -2.0706   -1.0478 C   0  0  0  0  0  0  0  0  0  0  0  0
    6.3814   -2.4396   -0.5010 C   0  0  0  0  0  0  0  0  0  0  0  0
    5.6217   -1.5485    0.2278 C   0  0  0  0  0  0  0  0  0  0  0  0
    6.1209   -0.2624    0.3960 C   0  0  0  0  0  0  0  0  0  0  0  0
    3.8509   -0.3016    2.9519 C   0  0  0  0  0  0  0  0  0  0  0  0
    2.5234   -0.5145    3.0715 N   0  0  0  0  0  0  0  0  0  0  0  0
    1.8904   -0.1363    1.9683 N   0  0  0  0  0  0  0  0  0  0  0  0
    0.5803   -0.1790    1.6810 C   0  0  0  0  0  0  0  0  0  0  0  0
   -1.5915    0.1028   -1.2595 C   0  0  0  0  0  0  0  0  0  0  0  0
   -2.9279    0.0855   -1.6484 C   0  0  0  0  0  0  0  0  0  0  0  0
   -3.9098    0.2437   -0.6647 C   0  0  0  0  0  0  0  0  0  0  0  0
   -5.2701    0.2244   -1.0686 N   0  0  0  0  0  0  0  0  0  0  0  0
   -6.1653    1.3613   -0.8394 C   0  0  0  0  0  0  0  0  0  0  0  0
   -7.4096    0.8537   -0.1646 C   0  0  0  0  0  0  0  0  0  0  0  0
   -7.2985   -0.5490    0.1848 N   0  0  0  0  0  0  0  0  0  0  0  0
   -7.0744   -1.3738   -0.9939 C   0  0  0  0  0  0  0  0  0  0  0  0
   -5.8339   -0.9316   -1.7316 C   0  0  0  0  0  0  0  0  0  0  0  0
   -1.8879    0.5555    2.0440 H   0  0  0  0  0  0  0  0  0  0  0  0
    0.7892    1.1288   -1.4204 H   0  0  0  0  0  0  0  0  0  0  0  0
    5.2710    2.6035    1.8576 H   0  0  0  0  0  0  0  0  0  0  0  0
    7.4391    3.2748    0.8891 H   0  0  0  0  0  0  0  0  0  0  0  0
    9.0207   -0.4914   -1.2889 H   0  0  0  0  0  0  0  0  0  0  0  0
    8.1572   -2.8082   -1.6117 H   0  0  0  0  0  0  0  0  0  0  0  0
    6.0063   -3.4420   -0.6399 H   0  0  0  0  0  0  0  0  0  0  0  0
    4.6701   -1.8020    0.6671 H   0  0  0  0  0  0  0  0  0  0  0  0
    4.5812   -0.5302    3.7223 H   0  0  0  0  0  0  0  0  0  0  0  0
   -0.1791   -0.5503    2.3529 H   0  0  0  0  0  0  0  0  0  0  0  0
   -0.8231   -0.0192   -2.0160 H   0  0  0  0  0  0  0  0  0  0  0  0
   -3.2148   -0.0473   -2.6898 H   0  0  0  0  0  0  0  0  0  0  0  0
   -5.6458    2.0585   -0.1681 H   0  0  0  0  0  0  0  0  0  0  0  0
   -6.4121    1.8250   -1.8176 H   0  0  0  0  0  0  0  0  0  0  0  0
   -8.2846    1.0281   -0.8535 H   0  0  0  0  0  0  0  0  0  0  0  0
   -7.5634    1.4135    0.7793 H   0  0  0  0  0  0  0  0  0  0  0  0
   -8.1644   -0.8865    0.6265 H   0  0  0  0  0  0  0  0  0  0  0  0
   -7.9671   -1.4091   -1.6447 H   0  0  0  0  0  0  0  0  0  0  0  0
   -6.9097   -2.4051   -0.6273 H   0  0  0  0  0  0  0  0  0  0  0  0
   -6.1517   -0.6241   -2.7547 H   0  0  0  0  0  0  0  0  0  0  0  0
   -5.1096   -1.7634   -1.8134 H   0  0  0  0  0  0  0  0  0  0  0  0
  1  2  3  0
  2  3  1  0
  3  4  2  0
  4  5  1  0
  5  6  1  0
  6  7  1  0
  7  8  2  0
  8  9  1  0
  9 10  2  0
 10 11  1  0
 11 12  2  0
 12 13  1  0
 13 14  2  0
 14 15  1  0
 15 16  2  0
 16 17  1  0
 17 18  2  0
 18 19  1  0
 19 20  2  0
 10 21  1  0
 21 22  2  0
 22 23  1  0
 23 24  1  0
  5 25  2  0
 25 26  1  0
 26 27  2  0
 27 28  1  0
 28 29  1  0
 29 30  1  0
 30 31  1  0
 31 32  1  0
 32 33  1  0
 27  3  1  0
 33 28  1  0
 24  6  2  0
 23  9  1  0
 20 11  1  0
 20 15  1  0
  4 34  1  0
  7 35  1  0
 12 36  1  0
 13 37  1  0
 16 38  1  0
 17 39  1  0
 18 40  1  0
 19 41  1  0
 21 42  1  0
 24 43  1  0
 25 44  1  0
 26 45  1  0
 29 46  1  0
 29 47  1  0
 30 48  1  0
 30 49  1  0
 31 50  1  0
 32 51  1  0
 32 52  1  0
 33 53  1  0
 33 54  1  0
M  END
$$$$
