
     RDKit          3D

 27 28  0  0  0  0  0  0  0  0999 V2000
   -4.3073   -0.6969   -0.6387 C   0  0  0  0  0  0  0  0  0  0  0  0
   -4.2820    0.6512    0.0247 C   0  0  0  0  0  0  0  0  0  0  0  0
   -3.1291    1.3478   -0.4238 O   0  0  0  0  0  0  0  0  0  0  0  0
   -1.8567    0.9008   -0.2208 C   0  0  0  0  0  0  0  0  0  0  0  0
   -3.0241    1.3095   -0.4062 O   0  0  0  0  0  0  0  0  0  0  0  0
   -0.5506    0.3491    0.0506 C   0  0  0  0  0  0  0  0  0  0  0  0
    0.4836    1.0604   -0.5159 C   0  0  0  0  0  0  0  0  0  0  0  0
    1.7607    0.5933   -0.3008 C   0  0  0  0  0  0  0  0  0  0  0  0
    2.9032    1.1721   -0.7859 C   0  0  0  0  0  0  0  0  0  0  0  0
    4.1216    0.5747   -0.4775 C   0  0  0  0  0  0  0  0  0  0  0  0
    4.1903   -0.5791    0.3014 C   0  0  0  0  0  0  0  0  0  0  0  0
    5.4616   -1.0999    0.5535 O   0  0  0  0  0  0  0  0  0  0  0  0
    3.0108   -1.1357    0.7744 C   0  0  0  0  0  0  0  0  0  0  0  0
    1.7887   -0.5646    0.4842 C   0  0  0  0  0  0  0  0  0  0  0  0
    0.7869   -1.1983    0.9953 O   0  0  0  0  0  0  0  0  0  0  0  0
   -0.4448   -0.7912    0.8173 C   0  0  0  0  0  0  0  0  0  0  0  0
   -1.4350   -1.3883    1.3028 O   0  0  0  0  0  0  0  0  0  0  0  0
   -3.7215   -0.6272   -1.5780 H   0  0  0  0  0  0  0  0  0  0  0  0
   -3.8546   -1.4970    0.0099 H   0  0  0  0  0  0  0  0  0  0  0  0
   -5.3320   -1.0021   -0.9419 H   0  0  0  0  0  0  0  0  0  0  0  0
   -5.2037    1.1649   -0.2392 H   0  0  0  0  0  0  0  0  0  0  0  0
   -4.2752    0.4923    1.1252 H   0  0  0  0  0  0  0  0  0  0  0  0
    0.3548    1.9461   -1.1077 H   0  0  0  0  0  0  0  0  0  0  0  0
    2.8026    2.0643   -1.3843 H   0  0  0  0  0  0  0  0  0  0  0  0
    5.0367    1.0248   -0.8569 H   0  0  0  0  0  0  0  0  0  0  0  0
    5.5252   -2.0534    0.8683 H   0  0  0  0  0  0  0  0  0  0  0  0
    3.1900   -2.0176    1.3596 H   0  0  0  0  0  0  0  0  0  0  0  0
  1  2  1  0
  2  3  1  0
  3  4  1  0
  4  5  2  0
  4  6  1  0
  6  7  2  0
  7  8  1  0
  8  9  2  0
  9 10  1  0
 10 11  2  0
 11 12  1  0
 11 13  1  0
 13 14  2  0
 14 15  1  0
 15 16  1  0
 16 17  2  0
 16  6  1  0
 14  8  1  0
  1 18  1  0
  1 19  1  0
  1 20  1  0
  2 21  1  0
  2 22  1  0
  7 23  1  0
  9 24  1  0
 10 25  1  0
 12 26  1  0
 13 27  1  0
M  END
$$$$
