@<TRIPOS>MOLECULE
*****
 27 28 0 0 0
SMALL
GASTEIGER

@<TRIPOS>ATOM
      1 C          -4.3073   -0.6969   -0.6387 C.3     1  UNL1       -0.0306
      2 C          -4.2820    0.6512    0.0247 C.3     1  UNL1        0.0900
      3 O          -3.1291    1.3478   -0.4238 O.3     1  UNL1       -0.4613
      4 C          -1.8567    0.9008   -0.2208 C.2     1  UNL1        0.3462
      5 O          -3.0241    1.3095   -0.4062 O.2     1  UNL1       -0.2447
      6 C          -0.5506    0.3491    0.0506 C.ar    1  UNL1        0.1437
      7 C           0.4836    1.0604   -0.5159 C.ar    1  UNL1       -0.0301
      8 C           1.7607    0.5933   -0.3008 C.ar    1  UNL1        0.0186
      9 C           2.9032    1.1721   -0.7859 C.ar    1  UNL1       -0.0476
     10 C           4.1216    0.5747   -0.4775 C.ar    1  UNL1       -0.0194
     11 C           4.1903   -0.5791    0.3014 C.ar    1  UNL1        0.1204
     12 O           5.4616   -1.0999    0.5535 O.3     1  UNL1       -0.5066
     13 C           3.0108   -1.1357    0.7744 C.ar    1  UNL1        0.0229
     14 C           1.7887   -0.5646    0.4842 C.ar    1  UNL1        0.1426
     15 O           0.7869   -1.1983    0.9953 O.2     1  UNL1       -0.4215
     16 C          -0.4448   -0.7912    0.8173 C.ar    1  UNL1        0.3514
     17 O          -1.4350   -1.3883    1.3028 O.2     1  UNL1       -0.2443
     18 H          -3.7215   -0.6272   -1.5780 H       1  UNL1        0.0262
     19 H          -3.8546   -1.4970    0.0099 H       1  UNL1        0.0262
     20 H          -5.3320   -1.0021   -0.9419 H       1  UNL1        0.0262
     21 H          -5.2037    1.1649   -0.2392 H       1  UNL1        0.0695
     22 H          -4.2752    0.4923    1.1252 H       1  UNL1        0.0695
     23 H           0.3548    1.9461   -1.1077 H       1  UNL1        0.0635
     24 H           2.8026    2.0643   -1.3843 H       1  UNL1        0.0626
     25 H           5.0367    1.0248   -0.8569 H       1  UNL1        0.0654
     26 H           5.5252   -2.0534    0.8683 H       1  UNL1        0.2921
     27 H           3.1900   -2.0176    1.3596 H       1  UNL1        0.0691
@<TRIPOS>BOND
     1     1     2    1
     2     2     3    1
     3     3     4    1
     4     4     5    2
     5     4     6    1
     6     6     7   ar
     7     7     8   ar
     8     8     9   ar
     9     9    10   ar
    10    10    11   ar
    11    11    12    1
    12    11    13   ar
    13    13    14   ar
    14    14    15   ar
    15    15    16   ar
    16    16    17    2
    17    16     6   ar
    18    14     8   ar
    19     1    18    1
    20     1    19    1
    21     1    20    1
    22     2    21    1
    23     2    22    1
    24     7    23    1
    25     9    24    1
    26    10    25    1
    27    12    26    1
    28    13    27    1
