@<TRIPOS>MOLECULE
*****
 53 57 0 0 0
SMALL
GASTEIGER

@<TRIPOS>ATOM
      1 N          -4.1767   -3.4126   -2.3216 N.am    1  UNL1       -0.3240
      2 C          -3.3415   -2.4145   -1.7495 C.2     1  UNL1        0.2615
      3 O          -2.7947   -1.5796   -2.5066 O.2     1  UNL1       -0.2687
      4 C          -3.1418   -2.3844   -0.3079 C.ar    1  UNL1        0.1470
      5 C          -3.6802   -3.2385    0.6290 C.ar    1  UNL1        0.0605
      6 N          -3.2519   -2.8747    1.8584 N.ar    1  UNL1       -0.2339
      7 C          -2.4494   -1.8013    1.7113 C.ar    1  UNL1        0.1549
      8 C          -1.7631   -1.0512    2.6386 C.ar    1  UNL1       -0.0153
      9 C          -1.0105    0.0054    2.1897 C.ar    1  UNL1       -0.0290
     10 C          -0.9557    0.2920    0.8438 C.ar    1  UNL1        0.1103
     11 C          -0.1465    1.4202    0.3841 C.ar    1  UNL1        0.0966
     12 C          -0.5680    2.5504   -0.2307 C.ar    1  UNL1        0.0983
     13 C          -1.9002    2.9604   -0.6022 C.ar    1  UNL1        0.0040
     14 C          -2.6685    2.2786   -1.5263 C.ar    1  UNL1       -0.0497
     15 C          -3.9361    2.7245   -1.8343 C.ar    1  UNL1       -0.0244
     16 C          -4.4715    3.8543   -1.2351 C.ar    1  UNL1        0.1417
     17 F          -5.7327    4.2775   -1.5573 F       1  UNL1       -0.2040
     18 C          -3.7241    4.5532   -0.3086 C.ar    1  UNL1        0.0767
     19 CL         -4.3937    5.9792    0.4513 Cl      1  UNL1       -0.0806
     20 C          -2.4604    4.0849   -0.0202 C.ar    1  UNL1       -0.0313
     21 N           0.5392    3.2927   -0.4617 N.ar    1  UNL1       -0.2351
     22 C           1.6280    2.6633   -0.0127 C.ar    1  UNL1        0.0972
     23 N           1.1862    1.4883    0.5165 N.ar    1  UNL1       -0.3271
     24 C           2.1163    0.5450    1.0986 C.3     1  UNL1        0.0375
     25 C           2.6184   -0.4239    0.0480 C.3     1  UNL1        0.0169
     26 N           3.5386   -1.3809    0.5680 N.3     1  UNL1       -0.3006
     27 C           3.9675   -2.2594   -0.4980 C.3     1  UNL1       -0.0010
     28 C           5.3667   -1.8680   -0.8330 C.3     1  UNL1       -0.0390
     29 C           5.9082   -1.4347    0.5181 C.3     1  UNL1       -0.0390
     30 C           4.6813   -0.8614    1.2363 C.3     1  UNL1       -0.0010
     31 N          -1.6480   -0.4786   -0.0039 N.ar    1  UNL1       -0.1628
     32 N          -2.3806   -1.4996    0.3876 N.ar    1  UNL1       -0.2076
     33 H          -3.8552   -4.3935   -2.4832 H       1  UNL1        0.1453
     34 H          -5.1656   -3.2057   -2.6108 H       1  UNL1        0.1453
     35 H          -4.3403   -4.0613    0.3733 H       1  UNL1        0.0854
     36 H          -1.7945   -1.2614    3.6969 H       1  UNL1        0.0655
     37 H          -0.4424    0.6385    2.9013 H       1  UNL1        0.0641
     38 H          -2.2429    1.3985   -1.9894 H       1  UNL1        0.0625
     39 H          -4.5251    2.1644   -2.5715 H       1  UNL1        0.0647
     40 H          -1.9047    4.6763    0.7241 H       1  UNL1        0.0640
     41 H           2.6285    3.0601   -0.0854 H       1  UNL1        0.1029
     42 H           2.9821    1.0856    1.5643 H       1  UNL1        0.0505
     43 H           1.6425   -0.0104    1.9291 H       1  UNL1        0.0505
     44 H           3.1027    0.1062   -0.7958 H       1  UNL1        0.0444
     45 H           1.7458   -0.9650   -0.3693 H       1  UNL1        0.0444
     46 H           3.9312   -3.3340   -0.1907 H       1  UNL1        0.0426
     47 H           3.3464   -2.1031   -1.4087 H       1  UNL1        0.0426
     48 H           5.4684   -1.0397   -1.5369 H       1  UNL1        0.0278
     49 H           5.9087   -2.7987   -1.1695 H       1  UNL1        0.0278
     50 H           6.3395   -2.2814    1.0900 H       1  UNL1        0.0278
     51 H           6.7105   -0.6775    0.4158 H       1  UNL1        0.0278
     52 H           4.7950    0.2381    1.1759 H       1  UNL1        0.0426
     53 H           4.7148   -1.2428    2.2706 H       1  UNL1        0.0426
@<TRIPOS>BOND
     1     1     2   am
     2     2     3    2
     3     2     4    1
     4     4     5   ar
     5     5     6   ar
     6     6     7   ar
     7     7     8   ar
     8     8     9   ar
     9     9    10   ar
    10    10    11    1
    11    11    12   ar
    12    12    13    1
    13    13    14   ar
    14    14    15   ar
    15    15    16   ar
    16    16    17    1
    17    16    18   ar
    18    18    19    1
    19    18    20   ar
    20    12    21   ar
    21    21    22   ar
    22    22    23   ar
    23    23    24    1
    24    24    25    1
    25    25    26    1
    26    26    27    1
    27    27    28    1
    28    28    29    1
    29    29    30    1
    30    10    31   ar
    31    31    32   ar
    32    32     4   ar
    33    32     7   ar
    34    23    11   ar
    35    30    26    1
    36    20    13   ar
    37     1    33    1
    38     1    34    1
    39     5    35    1
    40     8    36    1
    41     9    37    1
    42    14    38    1
    43    15    39    1
    44    20    40    1
    45    22    41    1
    46    24    42    1
    47    24    43    1
    48    25    44    1
    49    25    45    1
    50    27    46    1
    51    27    47    1
    52    28    48    1
    53    28    49    1
    54    29    50    1
    55    29    51    1
    56    30    52    1
    57    30    53    1
