@<TRIPOS>MOLECULE
*****
 69 74 0 0 0
SMALL
GASTEIGER

@<TRIPOS>ATOM
      1 C          -8.2482   -0.1646   -2.3600 C.3     1  UNL1       -0.0235
      2 C          -7.5130   -0.5498   -1.0341 C.3     1  UNL1        0.1238
      3 O          -6.2152   -0.3423   -1.1650 O.3     1  UNL1       -0.4831
      4 C          -5.0253   -0.9317   -0.7866 C.ar    1  UNL1        0.1426
      5 C          -3.8708   -0.4013   -1.3020 C.ar    1  UNL1        0.0121
      6 C          -2.6697   -0.9820   -0.9358 C.ar    1  UNL1        0.0901
      7 N          -1.3609   -0.5998   -1.3461 N.ar    1  UNL1       -0.2924
      8 C          -0.9728   -0.5829   -2.6260 C.ar    1  UNL1        0.1019
      9 N           0.3045   -0.1854   -2.7129 N.ar    1  UNL1       -0.2353
     10 C           0.7453    0.0574   -1.4689 C.ar    1  UNL1        0.0899
     11 C           1.9775    0.4890   -0.9655 C.ar    1  UNL1       -0.0265
     12 C           2.1115    0.6430    0.3861 C.ar    1  UNL1       -0.0156
     13 C           3.3866    1.0877    0.9253 C.ar    1  UNL1       -0.0131
     14 C           3.4575    1.8443    2.0743 C.ar    1  UNL1       -0.0357
     15 C           4.7022    2.2544    2.5685 C.ar    1  UNL1        0.0303
     16 N           5.8302    1.9139    1.9276 N.ar    1  UNL1       -0.2403
     17 C           5.8012    1.1700    0.7937 C.ar    1  UNL1        0.1219
     18 N           7.0080    0.8307    0.1494 N.pl3   1  UNL1       -0.3127
     19 C           8.2762    1.2552    0.6808 C.3     1  UNL1        0.0263
     20 C           9.1099    0.0133    0.8899 C.3     1  UNL1        0.0144
     21 N           9.1877   -0.7753   -0.2924 N.3     1  UNL1       -0.3024
     22 C          10.5768   -0.9096   -0.6873 C.3     1  UNL1       -0.0126
     23 C           8.4311   -0.3349   -1.4142 C.3     1  UNL1        0.0144
     24 C           7.0077    0.0468   -1.0616 C.3     1  UNL1        0.0263
     25 C           4.5603    0.7591    0.2978 C.ar    1  UNL1       -0.0140
     26 C           1.0328    0.3719    1.2357 C.ar    1  UNL1       -0.0519
     27 C          -0.1749   -0.0524    0.7280 C.ar    1  UNL1       -0.0351
     28 C          -0.3136   -0.2083   -0.6277 C.ar    1  UNL1        0.0738
     29 S          -3.1151   -2.2414    0.1043 S.2     1  UNL1       -0.0624
     30 C          -4.9499   -1.9870    0.0526 C.ar    1  UNL1        0.1172
     31 C          -5.8033   -2.7817    0.8607 C.2     1  UNL1        0.2518
     32 N          -5.3231   -4.0498    1.3810 N.am    1  UNL1       -0.3248
     33 O          -6.9558   -2.4973    1.1793 O.2     1  UNL1       -0.2697
     34 C          -8.1234    0.2912    0.0602 C.ar    1  UNL1        0.0107
     35 C          -9.2068   -0.1574    0.7599 C.ar    1  UNL1       -0.0537
     36 C          -9.7819    0.6128    1.7763 C.ar    1  UNL1       -0.0613
     37 C          -9.2259    1.8593    2.0672 C.ar    1  UNL1       -0.0604
     38 C          -8.1358    2.3104    1.3632 C.ar    1  UNL1       -0.0430
     39 C          -7.5889    1.5146    0.3561 C.ar    1  UNL1        0.0476
     40 CL         -6.2005    2.1478   -0.5033 Cl      1  UNL1       -0.0831
     41 H          -7.7225   -0.7279   -3.1553 H       1  UNL1        0.0269
     42 H          -8.1413    0.9027   -2.5576 H       1  UNL1        0.0269
     43 H          -9.2912   -0.5324   -2.3167 H       1  UNL1        0.0269
     44 H          -7.8980   -1.6047   -0.8857 H       1  UNL1        0.0782
     45 H          -3.8571    0.4856   -2.0093 H       1  UNL1        0.0681
     46 H          -1.5644   -0.8441   -3.5147 H       1  UNL1        0.1033
     47 H           2.7565    0.6764   -1.6845 H       1  UNL1        0.0645
     48 H           2.5303    2.0981    2.5601 H       1  UNL1        0.0639
     49 H           4.7189    2.8475    3.4734 H       1  UNL1        0.0830
     50 H           8.8349    1.8696   -0.0855 H       1  UNL1        0.0477
     51 H           8.1847    1.8632    1.5946 H       1  UNL1        0.0477
     52 H           8.6166   -0.5380    1.7435 H       1  UNL1        0.0442
     53 H          10.1277    0.2702    1.2974 H       1  UNL1        0.0442
     54 H          11.0116   -1.8877   -0.3456 H       1  UNL1        0.0391
     55 H          11.2203   -0.0982   -0.2814 H       1  UNL1        0.0391
     56 H          10.7026   -0.8699   -1.8017 H       1  UNL1        0.0391
     57 H           8.9487    0.4839   -1.9582 H       1  UNL1        0.0442
     58 H           8.3595   -1.1815   -2.1364 H       1  UNL1        0.0442
     59 H           6.6211    0.6433   -1.9257 H       1  UNL1        0.0477
     60 H           6.4255   -0.8861   -0.9036 H       1  UNL1        0.0477
     61 H           4.5716    0.1676   -0.6079 H       1  UNL1        0.0658
     62 H           1.1605    0.4998    2.2969 H       1  UNL1        0.0624
     63 H          -1.0192   -0.2668    1.3671 H       1  UNL1        0.0639
     64 H          -5.3601   -4.9155    0.7965 H       1  UNL1        0.1453
     65 H          -4.9532   -4.0134    2.3550 H       1  UNL1        0.1453
     66 H          -9.6651   -1.1313    0.5547 H       1  UNL1        0.0622
     67 H         -10.6344    0.2814    2.3405 H       1  UNL1        0.0618
     68 H          -9.6967    2.4348    2.8645 H       1  UNL1        0.0618
     69 H          -7.7197    3.2674    1.5969 H       1  UNL1        0.0632
@<TRIPOS>BOND
     1     1     2    1
     2     2     3    1
     3     3     4    1
     4     4     5   ar
     5     5     6   ar
     6     6     7    1
     7     7     8   ar
     8     8     9   ar
     9     9    10   ar
    10    10    11   ar
    11    11    12   ar
    12    12    13    1
    13    13    14   ar
    14    14    15   ar
    15    15    16   ar
    16    16    17   ar
    17    17    18    1
    18    18    19    1
    19    19    20    1
    20    20    21    1
    21    21    22    1
    22    21    23    1
    23    23    24    1
    24    17    25   ar
    25    12    26   ar
    26    26    27   ar
    27    27    28   ar
    28     6    29   ar
    29    29    30   ar
    30    30    31    1
    31    31    32   am
    32    31    33    2
    33     2    34    1
    34    34    35   ar
    35    35    36   ar
    36    36    37   ar
    37    37    38   ar
    38    38    39   ar
    39    39    40    1
    40    30     4   ar
    41    39    34   ar
    42    28     7   ar
    43    28    10   ar
    44    25    13   ar
    45    24    18    1
    46     1    41    1
    47     1    42    1
    48     1    43    1
    49     2    44    1
    50     5    45    1
    51     8    46    1
    52    11    47    1
    53    14    48    1
    54    15    49    1
    55    19    50    1
    56    19    51    1
    57    20    52    1
    58    20    53    1
    59    22    54    1
    60    22    55    1
    61    22    56    1
    62    23    57    1
    63    23    58    1
    64    24    59    1
    65    24    60    1
    66    25    61    1
    67    26    62    1
    68    27    63    1
    69    32    64    1
    70    32    65    1
    71    35    66    1
    72    36    67    1
    73    37    68    1
    74    38    69    1
