
     RDKit          3D

 69 74  0  0  0  0  0  0  0  0999 V2000
   -8.2482   -0.1646   -2.3600 C   0  0  0  0  0  0  0  0  0  0  0  0
   -7.5130   -0.5498   -1.0341 C   0  0  1  0  0  0  0  0  0  0  0  0
   -6.2152   -0.3423   -1.1650 O   0  0  0  0  0  0  0  0  0  0  0  0
   -5.0253   -0.9317   -0.7866 C   0  0  0  0  0  0  0  0  0  0  0  0
   -3.8708   -0.4013   -1.3020 C   0  0  0  0  0  0  0  0  0  0  0  0
   -2.6697   -0.9820   -0.9358 C   0  0  0  0  0  0  0  0  0  0  0  0
   -1.3609   -0.5998   -1.3461 N   0  0  0  0  0  0  0  0  0  0  0  0
   -0.9728   -0.5829   -2.6260 C   0  0  0  0  0  0  0  0  0  0  0  0
    0.3045   -0.1854   -2.7129 N   0  0  0  0  0  0  0  0  0  0  0  0
    0.7453    0.0574   -1.4689 C   0  0  0  0  0  0  0  0  0  0  0  0
    1.9775    0.4890   -0.9655 C   0  0  0  0  0  0  0  0  0  0  0  0
    2.1115    0.6430    0.3861 C   0  0  0  0  0  0  0  0  0  0  0  0
    3.3866    1.0877    0.9253 C   0  0  0  0  0  0  0  0  0  0  0  0
    3.4575    1.8443    2.0743 C   0  0  0  0  0  0  0  0  0  0  0  0
    4.7022    2.2544    2.5685 C   0  0  0  0  0  0  0  0  0  0  0  0
    5.8302    1.9139    1.9276 N   0  0  0  0  0  0  0  0  0  0  0  0
    5.8012    1.1700    0.7937 C   0  0  0  0  0  0  0  0  0  0  0  0
    7.0080    0.8307    0.1494 N   0  0  0  0  0  0  0  0  0  0  0  0
    8.2762    1.2552    0.6808 C   0  0  0  0  0  0  0  0  0  0  0  0
    9.1099    0.0133    0.8899 C   0  0  0  0  0  0  0  0  0  0  0  0
    9.1877   -0.7753   -0.2924 N   0  0  0  0  0  0  0  0  0  0  0  0
   10.5768   -0.9096   -0.6873 C   0  0  0  0  0  0  0  0  0  0  0  0
    8.4311   -0.3349   -1.4142 C   0  0  0  0  0  0  0  0  0  0  0  0
    7.0077    0.0468   -1.0616 C   0  0  0  0  0  0  0  0  0  0  0  0
    4.5603    0.7591    0.2978 C   0  0  0  0  0  0  0  0  0  0  0  0
    1.0328    0.3719    1.2357 C   0  0  0  0  0  0  0  0  0  0  0  0
   -0.1749   -0.0524    0.7280 C   0  0  0  0  0  0  0  0  0  0  0  0
   -0.3136   -0.2083   -0.6277 C   0  0  0  0  0  0  0  0  0  0  0  0
   -3.1151   -2.2414    0.1043 S   0  0  0  0  0  0  0  0  0  0  0  0
   -4.9499   -1.9870    0.0526 C   0  0  0  0  0  0  0  0  0  0  0  0
   -5.8033   -2.7817    0.8607 C   0  0  0  0  0  0  0  0  0  0  0  0
   -5.3231   -4.0498    1.3810 N   0  0  0  0  0  0  0  0  0  0  0  0
   -6.9558   -2.4973    1.1793 O   0  0  0  0  0  0  0  0  0  0  0  0
   -8.1234    0.2912    0.0602 C   0  0  0  0  0  0  0  0  0  0  0  0
   -9.2068   -0.1574    0.7599 C   0  0  0  0  0  0  0  0  0  0  0  0
   -9.7819    0.6128    1.7763 C   0  0  0  0  0  0  0  0  0  0  0  0
   -9.2259    1.8593    2.0672 C   0  0  0  0  0  0  0  0  0  0  0  0
   -8.1358    2.3104    1.3632 C   0  0  0  0  0  0  0  0  0  0  0  0
   -7.5889    1.5146    0.3561 C   0  0  0  0  0  0  0  0  0  0  0  0
   -6.2005    2.1478   -0.5033 Cl  0  0  0  0  0  0  0  0  0  0  0  0
   -7.7225   -0.7279   -3.1553 H   0  0  0  0  0  0  0  0  0  0  0  0
   -8.1413    0.9027   -2.5576 H   0  0  0  0  0  0  0  0  0  0  0  0
   -9.2912   -0.5324   -2.3167 H   0  0  0  0  0  0  0  0  0  0  0  0
   -7.8980   -1.6047   -0.8857 H   0  0  0  0  0  0  0  0  0  0  0  0
   -3.8571    0.4856   -2.0093 H   0  0  0  0  0  0  0  0  0  0  0  0
   -1.5644   -0.8441   -3.5147 H   0  0  0  0  0  0  0  0  0  0  0  0
    2.7565    0.6764   -1.6845 H   0  0  0  0  0  0  0  0  0  0  0  0
    2.5303    2.0981    2.5601 H   0  0  0  0  0  0  0  0  0  0  0  0
    4.7189    2.8475    3.4734 H   0  0  0  0  0  0  0  0  0  0  0  0
    8.8349    1.8696   -0.0855 H   0  0  0  0  0  0  0  0  0  0  0  0
    8.1847    1.8632    1.5946 H   0  0  0  0  0  0  0  0  0  0  0  0
    8.6166   -0.5380    1.7435 H   0  0  0  0  0  0  0  0  0  0  0  0
   10.1277    0.2702    1.2974 H   0  0  0  0  0  0  0  0  0  0  0  0
   11.0116   -1.8877   -0.3456 H   0  0  0  0  0  0  0  0  0  0  0  0
   11.2203   -0.0982   -0.2814 H   0  0  0  0  0  0  0  0  0  0  0  0
   10.7026   -0.8699   -1.8017 H   0  0  0  0  0  0  0  0  0  0  0  0
    8.9487    0.4839   -1.9582 H   0  0  0  0  0  0  0  0  0  0  0  0
    8.3595   -1.1815   -2.1364 H   0  0  0  0  0  0  0  0  0  0  0  0
    6.6211    0.6433   -1.9257 H   0  0  0  0  0  0  0  0  0  0  0  0
    6.4255   -0.8861   -0.9036 H   0  0  0  0  0  0  0  0  0  0  0  0
    4.5716    0.1676   -0.6079 H   0  0  0  0  0  0  0  0  0  0  0  0
    1.1605    0.4998    2.2969 H   0  0  0  0  0  0  0  0  0  0  0  0
   -1.0192   -0.2668    1.3671 H   0  0  0  0  0  0  0  0  0  0  0  0
   -5.3601   -4.9155    0.7965 H   0  0  0  0  0  0  0  0  0  0  0  0
   -4.9532   -4.0134    2.3550 H   0  0  0  0  0  0  0  0  0  0  0  0
   -9.6651   -1.1313    0.5547 H   0  0  0  0  0  0  0  0  0  0  0  0
  -10.6344    0.2814    2.3405 H   0  0  0  0  0  0  0  0  0  0  0  0
   -9.6967    2.4348    2.8645 H   0  0  0  0  0  0  0  0  0  0  0  0
   -7.7197    3.2674    1.5969 H   0  0  0  0  0  0  0  0  0  0  0  0
  1  2  1  0
  2  3  1  0
  3  4  1  0
  4  5  1  0
  5  6  2  0
  6  7  1  0
  7  8  1  0
  8  9  2  0
  9 10  1  0
 10 11  2  0
 11 12  1  0
 12 13  1  0
 13 14  2  0
 14 15  1  0
 15 16  2  0
 16 17  1  0
 17 18  1  0
 18 19  1  0
 19 20  1  0
 20 21  1  0
 21 22  1  0
 21 23  1  0
 23 24  1  0
 17 25  2  0
 12 26  2  0
 26 27  1  0
 27 28  2  0
  6 29  1  0
 29 30  1  0
 30 31  1  0
 31 32  1  0
 31 33  2  0
  2 34  1  0
 34 35  2  0
 35 36  1  0
 36 37  2  0
 37 38  1  0
 38 39  2  0
 39 40  1  0
 30  4  2  0
 39 34  1  0
 28  7  1  0
 28 10  1  0
 25 13  1  0
 24 18  1  0
  1 41  1  0
  1 42  1  0
  1 43  1  0
  2 44  1  1
  5 45  1  0
  8 46  1  0
 11 47  1  0
 14 48  1  0
 15 49  1  0
 19 50  1  0
 19 51  1  0
 20 52  1  0
 20 53  1  0
 22 54  1  0
 22 55  1  0
 22 56  1  0
 23 57  1  0
 23 58  1  0
 24 59  1  0
 24 60  1  0
 25 61  1  0
 26 62  1  0
 27 63  1  0
 32 64  1  0
 32 65  1  0
 35 66  1  0
 36 67  1  0
 37 68  1  0
 38 69  1  0
M  END
$$$$
