@<TRIPOS>MOLECULE
*****
 40 41 0 0 0
SMALL
GASTEIGER

@<TRIPOS>ATOM
      1 C          -2.1030    2.9005    0.8796 C.3     1  UNL1       -0.0611
      2 C          -1.5102    2.3622   -0.4278 C.3     1  UNL1       -0.0271
      3 C          -1.3197    0.9024   -0.3848 C.ar    1  UNL1       -0.0057
      4 C          -0.0469    0.4283   -0.1252 C.ar    1  UNL1       -0.0516
      5 C           0.1626   -0.9150   -0.0588 C.ar    1  UNL1       -0.0422
      6 C           1.4508   -1.5611    0.2466 C.3     1  UNL1        0.0023
      7 C           2.6445   -0.7592   -0.0006 C.ar    1  UNL1        0.0146
      8 C           3.3918   -0.9162   -1.1421 C.ar    1  UNL1        0.0379
      9 N           4.4932   -0.1464   -1.3484 N.ar    1  UNL1       -0.2227
     10 C           4.8773    0.7748   -0.4579 C.ar    1  UNL1        0.2142
     11 N           6.0192    1.5987   -0.6253 N.pl3   1  UNL1       -0.3274
     12 N           4.1217    0.9024    0.6506 N.ar    1  UNL1       -0.1999
     13 C           3.0350    0.1892    0.9218 C.ar    1  UNL1        0.1247
     14 N           2.3587    0.4287    2.1415 N.pl3   1  UNL1       -0.3428
     15 C          -0.9289   -1.7718   -0.2585 C.ar    1  UNL1       -0.0516
     16 C          -2.1982   -1.3155   -0.5172 C.ar    1  UNL1       -0.0057
     17 C          -3.3765   -2.2066   -0.7401 C.3     1  UNL1       -0.0271
     18 C          -4.3104   -2.2132    0.4658 C.3     1  UNL1       -0.0611
     19 C          -2.3778    0.0485   -0.5774 C.ar    1  UNL1        0.1232
     20 O          -3.6726    0.5389   -0.8403 O.3     1  UNL1       -0.5062
     21 H          -2.6842    2.0886    1.3568 H       1  UNL1        0.0233
     22 H          -2.7389    3.7599    0.6010 H       1  UNL1        0.0233
     23 H          -1.2841    3.2859    1.5313 H       1  UNL1        0.0233
     24 H          -2.2320    2.6049   -1.2516 H       1  UNL1        0.0312
     25 H          -0.5788    2.9128   -0.6332 H       1  UNL1        0.0312
     26 H           0.7836    1.1102    0.0146 H       1  UNL1        0.0624
     27 H           1.4911   -1.9299    1.3069 H       1  UNL1        0.0363
     28 H           1.4890   -2.5159   -0.3640 H       1  UNL1        0.0363
     29 H           3.1581   -1.6296   -1.9135 H       1  UNL1        0.0834
     30 H           6.8764    1.2851   -1.1047 H       1  UNL1        0.1452
     31 H           5.9885    2.5676   -0.2472 H       1  UNL1        0.1452
     32 H           2.4048    1.3644    2.5710 H       1  UNL1        0.1437
     33 H           1.8232   -0.3331    2.5962 H       1  UNL1        0.1437
     34 H          -0.7788   -2.8480   -0.2081 H       1  UNL1        0.0624
     35 H          -3.0366   -3.2714   -0.8563 H       1  UNL1        0.0312
     36 H          -3.9212   -1.9674   -1.6582 H       1  UNL1        0.0312
     37 H          -3.8376   -2.7785    1.2889 H       1  UNL1        0.0233
     38 H          -4.5632   -1.1835    0.7780 H       1  UNL1        0.0233
     39 H          -5.2184   -2.7736    0.1446 H       1  UNL1        0.0233
     40 H          -3.8515    0.9820   -1.7541 H       1  UNL1        0.2922
@<TRIPOS>BOND
     1     1     2    1
     2     2     3    1
     3     3     4   ar
     4     4     5   ar
     5     5     6    1
     6     6     7    1
     7     7     8   ar
     8     8     9   ar
     9     9    10   ar
    10    10    11    1
    11    10    12   ar
    12    12    13   ar
    13    13    14    1
    14     5    15   ar
    15    15    16   ar
    16    16    17    1
    17    17    18    1
    18    16    19   ar
    19    19    20    1
    20    19     3   ar
    21    13     7   ar
    22     1    21    1
    23     1    22    1
    24     1    23    1
    25     2    24    1
    26     2    25    1
    27     4    26    1
    28     6    27    1
    29     6    28    1
    30     8    29    1
    31    11    30    1
    32    11    31    1
    33    14    32    1
    34    14    33    1
    35    15    34    1
    36    17    35    1
    37    17    36    1
    38    18    37    1
    39    18    38    1
    40    18    39    1
    41    20    40    1
