
     RDKit          3D

 39 40  0  0  0  0  0  0  0  0999 V2000
   -2.4318    3.6334    0.0780 C   0  0  0  0  0  0  0  0  0  0  0  0
   -2.9517    2.3440    0.3037 O   0  0  0  0  0  0  0  0  0  0  0  0
   -2.2296    1.2021    0.0004 C   0  0  0  0  0  0  0  0  0  0  0  0
   -0.9487    1.2993   -0.5575 C   0  0  0  0  0  0  0  0  0  0  0  0
   -0.2244    0.1662   -0.8632 C   0  0  0  0  0  0  0  0  0  0  0  0
    1.0981    0.2717   -1.4857 C   0  0  0  0  0  0  0  0  0  0  0  0
    2.2641    0.2250   -0.6141 C   0  0  0  0  0  0  0  0  0  0  0  0
    2.3159    0.6315    0.6876 C   0  0  0  0  0  0  0  0  0  0  0  0
    3.4609    0.5340    1.3665 N   0  0  0  0  0  0  0  0  0  0  0  0
    4.6061    0.0451    0.8339 C   0  0  0  0  0  0  0  0  0  0  0  0
    5.8307   -0.0574    1.5322 N   0  0  0  0  0  0  0  0  0  0  0  0
    4.5611   -0.3534   -0.4399 N   0  0  0  0  0  0  0  0  0  0  0  0
    3.4485   -0.2862   -1.1806 C   0  0  0  0  0  0  0  0  0  0  0  0
    3.4241   -0.7095   -2.5350 N   0  0  0  0  0  0  0  0  0  0  0  0
   -0.8059   -1.0383   -0.5976 C   0  0  0  0  0  0  0  0  0  0  0  0
   -2.0612   -1.1805   -0.0508 C   0  0  0  0  0  0  0  0  0  0  0  0
   -2.6564   -2.3813    0.2220 O   0  0  0  0  0  0  0  0  0  0  0  0
   -2.0710   -3.6359   -0.0087 C   0  0  0  0  0  0  0  0  0  0  0  0
   -2.7782   -0.0184    0.2492 C   0  0  0  0  0  0  0  0  0  0  0  0
   -4.0395   -0.1268    0.7901 O   0  0  0  0  0  0  0  0  0  0  0  0
   -4.3465   -0.1780    2.1501 C   0  0  0  0  0  0  0  0  0  0  0  0
   -1.5684    3.8445    0.7472 H   0  0  0  0  0  0  0  0  0  0  0  0
   -2.1676    3.7204   -0.9911 H   0  0  0  0  0  0  0  0  0  0  0  0
   -3.1978    4.4214    0.2873 H   0  0  0  0  0  0  0  0  0  0  0  0
   -0.5819    2.2873   -0.7264 H   0  0  0  0  0  0  0  0  0  0  0  0
    1.2331   -0.5272   -2.2874 H   0  0  0  0  0  0  0  0  0  0  0  0
    1.1891    1.2235   -2.1062 H   0  0  0  0  0  0  0  0  0  0  0  0
    1.3996    1.0224    1.1272 H   0  0  0  0  0  0  0  0  0  0  0  0
    6.1650   -0.9693    1.8911 H   0  0  0  0  0  0  0  0  0  0  0  0
    6.4230    0.7765    1.7008 H   0  0  0  0  0  0  0  0  0  0  0  0
    3.4416    0.0000   -3.2812 H   0  0  0  0  0  0  0  0  0  0  0  0
    3.3940   -1.7124   -2.7573 H   0  0  0  0  0  0  0  0  0  0  0  0
   -0.2251   -1.9160   -0.8404 H   0  0  0  0  0  0  0  0  0  0  0  0
   -1.5526   -3.9817    0.9174 H   0  0  0  0  0  0  0  0  0  0  0  0
   -1.3201   -3.5969   -0.8147 H   0  0  0  0  0  0  0  0  0  0  0  0
   -2.8302   -4.3921   -0.3253 H   0  0  0  0  0  0  0  0  0  0  0  0
   -3.7704   -0.9816    2.6385 H   0  0  0  0  0  0  0  0  0  0  0  0
   -5.4377   -0.3927    2.3108 H   0  0  0  0  0  0  0  0  0  0  0  0
   -4.0579    0.7873    2.6287 H   0  0  0  0  0  0  0  0  0  0  0  0
  1  2  1  0
  2  3  1  0
  3  4  2  0
  4  5  1  0
  5  6  1  0
  6  7  1  0
  7  8  2  0
  8  9  1  0
  9 10  2  0
 10 11  1  0
 10 12  1  0
 12 13  2  0
 13 14  1  0
  5 15  2  0
 15 16  1  0
 16 17  1  0
 17 18  1  0
 16 19  2  0
 19 20  1  0
 20 21  1  0
 19  3  1  0
 13  7  1  0
  1 22  1  0
  1 23  1  0
  1 24  1  0
  4 25  1  0
  6 26  1  0
  6 27  1  0
  8 28  1  0
 11 29  1  0
 11 30  1  0
 14 31  1  0
 14 32  1  0
 15 33  1  0
 18 34  1  0
 18 35  1  0
 18 36  1  0
 21 37  1  0
 21 38  1  0
 21 39  1  0
M  END
$$$$
