@<TRIPOS>MOLECULE
*****
 39 40 0 0 0
SMALL
GASTEIGER

@<TRIPOS>ATOM
      1 C          -2.4318    3.6334    0.0780 C.3     1  UNL1        0.0790
      2 O          -2.9517    2.3440    0.3037 O.3     1  UNL1       -0.4913
      3 C          -2.2296    1.2021    0.0004 C.ar    1  UNL1        0.1654
      4 C          -0.9487    1.2993   -0.5575 C.ar    1  UNL1       -0.0126
      5 C          -0.2244    0.1662   -0.8632 C.ar    1  UNL1       -0.0358
      6 C           1.0981    0.2717   -1.4857 C.3     1  UNL1        0.0025
      7 C           2.2641    0.2250   -0.6141 C.ar    1  UNL1        0.0146
      8 C           2.3159    0.6315    0.6876 C.ar    1  UNL1        0.0379
      9 N           3.4609    0.5340    1.3665 N.ar    1  UNL1       -0.2227
     10 C           4.6061    0.0451    0.8339 C.ar    1  UNL1        0.2142
     11 N           5.8307   -0.0574    1.5322 N.pl3   1  UNL1       -0.3274
     12 N           4.5611   -0.3534   -0.4399 N.ar    1  UNL1       -0.1999
     13 C           3.4485   -0.2862   -1.1806 C.ar    1  UNL1        0.1247
     14 N           3.4241   -0.7095   -2.5350 N.pl3   1  UNL1       -0.3428
     15 C          -0.8059   -1.0383   -0.5976 C.ar    1  UNL1       -0.0126
     16 C          -2.0612   -1.1805   -0.0508 C.ar    1  UNL1        0.1654
     17 O          -2.6564   -2.3813    0.2220 O.3     1  UNL1       -0.4913
     18 C          -2.0710   -3.6359   -0.0087 C.3     1  UNL1        0.0790
     19 C          -2.7782   -0.0184    0.2492 C.ar    1  UNL1        0.2035
     20 O          -4.0395   -0.1268    0.7901 O.3     1  UNL1       -0.4885
     21 C          -4.3465   -0.1780    2.1501 C.3     1  UNL1        0.0791
     22 H          -1.5684    3.8445    0.7472 H       1  UNL1        0.0660
     23 H          -2.1676    3.7204   -0.9911 H       1  UNL1        0.0660
     24 H          -3.1978    4.4214    0.2873 H       1  UNL1        0.0660
     25 H          -0.5819    2.2873   -0.7264 H       1  UNL1        0.0658
     26 H           1.2331   -0.5272   -2.2874 H       1  UNL1        0.0363
     27 H           1.1891    1.2235   -2.1062 H       1  UNL1        0.0363
     28 H           1.3996    1.0224    1.1272 H       1  UNL1        0.0834
     29 H           6.1650   -0.9693    1.8911 H       1  UNL1        0.1452
     30 H           6.4230    0.7765    1.7008 H       1  UNL1        0.1452
     31 H           3.4416    0.0000   -3.2812 H       1  UNL1        0.1437
     32 H           3.3940   -1.7124   -2.7573 H       1  UNL1        0.1437
     33 H          -0.2251   -1.9160   -0.8404 H       1  UNL1        0.0658
     34 H          -1.5526   -3.9817    0.9174 H       1  UNL1        0.0660
     35 H          -1.3201   -3.5969   -0.8147 H       1  UNL1        0.0660
     36 H          -2.8302   -4.3921   -0.3253 H       1  UNL1        0.0660
     37 H          -3.7704   -0.9816    2.6385 H       1  UNL1        0.0660
     38 H          -5.4377   -0.3927    2.3108 H       1  UNL1        0.0660
     39 H          -4.0579    0.7873    2.6287 H       1  UNL1        0.0660
@<TRIPOS>BOND
     1     1     2    1
     2     2     3    1
     3     3     4   ar
     4     4     5   ar
     5     5     6    1
     6     6     7    1
     7     7     8   ar
     8     8     9   ar
     9     9    10   ar
    10    10    11    1
    11    10    12   ar
    12    12    13   ar
    13    13    14    1
    14     5    15   ar
    15    15    16   ar
    16    16    17    1
    17    17    18    1
    18    16    19   ar
    19    19    20    1
    20    20    21    1
    21    19     3   ar
    22    13     7   ar
    23     1    22    1
    24     1    23    1
    25     1    24    1
    26     4    25    1
    27     6    26    1
    28     6    27    1
    29     8    28    1
    30    11    29    1
    31    11    30    1
    32    14    31    1
    33    14    32    1
    34    15    33    1
    35    18    34    1
    36    18    35    1
    37    18    36    1
    38    21    37    1
    39    21    38    1
    40    21    39    1
