
     RDKit          3D

 59 63  0  0  0  0  0  0  0  0999 V2000
    0.5502   -0.8193   -0.8454 O   0  0  0  0  0  0  0  0  0  0  0  0
    0.7894    0.2688   -0.1822 C   0  0  0  0  0  0  0  0  0  0  0  0
    1.9292    0.9601   -0.5864 N   0  0  0  0  0  0  0  0  0  0  0  0
    2.4180    2.2042   -0.0646 C   0  0  0  0  0  0  0  0  0  0  0  0
    3.8752    2.4763   -0.3626 C   0  0  0  0  0  0  0  0  0  0  0  0
    4.6565    1.2189   -0.3819 C   0  0  0  0  0  0  0  0  0  0  0  0
    5.8541    1.0925    0.2089 N   0  0  0  0  0  0  0  0  0  0  0  0
    6.5280   -0.0676    0.1487 C   0  0  0  0  0  0  0  0  0  0  0  0
    6.0018   -1.1557   -0.5233 C   0  0  0  0  0  0  0  0  0  0  0  0
    6.7690   -2.4236   -0.5732 C   0  0  0  0  0  0  0  0  0  0  0  0
    6.0609   -3.3347   -1.3475 F   0  0  0  0  0  0  0  0  0  0  0  0
    6.9588   -2.9786    0.6752 F   0  0  0  0  0  0  0  0  0  0  0  0
    7.9877   -2.2433   -1.2155 F   0  0  0  0  0  0  0  0  0  0  0  0
    4.7681   -1.0445   -1.1385 C   0  0  0  0  0  0  0  0  0  0  0  0
    4.1225    0.1532   -1.0493 C   0  0  0  0  0  0  0  0  0  0  0  0
    2.7766    0.3823   -1.6611 C   0  0  0  0  0  0  0  0  0  0  0  0
   -0.1682    0.5899    0.8720 C   0  0  1  0  0  0  0  0  0  0  0  0
    0.3182    0.5136    2.2727 C   0  0  0  0  0  0  0  0  0  0  0  0
   -0.4864    1.6191    2.9670 C   0  0  0  0  0  0  0  0  0  0  0  0
   -1.4616    1.9879    2.0383 O   0  0  0  0  0  0  0  0  0  0  0  0
   -0.7778    1.9674    0.7931 C   0  0  2  0  0  0  0  0  0  0  0  0
   -1.7578    1.8233   -0.3236 C   0  0  0  0  0  0  0  0  0  0  0  0
   -2.4942    0.5577    0.1275 C   0  0  1  0  0  0  0  0  0  0  0  0
   -3.1278   -0.1028   -0.9763 N   0  0  0  0  0  0  0  0  0  0  0  0
   -3.8143   -1.2668   -0.4935 C   0  0  0  0  0  0  0  0  0  0  0  0
   -4.5149   -2.0279   -1.5966 C   0  0  0  0  0  0  0  0  0  0  0  0
   -5.9968   -1.7445   -1.5121 C   0  0  0  0  0  0  0  0  0  0  0  0
   -6.5478   -2.3049   -0.3604 O   0  0  0  0  0  0  0  0  0  0  0  0
   -5.7330   -2.1164    0.7515 C   0  0  0  0  0  0  0  0  0  0  0  0
   -4.8608   -0.8975    0.5567 C   0  0  0  0  0  0  0  0  0  0  0  0
   -1.4042   -0.2782    0.7566 C   0  0  0  0  0  0  0  0  0  0  0  0
    2.3033    2.2064    1.0244 H   0  0  0  0  0  0  0  0  0  0  0  0
    1.8763    3.0685   -0.5421 H   0  0  0  0  0  0  0  0  0  0  0  0
    3.9880    3.0444   -1.3149 H   0  0  0  0  0  0  0  0  0  0  0  0
    4.2766    3.0746    0.4975 H   0  0  0  0  0  0  0  0  0  0  0  0
    7.5072   -0.1591    0.6361 H   0  0  0  0  0  0  0  0  0  0  0  0
    4.3588   -1.9046   -1.6662 H   0  0  0  0  0  0  0  0  0  0  0  0
    2.9100    1.1868   -2.4127 H   0  0  0  0  0  0  0  0  0  0  0  0
    2.3501   -0.5420   -2.0512 H   0  0  0  0  0  0  0  0  0  0  0  0
   -0.0826   -0.4428    2.7296 H   0  0  0  0  0  0  0  0  0  0  0  0
    1.3874    0.6092    2.4414 H   0  0  0  0  0  0  0  0  0  0  0  0
    0.1469    2.4582    3.2658 H   0  0  0  0  0  0  0  0  0  0  0  0
   -1.0120    1.2527    3.8700 H   0  0  0  0  0  0  0  0  0  0  0  0
   -0.0862    2.7938    0.7176 H   0  0  0  0  0  0  0  0  0  0  0  0
   -1.2346    1.5599   -1.2550 H   0  0  0  0  0  0  0  0  0  0  0  0
   -2.4516    2.6809   -0.4271 H   0  0  0  0  0  0  0  0  0  0  0  0
   -3.2363    0.9111    0.8974 H   0  0  0  0  0  0  0  0  0  0  0  0
   -3.7134    0.5360   -1.5318 H   0  0  0  0  0  0  0  0  0  0  0  0
   -3.0859   -1.9310    0.0115 H   0  0  0  0  0  0  0  0  0  0  0  0
   -4.1490   -1.7857   -2.5990 H   0  0  0  0  0  0  0  0  0  0  0  0
   -4.4028   -3.1283   -1.3942 H   0  0  0  0  0  0  0  0  0  0  0  0
   -6.4690   -2.2927   -2.3772 H   0  0  0  0  0  0  0  0  0  0  0  0
   -6.2467   -0.6848   -1.6469 H   0  0  0  0  0  0  0  0  0  0  0  0
   -6.3067   -2.0509    1.6897 H   0  0  0  0  0  0  0  0  0  0  0  0
   -5.0515   -2.9969    0.8237 H   0  0  0  0  0  0  0  0  0  0  0  0
   -4.3801   -0.6613    1.5233 H   0  0  0  0  0  0  0  0  0  0  0  0
   -5.4424   -0.0264    0.1904 H   0  0  0  0  0  0  0  0  0  0  0  0
   -1.7755   -0.5817    1.7571 H   0  0  0  0  0  0  0  0  0  0  0  0
   -1.1967   -1.1963    0.1684 H   0  0  0  0  0  0  0  0  0  0  0  0
  1  2  2  0
  2  3  1  0
  3  4  1  0
  4  5  1  0
  5  6  1  0
  6  7  2  0
  7  8  1  0
  8  9  2  0
  9 10  1  0
 10 11  1  0
 10 12  1  0
 10 13  1  0
  9 14  1  0
 14 15  2  0
 15 16  1  0
 17  2  1  6
 17 18  1  0
 18 19  1  0
 19 20  1  0
 20 21  1  0
 21 22  1  0
 22 23  1  0
 23 24  1  0
 24 25  1  0
 25 26  1  0
 26 27  1  0
 27 28  1  0
 28 29  1  0
 29 30  1  0
 23 31  1  0
 16  3  1  0
 21 17  1  0
 30 25  1  0
 15  6  1  0
 31 17  1  0
  4 32  1  0
  4 33  1  0
  5 34  1  0
  5 35  1  0
  8 36  1  0
 14 37  1  0
 16 38  1  0
 16 39  1  0
 18 40  1  0
 18 41  1  0
 19 42  1  0
 19 43  1  0
 21 44  1  6
 22 45  1  0
 22 46  1  0
 23 47  1  1
 24 48  1  0
 25 49  1  0
 26 50  1  0
 26 51  1  0
 27 52  1  0
 27 53  1  0
 29 54  1  0
 29 55  1  0
 30 56  1  0
 30 57  1  0
 31 58  1  0
 31 59  1  0
M  END
$$$$
