@<TRIPOS>MOLECULE
*****
 59 63 0 0 0
SMALL
GASTEIGER

@<TRIPOS>ATOM
      1 O           0.5502   -0.8193   -0.8454 O.2     1  UNL1       -0.2749
      2 C           0.7894    0.2688   -0.1822 C.2     1  UNL1        0.2246
      3 N           1.9292    0.9601   -0.5864 N.am    1  UNL1       -0.2962
      4 C           2.4180    2.2042   -0.0646 C.3     1  UNL1        0.0204
      5 C           3.8752    2.4763   -0.3626 C.3     1  UNL1        0.0058
      6 C           4.6565    1.2189   -0.3819 C.ar    1  UNL1        0.0474
      7 N           5.8541    1.0925    0.2089 N.ar    1  UNL1       -0.2590
      8 C           6.5280   -0.0676    0.1487 C.ar    1  UNL1        0.0395
      9 C           6.0018   -1.1557   -0.5233 C.ar    1  UNL1        0.0732
     10 C           6.7690   -2.4236   -0.5732 C.3     1  UNL1        0.4188
     11 F           6.0609   -3.3347   -1.3475 F       1  UNL1       -0.1658
     12 F           6.9588   -2.9786    0.6752 F       1  UNL1       -0.1658
     13 F           7.9877   -2.2433   -1.2155 F       1  UNL1       -0.1658
     14 C           4.7681   -1.0445   -1.1385 C.ar    1  UNL1       -0.0423
     15 C           4.1225    0.1532   -1.0493 C.ar    1  UNL1       -0.0083
     16 C           2.7766    0.3823   -1.6611 C.3     1  UNL1        0.0414
     17 C          -0.1682    0.5899    0.8720 C.3     1  UNL1        0.0767
     18 C           0.3182    0.5136    2.2727 C.3     1  UNL1       -0.0130
     19 C          -0.4864    1.6191    2.9670 C.3     1  UNL1        0.0491
     20 O          -1.4616    1.9879    2.0383 O.3     1  UNL1       -0.3754
     21 C          -0.7778    1.9674    0.7931 C.3     1  UNL1        0.0741
     22 C          -1.7578    1.8233   -0.3236 C.3     1  UNL1       -0.0101
     23 C          -2.4942    0.5577    0.1275 C.3     1  UNL1        0.0113
     24 N          -3.1278   -0.1028   -0.9763 N.3     1  UNL1       -0.3103
     25 C          -3.8143   -1.2668   -0.4935 C.3     1  UNL1        0.0120
     26 C          -4.5149   -2.0279   -1.5966 C.3     1  UNL1       -0.0139
     27 C          -5.9968   -1.7445   -1.5121 C.3     1  UNL1        0.0491
     28 O          -6.5478   -2.3049   -0.3604 O.3     1  UNL1       -0.3797
     29 C          -5.7330   -2.1164    0.7515 C.3     1  UNL1        0.0491
     30 C          -4.8608   -0.8975    0.5567 C.3     1  UNL1       -0.0139
     31 C          -1.4042   -0.2782    0.7566 C.3     1  UNL1       -0.0210
     32 H           2.3033    2.2064    1.0244 H       1  UNL1        0.0468
     33 H           1.8763    3.0685   -0.5421 H       1  UNL1        0.0468
     34 H           3.9880    3.0444   -1.3149 H       1  UNL1        0.0344
     35 H           4.2766    3.0746    0.4975 H       1  UNL1        0.0344
     36 H           7.5072   -0.1591    0.6361 H       1  UNL1        0.0835
     37 H           4.3588   -1.9046   -1.6662 H       1  UNL1        0.0627
     38 H           2.9100    1.1868   -2.4127 H       1  UNL1        0.0514
     39 H           2.3501   -0.5420   -2.0512 H       1  UNL1        0.0514
     40 H          -0.0826   -0.4428    2.7296 H       1  UNL1        0.0298
     41 H           1.3874    0.6092    2.4414 H       1  UNL1        0.0298
     42 H           0.1469    2.4582    3.2658 H       1  UNL1        0.0560
     43 H          -1.0120    1.2527    3.8700 H       1  UNL1        0.0560
     44 H          -0.0862    2.7938    0.7176 H       1  UNL1        0.0607
     45 H          -1.2346    1.5599   -1.2550 H       1  UNL1        0.0305
     46 H          -2.4516    2.6809   -0.4271 H       1  UNL1        0.0305
     47 H          -3.2363    0.9111    0.8974 H       1  UNL1        0.0461
     48 H          -3.7134    0.5360   -1.5318 H       1  UNL1        0.1225
     49 H          -3.0859   -1.9310    0.0115 H       1  UNL1        0.0462
     50 H          -4.1490   -1.7857   -2.5990 H       1  UNL1        0.0302
     51 H          -4.4028   -3.1283   -1.3942 H       1  UNL1        0.0302
     52 H          -6.4690   -2.2927   -2.3772 H       1  UNL1        0.0560
     53 H          -6.2467   -0.6848   -1.6469 H       1  UNL1        0.0560
     54 H          -6.3067   -2.0509    1.6897 H       1  UNL1        0.0560
     55 H          -5.0515   -2.9969    0.8237 H       1  UNL1        0.0560
     56 H          -4.3801   -0.6613    1.5233 H       1  UNL1        0.0302
     57 H          -5.4424   -0.0264    0.1904 H       1  UNL1        0.0302
     58 H          -1.7755   -0.5817    1.7571 H       1  UNL1        0.0291
     59 H          -1.1967   -1.1963    0.1684 H       1  UNL1        0.0291
@<TRIPOS>BOND
     1     1     2    2
     2     2     3   am
     3     3     4    1
     4     4     5    1
     5     5     6    1
     6     6     7   ar
     7     7     8   ar
     8     8     9   ar
     9     9    10    1
    10    10    11    1
    11    10    12    1
    12    10    13    1
    13     9    14   ar
    14    14    15   ar
    15    15    16    1
    16    17     2    1
    17    17    18    1
    18    18    19    1
    19    19    20    1
    20    20    21    1
    21    21    22    1
    22    22    23    1
    23    23    24    1
    24    24    25    1
    25    25    26    1
    26    26    27    1
    27    27    28    1
    28    28    29    1
    29    29    30    1
    30    23    31    1
    31    16     3    1
    32    21    17    1
    33    30    25    1
    34    15     6   ar
    35    31    17    1
    36     4    32    1
    37     4    33    1
    38     5    34    1
    39     5    35    1
    40     8    36    1
    41    14    37    1
    42    16    38    1
    43    16    39    1
    44    18    40    1
    45    18    41    1
    46    19    42    1
    47    19    43    1
    48    21    44    1
    49    22    45    1
    50    22    46    1
    51    23    47    1
    52    24    48    1
    53    25    49    1
    54    26    50    1
    55    26    51    1
    56    27    52    1
    57    27    53    1
    58    29    54    1
    59    29    55    1
    60    30    56    1
    61    30    57    1
    62    31    58    1
    63    31    59    1
