@<TRIPOS>MOLECULE
*****
 43 44 0 0 0
SMALL
GASTEIGER

@<TRIPOS>ATOM
      1 C           4.5304   -0.9492   -1.0368 C.3     1  UNL1       -0.0130
      2 N           3.7530    0.0770   -0.4174 N.3     1  UNL1       -0.3062
      3 C           4.4241    0.6135    0.7344 C.3     1  UNL1       -0.0130
      4 C           2.3856   -0.3569   -0.1035 C.3     1  UNL1        0.0218
      5 C           1.7192    0.8239    0.5365 C.3     1  UNL1        0.0616
      6 O           0.4202    0.6483    0.9187 O.3     1  UNL1       -0.3661
      7 C          -0.4807    0.3448   -0.0616 C.3     1  UNL1        0.1089
      8 C          -1.5747    1.3264   -0.2449 C.ar    1  UNL1       -0.0145
      9 C          -2.8911    0.9353   -0.3906 C.ar    1  UNL1       -0.0558
     10 C          -3.8586    1.9057   -0.5574 C.ar    1  UNL1       -0.0614
     11 C          -3.4600    3.2271   -0.5702 C.ar    1  UNL1       -0.0617
     12 C          -2.1412    3.6278   -0.4245 C.ar    1  UNL1       -0.0614
     13 C          -1.1789    2.6400   -0.2576 C.ar    1  UNL1       -0.0558
     14 C          -1.0304   -1.0162    0.1564 C.ar    1  UNL1       -0.0116
     15 C          -0.8668   -2.0379   -0.7869 C.ar    1  UNL1       -0.0555
     16 C          -1.3440   -3.3208   -0.6521 C.ar    1  UNL1       -0.0614
     17 C          -2.0302   -3.5974    0.5041 C.ar    1  UNL1       -0.0615
     18 C          -2.2101   -2.6144    1.4553 C.ar    1  UNL1       -0.0585
     19 C          -1.7217   -1.3108    1.3114 C.ar    1  UNL1       -0.0445
     20 C          -1.9801   -0.3372    2.3990 C.3     1  UNL1       -0.0394
     21 H           5.5958   -0.6078   -1.0026 H       1  UNL1        0.0391
     22 H           4.4856   -1.9162   -0.5105 H       1  UNL1        0.0391
     23 H           4.2991   -1.0581   -2.1314 H       1  UNL1        0.0391
     24 H           4.1660    1.6795    0.9198 H       1  UNL1        0.0391
     25 H           4.2601   -0.0370    1.6320 H       1  UNL1        0.0391
     26 H           5.5219    0.6155    0.5063 H       1  UNL1        0.0391
     27 H           2.3857   -1.2585    0.5287 H       1  UNL1        0.0449
     28 H           1.8739   -0.6009   -1.0315 H       1  UNL1        0.0449
     29 H           2.2956    1.0586    1.4666 H       1  UNL1        0.0573
     30 H           1.8183    1.6639   -0.2066 H       1  UNL1        0.0573
     31 H           0.0801    0.3166   -1.0255 H       1  UNL1        0.0697
     32 H          -3.1426   -0.0982   -0.3729 H       1  UNL1        0.0621
     33 H          -4.8886    1.6090   -0.6716 H       1  UNL1        0.0618
     34 H          -4.2286    3.9840   -0.7018 H       1  UNL1        0.0618
     35 H          -1.9141    4.6876   -0.4463 H       1  UNL1        0.0618
     36 H          -0.1854    3.0014   -0.1507 H       1  UNL1        0.0621
     37 H          -0.3072   -1.7463   -1.6898 H       1  UNL1        0.0621
     38 H          -1.1797   -4.0550   -1.4206 H       1  UNL1        0.0618
     39 H          -2.4146   -4.6003    0.6315 H       1  UNL1        0.0618
     40 H          -2.7551   -2.8591    2.3580 H       1  UNL1        0.0620
     41 H          -1.9517   -0.9045    3.3763 H       1  UNL1        0.0278
     42 H          -1.2451    0.4540    2.5091 H       1  UNL1        0.0278
     43 H          -3.0335    0.0428    2.3627 H       1  UNL1        0.0278
@<TRIPOS>BOND
     1     1     2    1
     2     2     3    1
     3     2     4    1
     4     4     5    1
     5     5     6    1
     6     6     7    1
     7     7     8    1
     8     8     9   ar
     9     9    10   ar
    10    10    11   ar
    11    11    12   ar
    12    12    13   ar
    13     7    14    1
    14    14    15   ar
    15    15    16   ar
    16    16    17   ar
    17    17    18   ar
    18    18    19   ar
    19    19    20    1
    20    13     8   ar
    21    19    14   ar
    22     1    21    1
    23     1    22    1
    24     1    23    1
    25     3    24    1
    26     3    25    1
    27     3    26    1
    28     4    27    1
    29     4    28    1
    30     5    29    1
    31     5    30    1
    32     7    31    1
    33     9    32    1
    34    10    33    1
    35    11    34    1
    36    12    35    1
    37    13    36    1
    38    15    37    1
    39    16    38    1
    40    17    39    1
    41    18    40    1
    42    20    41    1
    43    20    42    1
    44    20    43    1
