
     RDKit          3D

 80 84  0  0  0  0  0  0  0  0999 V2000
  -10.0880    1.7743    0.3960 C   0  0  0  0  0  0  0  0  0  0  0  0
   -8.5913    1.9383    0.2625 C   0  0  0  0  0  0  0  0  0  0  0  0
   -8.1011    2.9922    1.2319 C   0  0  0  0  0  0  0  0  0  0  0  0
   -8.3227    2.4863   -1.1403 C   0  0  0  0  0  0  0  0  0  0  0  0
   -7.6735    0.3507    0.4409 Si  0  0  0  0  0  4  0  0  0  0  0  0
   -8.2200   -0.6529    1.9025 C   0  0  0  0  0  0  0  0  0  0  0  0
   -7.7763   -0.6831   -1.1131 C   0  0  0  0  0  0  0  0  0  0  0  0
   -5.9739    0.7301    0.6756 O   0  0  0  0  0  0  0  0  0  0  0  0
   -4.9837   -0.0678    0.1220 C   0  0  0  0  0  0  0  0  0  0  0  0
   -3.9666    0.4846   -0.6275 C   0  0  0  0  0  0  0  0  0  0  0  0
   -2.9672   -0.3099   -1.1876 C   0  0  0  0  0  0  0  0  0  0  0  0
   -2.9719   -1.6702   -1.0051 C   0  0  0  0  0  0  0  0  0  0  0  0
   -1.9264   -2.5385   -1.5856 C   0  0  0  0  0  0  0  0  0  0  0  0
   -0.8251   -2.7049   -0.6883 N   0  0  0  0  0  0  0  0  0  0  0  0
   -0.6848   -3.7274    0.3159 C   0  0  0  0  0  0  0  0  0  0  0  0
   -1.4999   -4.6476    0.5804 O   0  0  0  0  0  0  0  0  0  0  0  0
    0.5812   -3.5249    0.9957 C   0  0  0  0  0  0  0  0  0  0  0  0
    1.0493   -4.2050    1.9183 O   0  0  0  0  0  0  0  0  0  0  0  0
    1.1928   -2.3621    0.3774 C   0  0  0  0  0  0  0  0  0  0  0  0
    2.3870   -1.7087    0.6071 C   0  0  0  0  0  0  0  0  0  0  0  0
    2.7788   -0.6010   -0.1123 C   0  0  0  0  0  0  0  0  0  0  0  0
    4.2959    0.2190    0.1884 S   0  0  0  0  0  6  0  0  0  0  0  0
    4.0881    1.6670   -0.1270 O   0  0  0  0  0  0  0  0  0  0  0  0
    4.6520    0.1189    1.6527 O   0  0  0  0  0  0  0  0  0  0  0  0
    5.4886   -0.4975   -0.8040 N   0  0  0  0  0  0  0  0  0  0  0  0
    5.6139   -1.8950   -0.4340 C   0  0  0  0  0  0  0  0  0  0  0  0
    6.9922   -2.3063   -0.9416 C   0  0  0  0  0  0  0  0  0  0  0  0
    7.6175   -1.0136   -1.4197 C   0  0  0  0  0  0  0  0  0  0  0  0
    6.8260   -0.0022   -0.5314 C   0  0  1  0  0  0  0  0  0  0  0  0
    7.0592    1.3582   -1.1114 C   0  0  0  0  0  0  0  0  0  0  0  0
    8.3288    1.8162   -0.8020 O   0  0  0  0  0  0  0  0  0  0  0  0
    8.7434    2.1233    0.4698 C   0  0  0  0  0  0  0  0  0  0  0  0
    7.9884    2.0794    1.6105 C   0  0  0  0  0  0  0  0  0  0  0  0
    8.5178    2.4064    2.8507 C   0  0  0  0  0  0  0  0  0  0  0  0
    9.8251    2.7924    2.9988 C   0  0  0  0  0  0  0  0  0  0  0  0
   10.6057    2.8477    1.8756 C   0  0  0  0  0  0  0  0  0  0  0  0
   10.0825    2.5238    0.6501 C   0  0  0  0  0  0  0  0  0  0  0  0
    1.9122   -0.1622   -1.0911 C   0  0  0  0  0  0  0  0  0  0  0  0
    0.6999   -0.7944   -1.3518 C   0  0  0  0  0  0  0  0  0  0  0  0
    0.3326   -1.8992   -0.6183 C   0  0  0  0  0  0  0  0  0  0  0  0
   -3.9768   -2.2338   -0.2623 C   0  0  0  0  0  0  0  0  0  0  0  0
   -4.9694   -1.4345    0.2927 C   0  0  0  0  0  0  0  0  0  0  0  0
  -10.3872    1.0053    1.1086 H   0  0  0  0  0  0  0  0  0  0  0  0
  -10.5591    1.6181   -0.6157 H   0  0  0  0  0  0  0  0  0  0  0  0
  -10.4934    2.7473    0.7605 H   0  0  0  0  0  0  0  0  0  0  0  0
   -6.9910    2.9840    1.1943 H   0  0  0  0  0  0  0  0  0  0  0  0
   -8.4393    3.9814    0.8706 H   0  0  0  0  0  0  0  0  0  0  0  0
   -8.4679    2.7576    2.2518 H   0  0  0  0  0  0  0  0  0  0  0  0
   -8.5037    3.5852   -1.1792 H   0  0  0  0  0  0  0  0  0  0  0  0
   -7.2633    2.3430   -1.4371 H   0  0  0  0  0  0  0  0  0  0  0  0
   -8.9413    1.9721   -1.8977 H   0  0  0  0  0  0  0  0  0  0  0  0
   -7.5188   -0.5099    2.7641 H   0  0  0  0  0  0  0  0  0  0  0  0
   -9.2672   -0.5235    2.1706 H   0  0  0  0  0  0  0  0  0  0  0  0
   -8.0956   -1.7367    1.6221 H   0  0  0  0  0  0  0  0  0  0  0  0
   -7.4862   -1.7285   -0.8931 H   0  0  0  0  0  0  0  0  0  0  0  0
   -8.7738   -0.5958   -1.5826 H   0  0  0  0  0  0  0  0  0  0  0  0
   -7.0246   -0.2920   -1.8322 H   0  0  0  0  0  0  0  0  0  0  0  0
   -3.9706    1.5529   -0.7656 H   0  0  0  0  0  0  0  0  0  0  0  0
   -2.2107    0.2092   -1.7597 H   0  0  0  0  0  0  0  0  0  0  0  0
   -2.3940   -3.5425   -1.7920 H   0  0  0  0  0  0  0  0  0  0  0  0
   -1.5360   -2.1533   -2.5500 H   0  0  0  0  0  0  0  0  0  0  0  0
    3.0620   -2.0703    1.3870 H   0  0  0  0  0  0  0  0  0  0  0  0
    4.8093   -2.4833   -0.8777 H   0  0  0  0  0  0  0  0  0  0  0  0
    5.5603   -2.0310    0.6735 H   0  0  0  0  0  0  0  0  0  0  0  0
    7.5677   -2.7275   -0.0861 H   0  0  0  0  0  0  0  0  0  0  0  0
    6.8447   -3.0398   -1.7570 H   0  0  0  0  0  0  0  0  0  0  0  0
    7.3171   -0.8373   -2.4620 H   0  0  0  0  0  0  0  0  0  0  0  0
    8.6847   -0.9361   -1.2171 H   0  0  0  0  0  0  0  0  0  0  0  0
    7.1776   -0.1057    0.4733 H   0  0  0  0  0  0  0  0  0  0  0  0
    6.8694    1.3849   -2.2115 H   0  0  0  0  0  0  0  0  0  0  0  0
    6.3323    2.0668   -0.6439 H   0  0  0  0  0  0  0  0  0  0  0  0
    6.9305    1.8082    1.5223 H   0  0  0  0  0  0  0  0  0  0  0  0
    7.8921    2.3571    3.7159 H   0  0  0  0  0  0  0  0  0  0  0  0
   10.2488    3.0516    3.9734 H   0  0  0  0  0  0  0  0  0  0  0  0
   11.6413    3.1542    1.9931 H   0  0  0  0  0  0  0  0  0  0  0  0
   10.6873    2.5634   -0.2422 H   0  0  0  0  0  0  0  0  0  0  0  0
    2.2193    0.7172   -1.6649 H   0  0  0  0  0  0  0  0  0  0  0  0
    0.0770   -0.3959   -2.1303 H   0  0  0  0  0  0  0  0  0  0  0  0
   -3.9930   -3.3022   -0.1107 H   0  0  0  0  0  0  0  0  0  0  0  0
   -5.7453   -1.9146    0.8721 H   0  0  0  0  0  0  0  0  0  0  0  0
  1  2  1  0
  2  3  1  0
  2  4  1  0
  2  5  1  0
  5  6  1  0
  5  7  1  0
  5  8  1  0
  8  9  1  0
  9 10  2  0
 10 11  1  0
 11 12  2  0
 12 13  1  0
 13 14  1  0
 14 15  1  0
 15 16  2  0
 15 17  1  0
 17 18  2  0
 17 19  1  0
 19 20  2  0
 20 21  1  0
 21 22  1  0
 22 23  2  0
 22 24  2  0
 22 25  1  0
 25 26  1  0
 26 27  1  0
 27 28  1  0
 28 29  1  0
 29 30  1  0
 30 31  1  0
 31 32  1  0
 32 33  2  0
 33 34  1  0
 34 35  2  0
 35 36  1  0
 36 37  2  0
 21 38  2  0
 38 39  1  0
 39 40  2  0
 12 41  1  0
 41 42  2  0
 42  9  1  0
 40 14  1  0
 40 19  1  0
 29 25  1  0
 37 32  1  0
  1 43  1  0
  1 44  1  0
  1 45  1  0
  3 46  1  0
  3 47  1  0
  3 48  1  0
  4 49  1  0
  4 50  1  0
  4 51  1  0
  6 52  1  0
  6 53  1  0
  6 54  1  0
  7 55  1  0
  7 56  1  0
  7 57  1  0
 10 58  1  0
 11 59  1  0
 13 60  1  0
 13 61  1  0
 20 62  1  0
 26 63  1  0
 26 64  1  0
 27 65  1  0
 27 66  1  0
 28 67  1  0
 28 68  1  0
 29 69  1  1
 30 70  1  0
 30 71  1  0
 33 72  1  0
 34 73  1  0
 35 74  1  0
 36 75  1  0
 37 76  1  0
 38 77  1  0
 39 78  1  0
 41 79  1  0
 42 80  1  0
M  END
$$$$
