@<TRIPOS>MOLECULE
*****
 80 84 0 0 0
SMALL
GASTEIGER

@<TRIPOS>ATOM
      1 C         -10.0880    1.7743    0.3960 C.3     1  UNL1        0.0000
      2 C          -8.5913    1.9383    0.2625 C.3     1  UNL1        0.0000
      3 C          -8.1011    2.9922    1.2319 C.3     1  UNL1        0.0000
      4 C          -8.3227    2.4863   -1.1403 C.3     1  UNL1        0.0000
      5 SI         -7.6735    0.3507    0.4409 Si      1  UNL1        0.0000
      6 C          -8.2200   -0.6529    1.9025 C.3     1  UNL1        0.0000
      7 C          -7.7763   -0.6831   -1.1131 C.3     1  UNL1        0.0000
      8 O          -5.9739    0.7301    0.6756 O.3     1  UNL1        0.0000
      9 C          -4.9837   -0.0678    0.1220 C.ar    1  UNL1        0.0000
     10 C          -3.9666    0.4846   -0.6275 C.ar    1  UNL1        0.0000
     11 C          -2.9672   -0.3099   -1.1876 C.ar    1  UNL1        0.0000
     12 C          -2.9719   -1.6702   -1.0051 C.ar    1  UNL1        0.0000
     13 C          -1.9264   -2.5385   -1.5856 C.3     1  UNL1        0.0000
     14 N          -0.8251   -2.7049   -0.6883 N.am    1  UNL1        0.0000
     15 C          -0.6848   -3.7274    0.3159 C.2     1  UNL1        0.0000
     16 O          -1.4999   -4.6476    0.5804 O.2     1  UNL1        0.0000
     17 C           0.5812   -3.5249    0.9957 C.2     1  UNL1        0.0000
     18 O           1.0493   -4.2050    1.9183 O.2     1  UNL1        0.0000
     19 C           1.1928   -2.3621    0.3774 C.ar    1  UNL1        0.0000
     20 C           2.3870   -1.7087    0.6071 C.ar    1  UNL1        0.0000
     21 C           2.7788   -0.6010   -0.1123 C.ar    1  UNL1        0.0000
     22 S           4.2959    0.2190    0.1884 S.O2    1  UNL1        0.0000
     23 O           4.0881    1.6670   -0.1270 O.2     1  UNL1        0.0000
     24 O           4.6520    0.1189    1.6527 O.2     1  UNL1        0.0000
     25 N           5.4886   -0.4975   -0.8040 N.3     1  UNL1        0.0000
     26 C           5.6139   -1.8950   -0.4340 C.3     1  UNL1        0.0000
     27 C           6.9922   -2.3063   -0.9416 C.3     1  UNL1        0.0000
     28 C           7.6175   -1.0136   -1.4197 C.3     1  UNL1        0.0000
     29 C           6.8260   -0.0022   -0.5314 C.3     1  UNL1        0.0000
     30 C           7.0592    1.3582   -1.1114 C.3     1  UNL1        0.0000
     31 O           8.3288    1.8162   -0.8020 O.3     1  UNL1        0.0000
     32 C           8.7434    2.1233    0.4698 C.ar    1  UNL1        0.0000
     33 C           7.9884    2.0794    1.6105 C.ar    1  UNL1        0.0000
     34 C           8.5178    2.4064    2.8507 C.ar    1  UNL1        0.0000
     35 C           9.8251    2.7924    2.9988 C.ar    1  UNL1        0.0000
     36 C          10.6057    2.8477    1.8756 C.ar    1  UNL1        0.0000
     37 C          10.0825    2.5238    0.6501 C.ar    1  UNL1        0.0000
     38 C           1.9122   -0.1622   -1.0911 C.ar    1  UNL1        0.0000
     39 C           0.6999   -0.7944   -1.3518 C.ar    1  UNL1        0.0000
     40 C           0.3326   -1.8992   -0.6183 C.ar    1  UNL1        0.0000
     41 C          -3.9768   -2.2338   -0.2623 C.ar    1  UNL1        0.0000
     42 C          -4.9694   -1.4345    0.2927 C.ar    1  UNL1        0.0000
     43 H         -10.3872    1.0053    1.1086 H       1  UNL1        0.0000
     44 H         -10.5591    1.6181   -0.6157 H       1  UNL1        0.0000
     45 H         -10.4934    2.7473    0.7605 H       1  UNL1        0.0000
     46 H          -6.9910    2.9840    1.1943 H       1  UNL1        0.0000
     47 H          -8.4393    3.9814    0.8706 H       1  UNL1        0.0000
     48 H          -8.4679    2.7576    2.2518 H       1  UNL1        0.0000
     49 H          -8.5037    3.5852   -1.1792 H       1  UNL1        0.0000
     50 H          -7.2633    2.3430   -1.4371 H       1  UNL1        0.0000
     51 H          -8.9413    1.9721   -1.8977 H       1  UNL1        0.0000
     52 H          -7.5188   -0.5099    2.7641 H       1  UNL1        0.0000
     53 H          -9.2672   -0.5235    2.1706 H       1  UNL1        0.0000
     54 H          -8.0956   -1.7367    1.6221 H       1  UNL1        0.0000
     55 H          -7.4862   -1.7285   -0.8931 H       1  UNL1        0.0000
     56 H          -8.7738   -0.5958   -1.5826 H       1  UNL1        0.0000
     57 H          -7.0246   -0.2920   -1.8322 H       1  UNL1        0.0000
     58 H          -3.9706    1.5529   -0.7656 H       1  UNL1        0.0000
     59 H          -2.2107    0.2092   -1.7597 H       1  UNL1        0.0000
     60 H          -2.3940   -3.5425   -1.7920 H       1  UNL1        0.0000
     61 H          -1.5360   -2.1533   -2.5500 H       1  UNL1        0.0000
     62 H           3.0620   -2.0703    1.3870 H       1  UNL1        0.0000
     63 H           4.8093   -2.4833   -0.8777 H       1  UNL1        0.0000
     64 H           5.5603   -2.0310    0.6735 H       1  UNL1        0.0000
     65 H           7.5677   -2.7275   -0.0861 H       1  UNL1        0.0000
     66 H           6.8447   -3.0398   -1.7570 H       1  UNL1        0.0000
     67 H           7.3171   -0.8373   -2.4620 H       1  UNL1        0.0000
     68 H           8.6847   -0.9361   -1.2171 H       1  UNL1        0.0000
     69 H           7.1776   -0.1057    0.4733 H       1  UNL1        0.0000
     70 H           6.8694    1.3849   -2.2115 H       1  UNL1        0.0000
     71 H           6.3323    2.0668   -0.6439 H       1  UNL1        0.0000
     72 H           6.9305    1.8082    1.5223 H       1  UNL1        0.0000
     73 H           7.8921    2.3571    3.7159 H       1  UNL1        0.0000
     74 H          10.2488    3.0516    3.9734 H       1  UNL1        0.0000
     75 H          11.6413    3.1542    1.9931 H       1  UNL1        0.0000
     76 H          10.6873    2.5634   -0.2422 H       1  UNL1        0.0000
     77 H           2.2193    0.7172   -1.6649 H       1  UNL1        0.0000
     78 H           0.0770   -0.3959   -2.1303 H       1  UNL1        0.0000
     79 H          -3.9930   -3.3022   -0.1107 H       1  UNL1        0.0000
     80 H          -5.7453   -1.9146    0.8721 H       1  UNL1        0.0000
@<TRIPOS>BOND
     1     1     2    1
     2     2     3    1
     3     2     4    1
     4     2     5    1
     5     5     6    1
     6     5     7    1
     7     5     8    1
     8     8     9    1
     9     9    10   ar
    10    10    11   ar
    11    11    12   ar
    12    12    13    1
    13    13    14    1
    14    14    15   am
    15    15    16    2
    16    15    17    1
    17    17    18    2
    18    17    19    1
    19    19    20   ar
    20    20    21   ar
    21    21    22    1
    22    22    23    2
    23    22    24    2
    24    22    25    1
    25    25    26    1
    26    26    27    1
    27    27    28    1
    28    28    29    1
    29    29    30    1
    30    30    31    1
    31    31    32    1
    32    32    33   ar
    33    33    34   ar
    34    34    35   ar
    35    35    36   ar
    36    36    37   ar
    37    21    38   ar
    38    38    39   ar
    39    39    40   ar
    40    12    41   ar
    41    41    42   ar
    42    42     9   ar
    43    40    14    1
    44    40    19   ar
    45    29    25    1
    46    37    32   ar
    47     1    43    1
    48     1    44    1
    49     1    45    1
    50     3    46    1
    51     3    47    1
    52     3    48    1
    53     4    49    1
    54     4    50    1
    55     4    51    1
    56     6    52    1
    57     6    53    1
    58     6    54    1
    59     7    55    1
    60     7    56    1
    61     7    57    1
    62    10    58    1
    63    11    59    1
    64    13    60    1
    65    13    61    1
    66    20    62    1
    67    26    63    1
    68    26    64    1
    69    27    65    1
    70    27    66    1
    71    28    67    1
    72    28    68    1
    73    29    69    1
    74    30    70    1
    75    30    71    1
    76    33    72    1
    77    34    73    1
    78    35    74    1
    79    36    75    1
    80    37    76    1
    81    38    77    1
    82    39    78    1
    83    41    79    1
    84    42    80    1
