@<TRIPOS>MOLECULE
*****
 118 125 0 0 0
SMALL
GASTEIGER

@<TRIPOS>ATOM
      1 C          -9.6072    0.3398    1.4781 C.3     1  UNL1       -0.0081
      2 C          -9.7792   -1.0073    0.8058 C.3     1  UNL1       -0.0432
      3 C          -8.8245   -0.9863   -0.3711 C.3     1  UNL1       -0.0226
      4 C          -8.0350    0.2614   -0.2351 C.3     1  UNL1        0.0751
      5 O          -8.6080    1.2554   -1.0266 O.3     1  UNL1       -0.3877
      6 C          -6.5862    0.1406   -0.6286 C.3     1  UNL1       -0.0083
      7 C          -6.4877   -0.2251   -2.0933 C.3     1  UNL1       -0.0470
      8 C          -5.0607   -0.5855   -2.4364 C.3     1  UNL1       -0.0493
      9 C          -4.1012   -0.1802   -1.3414 C.3     1  UNL1       -0.0330
     10 C          -2.6784   -0.3217   -1.7935 C.3     1  UNL1       -0.0232
     11 C          -1.9435   -1.4706   -1.1786 C.3     1  UNL1        0.0620
     12 C          -2.8926   -2.5370   -0.6953 C.3     1  UNL1       -0.0260
     13 C          -3.6826   -1.9614    0.4200 C.3     1  UNL1       -0.0448
     14 C          -4.4013   -0.7339    0.0087 C.3     1  UNL1       -0.0259
     15 C          -4.0214    0.3142    1.0826 C.3     1  UNL1       -0.0590
     16 C          -5.8890   -0.9507    0.1443 C.3     1  UNL1       -0.0299
     17 C          -6.3862   -1.0970    1.5369 C.3     1  UNL1       -0.0488
     18 C          -7.2929   -0.0810    2.0808 C.3     1  UNL1       -0.0442
     19 C          -8.1715    0.7187    1.1981 C.3     1  UNL1        0.0036
     20 C          -7.9003    2.2047    1.3014 C.3     1  UNL1       -0.0564
     21 O          -1.0986   -1.1411   -0.1535 O.3     1  UNL1       -0.3480
     22 C           0.2267   -1.4250   -0.3353 C.3     1  UNL1        0.1624
     23 C           0.9849   -0.1216   -0.3413 C.3     1  UNL1        0.0270
     24 C           1.9135    0.0551    0.8374 C.3     1  UNL1        0.0884
     25 O           2.6642    1.1933    0.6604 O.3     1  UNL1       -0.3890
     26 C           2.8566   -1.1275    0.9700 C.3     1  UNL1        0.1134
     27 O           3.9326   -0.8430    0.1381 O.3     1  UNL1       -0.3429
     28 C           5.1254   -0.7229    0.8495 C.3     1  UNL1        0.1626
     29 C           6.1510   -1.6023    0.1744 C.3     1  UNL1        0.0270
     30 C           6.8546   -0.7525   -0.8659 C.3     1  UNL1        0.0884
     31 O           7.6811   -1.5224   -1.6762 O.3     1  UNL1       -0.3890
     32 C           7.6210    0.3900   -0.2287 C.3     1  UNL1        0.1134
     33 O           8.9528    0.0708    0.0005 O.3     1  UNL1       -0.3429
     34 C           9.8291    0.9401   -0.6144 C.3     1  UNL1        0.1626
     35 C          10.7770    1.6231    0.3615 C.3     1  UNL1        0.0270
     36 C          12.1533    0.9575    0.2905 C.3     1  UNL1        0.0881
     37 O          12.9683    1.6333    1.1917 O.3     1  UNL1       -0.3890
     38 C          12.7139    1.2260   -1.1078 C.3     1  UNL1        0.1070
     39 O          13.2931    2.5103   -1.0928 O.3     1  UNL1       -0.3867
     40 C          11.5282    1.2687   -2.0520 C.3     1  UNL1        0.0871
     41 C          11.9859    0.8900   -3.4415 C.3     1  UNL1       -0.0361
     42 O          10.6046    0.3306   -1.5961 O.3     1  UNL1       -0.3456
     43 C           6.8689    0.7757    1.0252 C.3     1  UNL1        0.0875
     44 C           7.1082    2.2352    1.3050 C.3     1  UNL1       -0.0361
     45 O           5.5166    0.6345    0.7231 O.3     1  UNL1       -0.3456
     46 C           2.1595   -2.4004    0.5263 C.3     1  UNL1        0.0875
     47 C           2.6286   -3.6218    1.2824 C.3     1  UNL1       -0.0361
     48 O           0.7781   -2.2594    0.5956 O.3     1  UNL1       -0.3456
     49 C         -10.6325    1.3258    1.1938 C.2     1  UNL1       -0.0222
     50 C         -11.5262    0.9725    0.2546 C.2     1  UNL1        0.0252
     51 C         -12.4641    2.0680    0.1079 C.2     1  UNL1        0.3323
     52 O         -13.5018    2.3618   -0.5814 O.2     1  UNL1       -0.2456
     53 O         -12.1195    3.0777    0.9716 O.3     1  UNL1       -0.4571
     54 C         -10.9948    2.6613    1.7075 C.3     1  UNL1        0.1147
     55 H          -9.6938    0.0991    2.5906 H       1  UNL1        0.0353
     56 H          -9.4157   -1.8324    1.4887 H       1  UNL1        0.0272
     57 H         -10.8105   -1.2283    0.5673 H       1  UNL1        0.0272
     58 H          -8.1981   -1.9208   -0.3960 H       1  UNL1        0.0293
     59 H          -9.4973   -0.9955   -1.2821 H       1  UNL1        0.0293
     60 H          -7.9605    1.7914   -1.5399 H       1  UNL1        0.2102
     61 H          -6.1205    1.1366   -0.5078 H       1  UNL1        0.0331
     62 H          -7.0892   -1.1411   -2.3243 H       1  UNL1        0.0269
     63 H          -6.8869    0.5662   -2.7578 H       1  UNL1        0.0269
     64 H          -4.9424   -1.5931   -2.8199 H       1  UNL1        0.0268
     65 H          -4.7802    0.0836   -3.3077 H       1  UNL1        0.0268
     66 H          -4.2629    0.9310   -1.2757 H       1  UNL1        0.0307
     67 H          -2.6905   -0.4884   -2.8933 H       1  UNL1        0.0293
     68 H          -2.0799    0.6049   -1.6695 H       1  UNL1        0.0293
     69 H          -1.2958   -1.9609   -1.9417 H       1  UNL1        0.0597
     70 H          -2.2744   -3.3716   -0.2374 H       1  UNL1        0.0290
     71 H          -3.5501   -2.9511   -1.4876 H       1  UNL1        0.0290
     72 H          -2.9518   -1.8163    1.2743 H       1  UNL1        0.0271
     73 H          -4.3909   -2.7094    0.8382 H       1  UNL1        0.0271
     74 H          -4.8310    0.9877    1.3272 H       1  UNL1        0.0235
     75 H          -3.1649    0.9135    0.6447 H       1  UNL1        0.0235
     76 H          -3.6092   -0.1627    1.9923 H       1  UNL1        0.0235
     77 H          -6.1680   -1.9024   -0.4128 H       1  UNL1        0.0310
     78 H          -6.9344   -2.0928    1.6120 H       1  UNL1        0.0268
     79 H          -5.5554   -1.2463    2.2780 H       1  UNL1        0.0268
     80 H          -6.6786    0.5958    2.7507 H       1  UNL1        0.0272
     81 H          -7.9556   -0.6001    2.8498 H       1  UNL1        0.0272
     82 H          -8.3517    2.6847    0.4171 H       1  UNL1        0.0236
     83 H          -8.2120    2.5485    2.2807 H       1  UNL1        0.0236
     84 H          -6.7965    2.3049    1.1506 H       1  UNL1        0.0236
     85 H           0.4391   -1.8954   -1.3361 H       1  UNL1        0.0910
     86 H           0.2509    0.7094   -0.3315 H       1  UNL1        0.0340
     87 H           1.5842    0.0176   -1.2705 H       1  UNL1        0.0340
     88 H           1.3385    0.1394    1.7750 H       1  UNL1        0.0622
     89 H           3.0125    1.2356   -0.2456 H       1  UNL1        0.2099
     90 H           3.2226   -1.1860    1.9995 H       1  UNL1        0.0649
     91 H           5.0349   -0.8892    1.9226 H       1  UNL1        0.0910
     92 H           6.8573   -2.0669    0.8830 H       1  UNL1        0.0340
     93 H           5.6342   -2.4128   -0.3711 H       1  UNL1        0.0340
     94 H           6.0604   -0.3394   -1.5189 H       1  UNL1        0.0622
     95 H           8.1067   -0.9679   -2.3511 H       1  UNL1        0.2099
     96 H           7.5836    1.3107   -0.8806 H       1  UNL1        0.0649
     97 H           9.2041    1.7054   -1.1578 H       1  UNL1        0.0910
     98 H          10.4301    1.5468    1.3992 H       1  UNL1        0.0340
     99 H          10.9037    2.6803    0.0461 H       1  UNL1        0.0340
    100 H          12.0906   -0.1181    0.4529 H       1  UNL1        0.0621
    101 H          13.6398    0.9900    1.5501 H       1  UNL1        0.2099
    102 H          13.4790    0.4974   -1.3760 H       1  UNL1        0.0645
    103 H          13.8369    2.6291   -0.2624 H       1  UNL1        0.2100
    104 H          11.0734    2.2847   -2.0349 H       1  UNL1        0.0621
    105 H          12.1643    1.8024   -4.0539 H       1  UNL1        0.0255
    106 H          11.2534    0.2344   -3.9752 H       1  UNL1        0.0255
    107 H          12.9397    0.3165   -3.3501 H       1  UNL1        0.0255
    108 H           7.1970    0.1964    1.9044 H       1  UNL1        0.0621
    109 H           8.1905    2.4787    1.3474 H       1  UNL1        0.0255
    110 H           6.5961    2.8964    0.5714 H       1  UNL1        0.0255
    111 H           6.6855    2.5092    2.3167 H       1  UNL1        0.0255
    112 H           2.4175   -2.5580   -0.5399 H       1  UNL1        0.0621
    113 H           3.1207   -3.3996    2.2375 H       1  UNL1        0.0255
    114 H           1.7247   -4.2339    1.5645 H       1  UNL1        0.0255
    115 H           3.2279   -4.3225    0.6415 H       1  UNL1        0.0255
    116 H         -11.8164    0.1717   -0.4449 H       1  UNL1        0.0689
    117 H         -11.2989    2.6110    2.7878 H       1  UNL1        0.0746
    118 H         -10.2266    3.4334    1.5485 H       1  UNL1        0.0746
@<TRIPOS>BOND
     1     1     2    1
     2     2     3    1
     3     3     4    1
     4     4     5    1
     5     4     6    1
     6     6     7    1
     7     7     8    1
     8     8     9    1
     9     9    10    1
    10    10    11    1
    11    11    12    1
    12    12    13    1
    13    13    14    1
    14    14    15    1
    15    14    16    1
    16    16    17    1
    17    17    18    1
    18    18    19    1
    19    19    20    1
    20    11    21    1
    21    21    22    1
    22    22    23    1
    23    23    24    1
    24    24    25    1
    25    24    26    1
    26    26    27    1
    27    27    28    1
    28    28    29    1
    29    29    30    1
    30    30    31    1
    31    30    32    1
    32    32    33    1
    33    33    34    1
    34    34    35    1
    35    35    36    1
    36    36    37    1
    37    36    38    1
    38    38    39    1
    39    38    40    1
    40    40    41    1
    41    40    42    1
    42    32    43    1
    43    43    44    1
    44    43    45    1
    45    26    46    1
    46    46    47    1
    47    46    48    1
    48     1    49    1
    49    49    50    2
    50    50    51    1
    51    51    52    2
    52    51    53    1
    53    53    54    1
    54    19     1    1
    55    48    22    1
    56    54    49    1
    57    19     4    1
    58    45    28    1
    59    16     6    1
    60    42    34    1
    61    14     9    1
    62     1    55    1
    63     2    56    1
    64     2    57    1
    65     3    58    1
    66     3    59    1
    67     5    60    1
    68     6    61    1
    69     7    62    1
    70     7    63    1
    71     8    64    1
    72     8    65    1
    73     9    66    1
    74    10    67    1
    75    10    68    1
    76    11    69    1
    77    12    70    1
    78    12    71    1
    79    13    72    1
    80    13    73    1
    81    15    74    1
    82    15    75    1
    83    15    76    1
    84    16    77    1
    85    17    78    1
    86    17    79    1
    87    18    80    1
    88    18    81    1
    89    20    82    1
    90    20    83    1
    91    20    84    1
    92    22    85    1
    93    23    86    1
    94    23    87    1
    95    24    88    1
    96    25    89    1
    97    26    90    1
    98    28    91    1
    99    29    92    1
   100    29    93    1
   101    30    94    1
   102    31    95    1
   103    32    96    1
   104    34    97    1
   105    35    98    1
   106    35    99    1
   107    36   100    1
   108    37   101    1
   109    38   102    1
   110    39   103    1
   111    40   104    1
   112    41   105    1
   113    41   106    1
   114    41   107    1
   115    43   108    1
   116    44   109    1
   117    44   110    1
   118    44   111    1
   119    46   112    1
   120    47   113    1
   121    47   114    1
   122    47   115    1
   123    50   116    1
   124    54   117    1
   125    54   118    1
