
     RDKit          3D

118125  0  0  0  0  0  0  0  0999 V2000
   -9.6072    0.3398    1.4781 C   0  0  1  0  0  0  0  0  0  0  0  0
   -9.7792   -1.0073    0.8058 C   0  0  0  0  0  0  0  0  0  0  0  0
   -8.8245   -0.9863   -0.3711 C   0  0  0  0  0  0  0  0  0  0  0  0
   -8.0350    0.2614   -0.2351 C   0  0  2  0  0  0  0  0  0  0  0  0
   -8.6080    1.2554   -1.0266 O   0  0  0  0  0  0  0  0  0  0  0  0
   -6.5862    0.1406   -0.6286 C   0  0  2  0  0  0  0  0  0  0  0  0
   -6.4877   -0.2251   -2.0933 C   0  0  0  0  0  0  0  0  0  0  0  0
   -5.0607   -0.5855   -2.4364 C   0  0  0  0  0  0  0  0  0  0  0  0
   -4.1012   -0.1802   -1.3414 C   0  0  2  0  0  0  0  0  0  0  0  0
   -2.6784   -0.3217   -1.7935 C   0  0  0  0  0  0  0  0  0  0  0  0
   -1.9435   -1.4706   -1.1786 C   0  0  2  0  0  0  0  0  0  0  0  0
   -2.8926   -2.5370   -0.6953 C   0  0  0  0  0  0  0  0  0  0  0  0
   -3.6826   -1.9614    0.4200 C   0  0  0  0  0  0  0  0  0  0  0  0
   -4.4013   -0.7339    0.0087 C   0  0  1  0  0  0  0  0  0  0  0  0
   -4.0214    0.3142    1.0826 C   0  0  0  0  0  0  0  0  0  0  0  0
   -5.8890   -0.9507    0.1443 C   0  0  1  0  0  0  0  0  0  0  0  0
   -6.3862   -1.0970    1.5369 C   0  0  0  0  0  0  0  0  0  0  0  0
   -7.2929   -0.0810    2.0808 C   0  0  0  0  0  0  0  0  0  0  0  0
   -8.1715    0.7187    1.1981 C   0  0  2  0  0  0  0  0  0  0  0  0
   -7.9003    2.2047    1.3014 C   0  0  0  0  0  0  0  0  0  0  0  0
   -1.0986   -1.1411   -0.1535 O   0  0  0  0  0  0  0  0  0  0  0  0
    0.2267   -1.4250   -0.3353 C   0  0  1  0  0  0  0  0  0  0  0  0
    0.9849   -0.1216   -0.3413 C   0  0  0  0  0  0  0  0  0  0  0  0
    1.9135    0.0551    0.8374 C   0  0  2  0  0  0  0  0  0  0  0  0
    2.6642    1.1933    0.6604 O   0  0  0  0  0  0  0  0  0  0  0  0
    2.8566   -1.1275    0.9700 C   0  0  2  0  0  0  0  0  0  0  0  0
    3.9326   -0.8430    0.1381 O   0  0  0  0  0  0  0  0  0  0  0  0
    5.1254   -0.7229    0.8495 C   0  0  1  0  0  0  0  0  0  0  0  0
    6.1510   -1.6023    0.1744 C   0  0  0  0  0  0  0  0  0  0  0  0
    6.8546   -0.7525   -0.8659 C   0  0  2  0  0  0  0  0  0  0  0  0
    7.6811   -1.5224   -1.6762 O   0  0  0  0  0  0  0  0  0  0  0  0
    7.6210    0.3900   -0.2287 C   0  0  2  0  0  0  0  0  0  0  0  0
    8.9528    0.0708    0.0005 O   0  0  0  0  0  0  0  0  0  0  0  0
    9.8291    0.9401   -0.6144 C   0  0  1  0  0  0  0  0  0  0  0  0
   10.7770    1.6231    0.3615 C   0  0  0  0  0  0  0  0  0  0  0  0
   12.1533    0.9575    0.2905 C   0  0  2  0  0  0  0  0  0  0  0  0
   12.9683    1.6333    1.1917 O   0  0  0  0  0  0  0  0  0  0  0  0
   12.7139    1.2260   -1.1078 C   0  0  2  0  0  0  0  0  0  0  0  0
   13.2931    2.5103   -1.0928 O   0  0  0  0  0  0  0  0  0  0  0  0
   11.5282    1.2687   -2.0520 C   0  0  1  0  0  0  0  0  0  0  0  0
   11.9859    0.8900   -3.4415 C   0  0  0  0  0  0  0  0  0  0  0  0
   10.6046    0.3306   -1.5961 O   0  0  0  0  0  0  0  0  0  0  0  0
    6.8689    0.7757    1.0252 C   0  0  1  0  0  0  0  0  0  0  0  0
    7.1082    2.2352    1.3050 C   0  0  0  0  0  0  0  0  0  0  0  0
    5.5166    0.6345    0.7231 O   0  0  0  0  0  0  0  0  0  0  0  0
    2.1595   -2.4004    0.5263 C   0  0  1  0  0  0  0  0  0  0  0  0
    2.6286   -3.6218    1.2824 C   0  0  0  0  0  0  0  0  0  0  0  0
    0.7781   -2.2594    0.5956 O   0  0  0  0  0  0  0  0  0  0  0  0
  -10.6325    1.3258    1.1938 C   0  0  0  0  0  0  0  0  0  0  0  0
  -11.5262    0.9725    0.2546 C   0  0  0  0  0  0  0  0  0  0  0  0
  -12.4641    2.0680    0.1079 C   0  0  0  0  0  0  0  0  0  0  0  0
  -13.5018    2.3618   -0.5814 O   0  0  0  0  0  0  0  0  0  0  0  0
  -12.1195    3.0777    0.9716 O   0  0  0  0  0  0  0  0  0  0  0  0
  -10.9948    2.6613    1.7075 C   0  0  0  0  0  0  0  0  0  0  0  0
   -9.6938    0.0991    2.5906 H   0  0  0  0  0  0  0  0  0  0  0  0
   -9.4157   -1.8324    1.4887 H   0  0  0  0  0  0  0  0  0  0  0  0
  -10.8105   -1.2283    0.5673 H   0  0  0  0  0  0  0  0  0  0  0  0
   -8.1981   -1.9208   -0.3960 H   0  0  0  0  0  0  0  0  0  0  0  0
   -9.4973   -0.9955   -1.2821 H   0  0  0  0  0  0  0  0  0  0  0  0
   -7.9605    1.7914   -1.5399 H   0  0  0  0  0  0  0  0  0  0  0  0
   -6.1205    1.1366   -0.5078 H   0  0  0  0  0  0  0  0  0  0  0  0
   -7.0892   -1.1411   -2.3243 H   0  0  0  0  0  0  0  0  0  0  0  0
   -6.8869    0.5662   -2.7578 H   0  0  0  0  0  0  0  0  0  0  0  0
   -4.9424   -1.5931   -2.8199 H   0  0  0  0  0  0  0  0  0  0  0  0
   -4.7802    0.0836   -3.3077 H   0  0  0  0  0  0  0  0  0  0  0  0
   -4.2629    0.9310   -1.2757 H   0  0  0  0  0  0  0  0  0  0  0  0
   -2.6905   -0.4884   -2.8933 H   0  0  0  0  0  0  0  0  0  0  0  0
   -2.0799    0.6049   -1.6695 H   0  0  0  0  0  0  0  0  0  0  0  0
   -1.2958   -1.9609   -1.9417 H   0  0  0  0  0  0  0  0  0  0  0  0
   -2.2744   -3.3716   -0.2374 H   0  0  0  0  0  0  0  0  0  0  0  0
   -3.5501   -2.9511   -1.4876 H   0  0  0  0  0  0  0  0  0  0  0  0
   -2.9518   -1.8163    1.2743 H   0  0  0  0  0  0  0  0  0  0  0  0
   -4.3909   -2.7094    0.8382 H   0  0  0  0  0  0  0  0  0  0  0  0
   -4.8310    0.9877    1.3272 H   0  0  0  0  0  0  0  0  0  0  0  0
   -3.1649    0.9135    0.6447 H   0  0  0  0  0  0  0  0  0  0  0  0
   -3.6092   -0.1627    1.9923 H   0  0  0  0  0  0  0  0  0  0  0  0
   -6.1680   -1.9024   -0.4128 H   0  0  0  0  0  0  0  0  0  0  0  0
   -6.9344   -2.0928    1.6120 H   0  0  0  0  0  0  0  0  0  0  0  0
   -5.5554   -1.2463    2.2780 H   0  0  0  0  0  0  0  0  0  0  0  0
   -6.6786    0.5958    2.7507 H   0  0  0  0  0  0  0  0  0  0  0  0
   -7.9556   -0.6001    2.8498 H   0  0  0  0  0  0  0  0  0  0  0  0
   -8.3517    2.6847    0.4171 H   0  0  0  0  0  0  0  0  0  0  0  0
   -8.2120    2.5485    2.2807 H   0  0  0  0  0  0  0  0  0  0  0  0
   -6.7965    2.3049    1.1506 H   0  0  0  0  0  0  0  0  0  0  0  0
    0.4391   -1.8954   -1.3361 H   0  0  0  0  0  0  0  0  0  0  0  0
    0.2509    0.7094   -0.3315 H   0  0  0  0  0  0  0  0  0  0  0  0
    1.5842    0.0176   -1.2705 H   0  0  0  0  0  0  0  0  0  0  0  0
    1.3385    0.1394    1.7750 H   0  0  0  0  0  0  0  0  0  0  0  0
    3.0125    1.2356   -0.2456 H   0  0  0  0  0  0  0  0  0  0  0  0
    3.2226   -1.1860    1.9995 H   0  0  0  0  0  0  0  0  0  0  0  0
    5.0349   -0.8892    1.9226 H   0  0  0  0  0  0  0  0  0  0  0  0
    6.8573   -2.0669    0.8830 H   0  0  0  0  0  0  0  0  0  0  0  0
    5.6342   -2.4128   -0.3711 H   0  0  0  0  0  0  0  0  0  0  0  0
    6.0604   -0.3394   -1.5189 H   0  0  0  0  0  0  0  0  0  0  0  0
    8.1067   -0.9679   -2.3511 H   0  0  0  0  0  0  0  0  0  0  0  0
    7.5836    1.3107   -0.8806 H   0  0  0  0  0  0  0  0  0  0  0  0
    9.2041    1.7054   -1.1578 H   0  0  0  0  0  0  0  0  0  0  0  0
   10.4301    1.5468    1.3992 H   0  0  0  0  0  0  0  0  0  0  0  0
   10.9037    2.6803    0.0461 H   0  0  0  0  0  0  0  0  0  0  0  0
   12.0906   -0.1181    0.4529 H   0  0  0  0  0  0  0  0  0  0  0  0
   13.6398    0.9900    1.5501 H   0  0  0  0  0  0  0  0  0  0  0  0
   13.4790    0.4974   -1.3760 H   0  0  0  0  0  0  0  0  0  0  0  0
   13.8369    2.6291   -0.2624 H   0  0  0  0  0  0  0  0  0  0  0  0
   11.0734    2.2847   -2.0349 H   0  0  0  0  0  0  0  0  0  0  0  0
   12.1643    1.8024   -4.0539 H   0  0  0  0  0  0  0  0  0  0  0  0
   11.2534    0.2344   -3.9752 H   0  0  0  0  0  0  0  0  0  0  0  0
   12.9397    0.3165   -3.3501 H   0  0  0  0  0  0  0  0  0  0  0  0
    7.1970    0.1964    1.9044 H   0  0  0  0  0  0  0  0  0  0  0  0
    8.1905    2.4787    1.3474 H   0  0  0  0  0  0  0  0  0  0  0  0
    6.5961    2.8964    0.5714 H   0  0  0  0  0  0  0  0  0  0  0  0
    6.6855    2.5092    2.3167 H   0  0  0  0  0  0  0  0  0  0  0  0
    2.4175   -2.5580   -0.5399 H   0  0  0  0  0  0  0  0  0  0  0  0
    3.1207   -3.3996    2.2375 H   0  0  0  0  0  0  0  0  0  0  0  0
    1.7247   -4.2339    1.5645 H   0  0  0  0  0  0  0  0  0  0  0  0
    3.2279   -4.3225    0.6415 H   0  0  0  0  0  0  0  0  0  0  0  0
  -11.8164    0.1717   -0.4449 H   0  0  0  0  0  0  0  0  0  0  0  0
  -11.2989    2.6110    2.7878 H   0  0  0  0  0  0  0  0  0  0  0  0
  -10.2266    3.4334    1.5485 H   0  0  0  0  0  0  0  0  0  0  0  0
  1  2  1  0
  2  3  1  0
  3  4  1  0
  4  5  1  6
  4  6  1  0
  6  7  1  0
  7  8  1  0
  8  9  1  0
  9 10  1  0
 10 11  1  0
 11 12  1  0
 12 13  1  0
 13 14  1  0
 14 15  1  1
 14 16  1  0
 16 17  1  0
 17 18  1  0
 18 19  1  0
 19 20  1  6
 11 21  1  0
 21 22  1  0
 22 23  1  0
 23 24  1  0
 24 25  1  0
 24 26  1  0
 26 27  1  0
 27 28  1  0
 28 29  1  0
 29 30  1  0
 30 31  1  0
 30 32  1  0
 32 33  1  0
 33 34  1  0
 34 35  1  0
 35 36  1  0
 36 37  1  0
 36 38  1  0
 38 39  1  0
 38 40  1  0
 40 41  1  0
 40 42  1  0
 32 43  1  0
 43 44  1  0
 43 45  1  0
 26 46  1  0
 46 47  1  0
 46 48  1  0
  1 49  1  0
 49 50  2  0
 50 51  1  0
 51 52  2  0
 51 53  1  0
 53 54  1  0
 19  1  1  0
 48 22  1  0
 54 49  1  0
 19  4  1  0
 45 28  1  0
 16  6  1  0
 42 34  1  0
 14  9  1  0
  1 55  1  1
  2 56  1  0
  2 57  1  0
  3 58  1  0
  3 59  1  0
  5 60  1  0
  6 61  1  6
  7 62  1  0
  7 63  1  0
  8 64  1  0
  8 65  1  0
  9 66  1  1
 10 67  1  0
 10 68  1  0
 11 69  1  6
 12 70  1  0
 12 71  1  0
 13 72  1  0
 13 73  1  0
 15 74  1  0
 15 75  1  0
 15 76  1  0
 16 77  1  6
 17 78  1  0
 17 79  1  0
 18 80  1  0
 18 81  1  0
 20 82  1  0
 20 83  1  0
 20 84  1  0
 22 85  1  6
 23 86  1  0
 23 87  1  0
 24 88  1  1
 25 89  1  0
 26 90  1  1
 28 91  1  1
 29 92  1  0
 29 93  1  0
 30 94  1  6
 31 95  1  0
 32 96  1  6
 34 97  1  6
 35 98  1  0
 35 99  1  0
 36100  1  1
 37101  1  0
 38102  1  6
 39103  1  0
 40104  1  6
 41105  1  0
 41106  1  0
 41107  1  0
 43108  1  1
 44109  1  0
 44110  1  0
 44111  1  0
 46112  1  6
 47113  1  0
 47114  1  0
 47115  1  0
 50116  1  0
 54117  1  0
 54118  1  0
M  END
$$$$
