@<TRIPOS>MOLECULE
*****
 43 46 0 0 0
SMALL
GASTEIGER

@<TRIPOS>ATOM
      1 C          -0.5752   -3.3495    0.3043 C.3     1  UNL1       -0.0259
      2 C          -1.4627   -2.4089   -0.3971 C.2     1  UNL1        0.0191
      3 C          -1.0471   -1.2427   -0.7930 C.2     1  UNL1        0.0559
      4 C           0.2641   -0.7002   -0.6433 C.2     1  UNL1        0.2478
      5 O           0.3682    0.5179   -1.1517 O.2     1  UNL1       -0.2701
      6 N           1.4224   -1.2176   -0.0711 N.am    1  UNL1       -0.2816
      7 C           2.5903   -0.3689   -0.0955 C.ar    1  UNL1        0.0344
      8 C           3.4884   -0.3805   -1.1216 C.ar    1  UNL1       -0.0384
      9 C           4.6049    0.4674   -1.0896 C.ar    1  UNL1       -0.0345
     10 C           4.7949    1.3059   -0.0313 C.ar    1  UNL1        0.0658
     11 N           5.7200    2.2271    0.3266 N.ar    1  UNL1       -0.2770
     12 N           5.4124    2.7673    1.4912 N.ar    1  UNL1       -0.1812
     13 C           4.2648    2.2276    1.9615 C.ar    1  UNL1        0.0569
     14 C           3.8795    1.3134    1.0078 C.ar    1  UNL1        0.0212
     15 C           2.7829    0.4723    0.9639 C.ar    1  UNL1       -0.0298
     16 C          -2.0539   -0.2564   -1.4036 C.3     1  UNL1        0.0814
     17 C          -2.4964    0.6892   -0.3476 C.ar    1  UNL1       -0.0224
     18 C          -3.2937    0.2757    0.6910 C.ar    1  UNL1       -0.0538
     19 C          -3.7160    1.1838    1.6702 C.ar    1  UNL1       -0.0261
     20 C          -3.3382    2.5098    1.6083 C.ar    1  UNL1        0.1234
     21 F          -3.7247    3.4239    2.5364 F       1  UNL1       -0.2055
     22 C          -2.5345    2.9262    0.5608 C.ar    1  UNL1       -0.0261
     23 C          -2.1224    2.0030   -0.4092 C.ar    1  UNL1       -0.0538
     24 N          -3.1937   -0.9082   -1.9277 N.am    1  UNL1       -0.2881
     25 C          -3.6569   -2.1581   -1.4867 C.2     1  UNL1        0.3043
     26 O          -4.8303   -2.5374   -1.8007 O.2     1  UNL1       -0.2525
     27 N          -2.7849   -2.9359   -0.7092 N.am    1  UNL1       -0.2729
     28 H          -0.2413   -3.0168    1.3067 H       1  UNL1        0.0290
     29 H          -1.2157   -4.2580    0.5926 H       1  UNL1        0.0290
     30 H           0.2114   -3.8020   -0.3255 H       1  UNL1        0.0290
     31 H           1.4371   -2.1350    0.3284 H       1  UNL1        0.1551
     32 H           3.3445   -1.0454   -1.9682 H       1  UNL1        0.0637
     33 H           5.3284    0.4740   -1.8920 H       1  UNL1        0.0639
     34 H           6.5488    2.4426   -0.2772 H       1  UNL1        0.1889
     35 H           3.7790    2.4885    2.9027 H       1  UNL1        0.0854
     36 H           2.0958    0.5242    1.8142 H       1  UNL1        0.0643
     37 H          -1.5147    0.2476   -2.2198 H       1  UNL1        0.0601
     38 H          -3.6297   -0.7459    0.8058 H       1  UNL1        0.0622
     39 H          -4.3446    0.8560    2.4884 H       1  UNL1        0.0646
     40 H          -2.2364    3.9637    0.5085 H       1  UNL1        0.0646
     41 H          -1.5075    2.4369   -1.1850 H       1  UNL1        0.0622
     42 H          -3.7113   -0.4058   -2.7025 H       1  UNL1        0.1512
     43 H          -3.1060   -3.8707   -0.3748 H       1  UNL1        0.1561
@<TRIPOS>BOND
     1     1     2    1
     2     2     3    2
     3     3     4    1
     4     4     5    2
     5     4     6   am
     6     6     7    1
     7     7     8   ar
     8     8     9   ar
     9     9    10   ar
    10    10    11   ar
    11    11    12   ar
    12    12    13   ar
    13    13    14   ar
    14    14    15   ar
    15     3    16    1
    16    16    17    1
    17    17    18   ar
    18    18    19   ar
    19    19    20   ar
    20    20    21    1
    21    20    22   ar
    22    22    23   ar
    23    16    24    1
    24    24    25   am
    25    25    26    2
    26    25    27   am
    27    27     2    1
    28    15     7   ar
    29    23    17   ar
    30    14    10   ar
    31     1    28    1
    32     1    29    1
    33     1    30    1
    34     6    31    1
    35     8    32    1
    36     9    33    1
    37    11    34    1
    38    13    35    1
    39    15    36    1
    40    16    37    1
    41    18    38    1
    42    19    39    1
    43    22    40    1
    44    23    41    1
    45    24    42    1
    46    27    43    1
