@<TRIPOS>MOLECULE
*****
 33 33 0 0 0
SMALL
GASTEIGER

@<TRIPOS>ATOM
      1 C          -0.8885   -0.3256   -1.3570 C.3     1  UNL1        0.1763
      2 O          -1.6763    0.1750   -2.4181 O.3     1  UNL1       -0.3656
      3 O           0.1144    0.6074   -1.1512 O.3     1  UNL1       -0.3416
      4 C           0.7531    0.4716    0.0583 C.3     1  UNL1        0.1155
      5 C           2.2450    0.6658   -0.1089 C.3     1  UNL1        0.1076
      6 O           2.7094   -0.2947   -0.9919 O.3     1  UNL1       -0.2131
      7 S           4.3692   -0.0364   -1.1448 S.O2    1  UNL1        0.2076
      8 O           5.0515   -0.6367    0.2887 O.3     1  UNL1       -0.2311
      9 O           4.6499    1.4396   -1.2321 O.2     1  UNL1       -0.1181
     10 O           4.9058   -0.7768   -2.3200 O.2     1  UNL1       -0.1181
     11 C           0.4264   -0.8470    0.7161 C.3     1  UNL1        0.1111
     12 O           1.2396   -1.0525    1.8209 O.3     1  UNL1       -0.3865
     13 C          -1.0439   -0.7470    1.1064 C.3     1  UNL1        0.1052
     14 O          -1.5285   -1.9141    1.6705 O.3     1  UNL1       -0.3874
     15 C          -1.8066   -0.3407   -0.1511 C.3     1  UNL1        0.1096
     16 N          -2.3533    0.9825   -0.0349 N.3     1  UNL1       -0.1595
     17 S          -4.0464    1.0873   -0.1277 S.O2    1  UNL1        0.1490
     18 O          -4.6859    0.2043    1.1513 O.3     1  UNL1       -0.2404
     19 O          -4.4253    2.5241    0.0993 O.2     1  UNL1       -0.1300
     20 O          -4.6163    0.6593   -1.4409 O.2     1  UNL1       -0.1300
     21 H          -0.5399   -1.3217   -1.6623 H       1  UNL1        0.0925
     22 H          -1.0780    0.5839   -3.0844 H       1  UNL1        0.2125
     23 H           0.3487    1.2739    0.7423 H       1  UNL1        0.0648
     24 H           2.7392    0.5630    0.8755 H       1  UNL1        0.0611
     25 H           2.4229    1.6810   -0.4936 H       1  UNL1        0.0611
     26 H           5.7756   -0.0689    0.6189 H       1  UNL1        0.2469
     27 H           0.5944   -1.7096    0.0427 H       1  UNL1        0.0646
     28 H           1.4980   -2.0217    1.9109 H       1  UNL1        0.2100
     29 H          -1.1014    0.0977    1.8376 H       1  UNL1        0.0638
     30 H          -0.8783   -2.2201    2.3289 H       1  UNL1        0.2100
     31 H          -2.5922   -1.1197   -0.2867 H       1  UNL1        0.0555
     32 H          -1.8516    1.6686   -0.6294 H       1  UNL1        0.1506
     33 H          -4.7305    0.7483    1.9623 H       1  UNL1        0.2460
@<TRIPOS>BOND
     1     1     2    1
     2     1     3    1
     3     3     4    1
     4     4     5    1
     5     5     6    1
     6     6     7    1
     7     7     8    1
     8     7     9    2
     9     7    10    2
    10     4    11    1
    11    11    12    1
    12    11    13    1
    13    13    14    1
    14    13    15    1
    15    15    16    1
    16    16    17    1
    17    17    18    1
    18    17    19    2
    19    17    20    2
    20    15     1    1
    21     1    21    1
    22     2    22    1
    23     4    23    1
    24     5    24    1
    25     5    25    1
    26     8    26    1
    27    11    27    1
    28    12    28    1
    29    13    29    1
    30    14    30    1
    31    15    31    1
    32    16    32    1
    33    18    33    1
