
     RDKit          3D

 33 33  0  0  0  0  0  0  0  0999 V2000
   -0.8885   -0.3256   -1.3570 C   0  0  1  0  0  0  0  0  0  0  0  0
   -1.6763    0.1750   -2.4181 O   0  0  0  0  0  0  0  0  0  0  0  0
    0.1144    0.6074   -1.1512 O   0  0  0  0  0  0  0  0  0  0  0  0
    0.7531    0.4716    0.0583 C   0  0  2  0  0  0  0  0  0  0  0  0
    2.2450    0.6658   -0.1089 C   0  0  0  0  0  0  0  0  0  0  0  0
    2.7094   -0.2947   -0.9919 O   0  0  0  0  0  0  0  0  0  0  0  0
    4.3692   -0.0364   -1.1448 S   0  0  0  0  0  0  0  0  0  0  0  0
    5.0515   -0.6367    0.2887 O   0  0  0  0  0  0  0  0  0  0  0  0
    4.6499    1.4396   -1.2321 O   0  0  0  0  0  0  0  0  0  0  0  0
    4.9058   -0.7768   -2.3200 O   0  0  0  0  0  0  0  0  0  0  0  0
    0.4264   -0.8470    0.7161 C   0  0  1  0  0  0  0  0  0  0  0  0
    1.2396   -1.0525    1.8209 O   0  0  0  0  0  0  0  0  0  0  0  0
   -1.0439   -0.7470    1.1064 C   0  0  2  0  0  0  0  0  0  0  0  0
   -1.5285   -1.9141    1.6705 O   0  0  0  0  0  0  0  0  0  0  0  0
   -1.8066   -0.3407   -0.1511 C   0  0  1  0  0  0  0  0  0  0  0  0
   -2.3533    0.9825   -0.0349 N   0  0  0  0  0  0  0  0  0  0  0  0
   -4.0464    1.0873   -0.1277 S   0  0  0  0  0  0  0  0  0  0  0  0
   -4.6859    0.2043    1.1513 O   0  0  0  0  0  0  0  0  0  0  0  0
   -4.4253    2.5241    0.0993 O   0  0  0  0  0  0  0  0  0  0  0  0
   -4.6163    0.6593   -1.4409 O   0  0  0  0  0  0  0  0  0  0  0  0
   -0.5399   -1.3217   -1.6623 H   0  0  0  0  0  0  0  0  0  0  0  0
   -1.0780    0.5839   -3.0844 H   0  0  0  0  0  0  0  0  0  0  0  0
    0.3487    1.2739    0.7423 H   0  0  0  0  0  0  0  0  0  0  0  0
    2.7392    0.5630    0.8755 H   0  0  0  0  0  0  0  0  0  0  0  0
    2.4229    1.6810   -0.4936 H   0  0  0  0  0  0  0  0  0  0  0  0
    5.7756   -0.0689    0.6189 H   0  0  0  0  0  0  0  0  0  0  0  0
    0.5944   -1.7096    0.0427 H   0  0  0  0  0  0  0  0  0  0  0  0
    1.4980   -2.0217    1.9109 H   0  0  0  0  0  0  0  0  0  0  0  0
   -1.1014    0.0977    1.8376 H   0  0  0  0  0  0  0  0  0  0  0  0
   -0.8783   -2.2201    2.3289 H   0  0  0  0  0  0  0  0  0  0  0  0
   -2.5922   -1.1197   -0.2867 H   0  0  0  0  0  0  0  0  0  0  0  0
   -1.8516    1.6686   -0.6294 H   0  0  0  0  0  0  0  0  0  0  0  0
   -4.7305    0.7483    1.9623 H   0  0  0  0  0  0  0  0  0  0  0  0
  1  2  1  0
  1  3  1  0
  3  4  1  0
  4  5  1  0
  5  6  1  0
  6  7  1  0
  7  8  1  0
  7  9  2  0
  7 10  2  0
  4 11  1  0
 11 12  1  0
 11 13  1  0
 13 14  1  0
 13 15  1  0
 15 16  1  0
 16 17  1  0
 17 18  1  0
 17 19  2  0
 17 20  2  0
 15  1  1  0
  1 21  1  6
  2 22  1  0
  4 23  1  1
  5 24  1  0
  5 25  1  0
  8 26  1  0
 11 27  1  6
 12 28  1  0
 13 29  1  1
 14 30  1  0
 15 31  1  6
 16 32  1  0
 18 33  1  0
M  END
$$$$
