@<TRIPOS>MOLECULE
*****
 53 55 0 0 0
SMALL
GASTEIGER

@<TRIPOS>ATOM
      1 O          -3.7304   -2.2899    1.6198 O.2     1  UNL1       -0.2719
      2 C          -4.7437   -1.8949    0.9912 C.2     1  UNL1        0.2543
      3 N          -5.9700   -2.5542    1.2754 N.am    1  UNL1       -0.1961
      4 O          -6.0421   -3.5618    2.1825 O.3     1  UNL1       -0.2951
      5 C          -4.6791   -0.7781   -0.0180 C.3     1  UNL1        0.1099
      6 C          -5.6103    0.2978    0.4960 C.3     1  UNL1       -0.0248
      7 C          -5.4795    1.6009   -0.2231 C.3     1  UNL1       -0.0237
      8 C          -4.3767    1.4362   -1.2681 C.3     1  UNL1        0.0696
      9 O          -4.1510    2.6097   -1.9709 O.3     1  UNL1       -0.3905
     10 C          -3.1331    1.0272   -0.4727 C.3     1  UNL1        0.0473
     11 N          -3.3272   -0.3306   -0.0602 N.3     1  UNL1       -0.1622
     12 S          -2.2952   -1.3426   -0.9856 S.O2    1  UNL1        0.0616
     13 O          -2.5565   -1.1395   -2.4591 O.2     1  UNL1       -0.1528
     14 O          -2.4196   -2.7889   -0.6109 O.2     1  UNL1       -0.1528
     15 C          -0.6408   -0.8553   -0.6437 C.ar    1  UNL1        0.1057
     16 C           0.0036   -1.3641    0.4909 C.ar    1  UNL1       -0.0319
     17 C           1.2917   -1.0309    0.8068 C.ar    1  UNL1       -0.0181
     18 C           2.0180   -0.1688    0.0100 C.ar    1  UNL1        0.1211
     19 O           3.3157    0.1356    0.3739 O.3     1  UNL1       -0.4874
     20 C           4.1470    1.0037   -0.3659 C.3     1  UNL1        0.1152
     21 C           5.4500    1.0716    0.3417 C.ar    1  UNL1        0.0012
     22 C           5.7955    2.1843    1.1098 C.ar    1  UNL1       -0.0548
     23 C           6.9974    2.2594    1.7738 C.ar    1  UNL1       -0.0614
     24 C           7.8759    1.2156    1.6780 C.ar    1  UNL1       -0.0612
     25 C           7.5544    0.1178    0.9302 C.ar    1  UNL1       -0.0497
     26 C           6.3360    0.0269    0.2491 C.ar    1  UNL1        0.0612
     27 C           6.0333   -1.1824   -0.5533 C.3     1  UNL1        0.4178
     28 F           7.0961   -2.0671   -0.4552 F       1  UNL1       -0.1659
     29 F           5.9241   -0.8621   -1.9012 F       1  UNL1       -0.1659
     30 F           4.9057   -1.8470   -0.1222 F       1  UNL1       -0.1659
     31 C           1.3814    0.3246   -1.0977 C.ar    1  UNL1       -0.0181
     32 C           0.0736   -0.0036   -1.4334 C.ar    1  UNL1       -0.0319
     33 H          -6.8349   -2.2593    0.7776 H       1  UNL1        0.1822
     34 H          -6.9780   -3.7481    2.4009 H       1  UNL1        0.2414
     35 H          -5.0338   -1.2272   -0.9674 H       1  UNL1        0.0576
     36 H          -5.3945    0.3814    1.5989 H       1  UNL1        0.0286
     37 H          -6.6526   -0.0758    0.4259 H       1  UNL1        0.0286
     38 H          -5.0700    2.3427    0.5197 H       1  UNL1        0.0291
     39 H          -6.4184    1.9779   -0.6638 H       1  UNL1        0.0291
     40 H          -4.6608    0.6356   -1.9702 H       1  UNL1        0.0606
     41 H          -4.7940    2.6816   -2.7224 H       1  UNL1        0.2098
     42 H          -3.0451    1.6453    0.4458 H       1  UNL1        0.0470
     43 H          -2.2240    1.1987   -1.0717 H       1  UNL1        0.0470
     44 H          -0.5823   -2.0369    1.1006 H       1  UNL1        0.0638
     45 H           1.7602   -1.4481    1.6996 H       1  UNL1        0.0655
     46 H           3.6806    2.0109   -0.4652 H       1  UNL1        0.0748
     47 H           4.2510    0.5874   -1.3818 H       1  UNL1        0.0748
     48 H           5.0547    2.9764    1.1440 H       1  UNL1        0.0621
     49 H           7.2562    3.1215    2.3642 H       1  UNL1        0.0618
     50 H           8.8360    1.2829    2.2126 H       1  UNL1        0.0618
     51 H           8.2512   -0.7071    0.8559 H       1  UNL1        0.0623
     52 H           1.9384    1.0023   -1.7329 H       1  UNL1        0.0655
     53 H          -0.3843    0.4081   -2.3240 H       1  UNL1        0.0638
@<TRIPOS>BOND
     1     1     2    2
     2     2     3   am
     3     3     4    1
     4     2     5    1
     5     5     6    1
     6     6     7    1
     7     7     8    1
     8     8     9    1
     9     8    10    1
    10    10    11    1
    11    11    12    1
    12    12    13    2
    13    12    14    2
    14    12    15    1
    15    15    16   ar
    16    16    17   ar
    17    17    18   ar
    18    18    19    1
    19    19    20    1
    20    20    21    1
    21    21    22   ar
    22    22    23   ar
    23    23    24   ar
    24    24    25   ar
    25    25    26   ar
    26    26    27    1
    27    27    28    1
    28    27    29    1
    29    27    30    1
    30    18    31   ar
    31    31    32   ar
    32    11     5    1
    33    32    15   ar
    34    26    21   ar
    35     3    33    1
    36     4    34    1
    37     5    35    1
    38     6    36    1
    39     6    37    1
    40     7    38    1
    41     7    39    1
    42     8    40    1
    43     9    41    1
    44    10    42    1
    45    10    43    1
    46    16    44    1
    47    17    45    1
    48    20    46    1
    49    20    47    1
    50    22    48    1
    51    23    49    1
    52    24    50    1
    53    25    51    1
    54    31    52    1
    55    32    53    1
