
     RDKit          3D

 53 55  0  0  0  0  0  0  0  0999 V2000
   -3.7304   -2.2899    1.6198 O   0  0  0  0  0  0  0  0  0  0  0  0
   -4.7437   -1.8949    0.9912 C   0  0  0  0  0  0  0  0  0  0  0  0
   -5.9700   -2.5542    1.2754 N   0  0  0  0  0  0  0  0  0  0  0  0
   -6.0421   -3.5618    2.1825 O   0  0  0  0  0  0  0  0  0  0  0  0
   -4.6791   -0.7781   -0.0180 C   0  0  1  0  0  0  0  0  0  0  0  0
   -5.6103    0.2978    0.4960 C   0  0  0  0  0  0  0  0  0  0  0  0
   -5.4795    1.6009   -0.2231 C   0  0  0  0  0  0  0  0  0  0  0  0
   -4.3767    1.4362   -1.2681 C   0  0  1  0  0  0  0  0  0  0  0  0
   -4.1510    2.6097   -1.9709 O   0  0  0  0  0  0  0  0  0  0  0  0
   -3.1331    1.0272   -0.4727 C   0  0  0  0  0  0  0  0  0  0  0  0
   -3.3272   -0.3306   -0.0602 N   0  0  0  0  0  0  0  0  0  0  0  0
   -2.2952   -1.3426   -0.9856 S   0  0  0  0  0  6  0  0  0  0  0  0
   -2.5565   -1.1395   -2.4591 O   0  0  0  0  0  0  0  0  0  0  0  0
   -2.4196   -2.7889   -0.6109 O   0  0  0  0  0  0  0  0  0  0  0  0
   -0.6408   -0.8553   -0.6437 C   0  0  0  0  0  0  0  0  0  0  0  0
    0.0036   -1.3641    0.4909 C   0  0  0  0  0  0  0  0  0  0  0  0
    1.2917   -1.0309    0.8068 C   0  0  0  0  0  0  0  0  0  0  0  0
    2.0180   -0.1688    0.0100 C   0  0  0  0  0  0  0  0  0  0  0  0
    3.3157    0.1356    0.3739 O   0  0  0  0  0  0  0  0  0  0  0  0
    4.1470    1.0037   -0.3659 C   0  0  0  0  0  0  0  0  0  0  0  0
    5.4500    1.0716    0.3417 C   0  0  0  0  0  0  0  0  0  0  0  0
    5.7955    2.1843    1.1098 C   0  0  0  0  0  0  0  0  0  0  0  0
    6.9974    2.2594    1.7738 C   0  0  0  0  0  0  0  0  0  0  0  0
    7.8759    1.2156    1.6780 C   0  0  0  0  0  0  0  0  0  0  0  0
    7.5544    0.1178    0.9302 C   0  0  0  0  0  0  0  0  0  0  0  0
    6.3360    0.0269    0.2491 C   0  0  0  0  0  0  0  0  0  0  0  0
    6.0333   -1.1824   -0.5533 C   0  0  0  0  0  0  0  0  0  0  0  0
    7.0961   -2.0671   -0.4552 F   0  0  0  0  0  0  0  0  0  0  0  0
    5.9241   -0.8621   -1.9012 F   0  0  0  0  0  0  0  0  0  0  0  0
    4.9057   -1.8470   -0.1222 F   0  0  0  0  0  0  0  0  0  0  0  0
    1.3814    0.3246   -1.0977 C   0  0  0  0  0  0  0  0  0  0  0  0
    0.0736   -0.0036   -1.4334 C   0  0  0  0  0  0  0  0  0  0  0  0
   -6.8349   -2.2593    0.7776 H   0  0  0  0  0  0  0  0  0  0  0  0
   -6.9780   -3.7481    2.4009 H   0  0  0  0  0  0  0  0  0  0  0  0
   -5.0338   -1.2272   -0.9674 H   0  0  0  0  0  0  0  0  0  0  0  0
   -5.3945    0.3814    1.5989 H   0  0  0  0  0  0  0  0  0  0  0  0
   -6.6526   -0.0758    0.4259 H   0  0  0  0  0  0  0  0  0  0  0  0
   -5.0700    2.3427    0.5197 H   0  0  0  0  0  0  0  0  0  0  0  0
   -6.4184    1.9779   -0.6638 H   0  0  0  0  0  0  0  0  0  0  0  0
   -4.6608    0.6356   -1.9702 H   0  0  0  0  0  0  0  0  0  0  0  0
   -4.7940    2.6816   -2.7224 H   0  0  0  0  0  0  0  0  0  0  0  0
   -3.0451    1.6453    0.4458 H   0  0  0  0  0  0  0  0  0  0  0  0
   -2.2240    1.1987   -1.0717 H   0  0  0  0  0  0  0  0  0  0  0  0
   -0.5823   -2.0369    1.1006 H   0  0  0  0  0  0  0  0  0  0  0  0
    1.7602   -1.4481    1.6996 H   0  0  0  0  0  0  0  0  0  0  0  0
    3.6806    2.0109   -0.4652 H   0  0  0  0  0  0  0  0  0  0  0  0
    4.2510    0.5874   -1.3818 H   0  0  0  0  0  0  0  0  0  0  0  0
    5.0547    2.9764    1.1440 H   0  0  0  0  0  0  0  0  0  0  0  0
    7.2562    3.1215    2.3642 H   0  0  0  0  0  0  0  0  0  0  0  0
    8.8360    1.2829    2.2126 H   0  0  0  0  0  0  0  0  0  0  0  0
    8.2512   -0.7071    0.8559 H   0  0  0  0  0  0  0  0  0  0  0  0
    1.9384    1.0023   -1.7329 H   0  0  0  0  0  0  0  0  0  0  0  0
   -0.3843    0.4081   -2.3240 H   0  0  0  0  0  0  0  0  0  0  0  0
  1  2  2  0
  2  3  1  0
  3  4  1  0
  2  5  1  0
  5  6  1  0
  6  7  1  0
  7  8  1  0
  8  9  1  0
  8 10  1  0
 10 11  1  0
 11 12  1  0
 12 13  2  0
 12 14  2  0
 12 15  1  0
 15 16  2  0
 16 17  1  0
 17 18  2  0
 18 19  1  0
 19 20  1  0
 20 21  1  0
 21 22  2  0
 22 23  1  0
 23 24  2  0
 24 25  1  0
 25 26  2  0
 26 27  1  0
 27 28  1  0
 27 29  1  0
 27 30  1  0
 18 31  1  0
 31 32  2  0
 11  5  1  0
 32 15  1  0
 26 21  1  0
  3 33  1  0
  4 34  1  0
  5 35  1  6
  6 36  1  0
  6 37  1  0
  7 38  1  0
  7 39  1  0
  8 40  1  6
  9 41  1  0
 10 42  1  0
 10 43  1  0
 16 44  1  0
 17 45  1  0
 20 46  1  0
 20 47  1  0
 22 48  1  0
 23 49  1  0
 24 50  1  0
 25 51  1  0
 31 52  1  0
 32 53  1  0
M  END
$$$$
