@<TRIPOS>MOLECULE
*****
 52 57 0 0 0
SMALL
GASTEIGER

@<TRIPOS>ATOM
      1 C          -4.0658    1.5435   -0.4650 C.3     1  UNL1       -0.0203
      2 C          -3.4210    0.3234    0.1370 C.ar    1  UNL1        0.0660
      3 N          -4.0180   -0.7297    0.7171 N.ar    1  UNL1       -0.1752
      4 N          -3.0866   -1.5785    1.1095 N.ar    1  UNL1       -0.2556
      5 C          -3.2717   -2.8627    1.7896 C.3     1  UNL1        0.0537
      6 C          -4.2394   -3.8111    1.2018 C.3     1  UNL1       -0.0285
      7 C          -4.5841   -3.0880    2.4782 C.3     1  UNL1       -0.0285
      8 C          -1.8455   -1.1019    0.7944 C.ar    1  UNL1        0.1297
      9 C          -2.0417    0.1012    0.1800 C.ar    1  UNL1        0.0305
     10 C          -0.7097    0.6566   -0.1472 C.3     1  UNL1        0.0881
     11 C          -0.5656    2.0103    0.4111 C.ar    1  UNL1        0.0131
     12 C          -0.1546    2.2100    1.7075 C.ar    1  UNL1       -0.0523
     13 C          -0.0446    3.5076    2.2069 C.ar    1  UNL1       -0.0429
     14 C          -0.3512    4.5796    1.3906 C.ar    1  UNL1        0.0437
     15 CL         -0.2117    6.2061    2.0228 Cl      1  UNL1       -0.0835
     16 C          -0.7626    4.3791    0.0941 C.ar    1  UNL1       -0.0078
     17 C          -0.8687    3.0851   -0.3936 C.ar    1  UNL1        0.1300
     18 F          -1.2828    2.9357   -1.6917 F       1  UNL1       -0.2051
     19 N           0.2305   -0.3152    0.2150 N.am    1  UNL1       -0.2530
     20 C           1.6597   -0.3690    0.0238 C.ar    1  UNL1        0.0545
     21 C           2.5271    0.0743    0.9761 C.ar    1  UNL1       -0.0324
     22 C           3.8979   -0.0121    0.7050 C.ar    1  UNL1       -0.0041
     23 C           4.8683    0.4647    1.7277 C.3     1  UNL1       -0.0361
     24 C           4.3226   -0.5349   -0.4981 C.ar    1  UNL1        0.1641
     25 N           5.5674   -0.7189   -0.9825 N.ar    1  UNL1       -0.1292
     26 N           5.4441   -1.2621   -2.2010 N.ar    1  UNL1       -0.1340
     27 C           4.1435   -1.4253   -2.4969 C.ar    1  UNL1        0.1347
     28 C           3.6125   -1.9996   -3.7632 C.3     1  UNL1       -0.0041
     29 N           3.4666   -0.9681   -1.4277 N.ar    1  UNL1       -0.2846
     30 C           2.1510   -0.8852   -1.1678 C.ar    1  UNL1        0.0344
     31 C          -0.4200   -1.4000    0.8396 C.2     1  UNL1        0.2700
     32 O           0.0971   -2.4518    1.3550 O.2     1  UNL1       -0.2679
     33 H          -3.6936    2.4688   -0.0077 H       1  UNL1        0.0293
     34 H          -5.1573    1.4816   -0.1870 H       1  UNL1        0.0293
     35 H          -4.0167    1.5287   -1.5686 H       1  UNL1        0.0293
     36 H          -2.3925   -3.2926    2.3093 H       1  UNL1        0.0545
     37 H          -4.0140   -4.8958    1.2961 H       1  UNL1        0.0286
     38 H          -4.8249   -3.5735    0.2954 H       1  UNL1        0.0286
     39 H          -4.5869   -3.6692    3.4149 H       1  UNL1        0.0286
     40 H          -5.3058   -2.2666    2.3881 H       1  UNL1        0.0286
     41 H          -0.7020    0.7655   -1.2783 H       1  UNL1        0.0607
     42 H           0.0873    1.4053    2.3862 H       1  UNL1        0.0622
     43 H           0.2869    3.6394    3.2478 H       1  UNL1        0.0632
     44 H          -1.0010    5.2254   -0.5385 H       1  UNL1        0.0661
     45 H           2.1904    0.4759    1.9083 H       1  UNL1        0.0640
     46 H           5.8863    0.4022    1.3088 H       1  UNL1        0.0279
     47 H           4.6768    1.5426    1.9261 H       1  UNL1        0.0279
     48 H           4.7800   -0.1598    2.6375 H       1  UNL1        0.0279
     49 H           3.9878   -1.4324   -4.6525 H       1  UNL1        0.0308
     50 H           3.8280   -3.0813   -3.8649 H       1  UNL1        0.0308
     51 H           2.5061   -1.9036   -3.7844 H       1  UNL1        0.0308
     52 H           1.4225   -1.2240   -1.8915 H       1  UNL1        0.0833
@<TRIPOS>BOND
     1     1     2    1
     2     2     3   ar
     3     3     4   ar
     4     4     5    1
     5     5     6    1
     6     6     7    1
     7     4     8   ar
     8     8     9   ar
     9     9    10    1
    10    10    11    1
    11    11    12   ar
    12    12    13   ar
    13    13    14   ar
    14    14    15    1
    15    14    16   ar
    16    16    17   ar
    17    17    18    1
    18    10    19    1
    19    19    20    1
    20    20    21   ar
    21    21    22   ar
    22    22    23    1
    23    22    24   ar
    24    24    25   ar
    25    25    26   ar
    26    26    27   ar
    27    27    28    1
    28    27    29   ar
    29    29    30   ar
    30    19    31   am
    31    31    32    2
    32     9     2   ar
    33    17    11   ar
    34    30    20   ar
    35     7     5    1
    36    31     8    1
    37    29    24   ar
    38     1    33    1
    39     1    34    1
    40     1    35    1
    41     5    36    1
    42     6    37    1
    43     6    38    1
    44     7    39    1
    45     7    40    1
    46    10    41    1
    47    12    42    1
    48    13    43    1
    49    16    44    1
    50    21    45    1
    51    23    46    1
    52    23    47    1
    53    23    48    1
    54    28    49    1
    55    28    50    1
    56    28    51    1
    57    30    52    1
