
     RDKit          3D

110118  0  0  0  0  0  0  0  0999 V2000
   -3.8778    0.5185   -1.0428 C   0  0  2  0  0  0  0  0  0  0  0  0
   -4.1544   -0.0918   -2.2916 N   0  0  0  0  0  0  0  0  0  0  0  0
   -3.5936   -1.4031   -2.3597 C   0  0  0  0  0  0  0  0  0  0  0  0
   -3.4737   -1.8400   -0.9323 C   0  0  0  0  0  0  0  0  0  0  0  0
   -3.3969   -0.5698   -0.1585 C   0  0  1  0  0  0  0  0  0  0  0  0
   -1.9734   -0.4167    0.2856 C   0  0  0  0  0  0  0  0  0  0  0  0
   -1.9505   -0.0190    1.6094 C   0  0  0  0  0  0  0  0  0  0  0  0
   -0.7529    0.1897    2.2568 C   0  0  0  0  0  0  0  0  0  0  0  0
    0.4426    0.0043    1.5920 C   0  0  0  0  0  0  0  0  0  0  0  0
    1.6027    0.2226    2.2745 O   0  0  0  0  0  0  0  0  0  0  0  0
    1.5837    0.6279    3.6264 C   0  0  0  0  0  0  0  0  0  0  0  0
    0.5042   -0.3979    0.2493 C   0  0  0  0  0  0  0  0  0  0  0  0
   -0.7421   -0.5821   -0.3156 C   0  0  0  0  0  0  0  0  0  0  0  0
    1.7877   -0.5913   -0.4902 C   0  0  1  0  0  0  0  0  0  0  0  0
    2.4170    0.7159   -0.6741 C   0  0  0  0  0  0  0  0  0  0  0  0
    3.6475    0.8879   -1.4465 C   0  0  2  0  0  0  0  0  0  0  0  0
    4.7068   -0.1203   -1.5055 C   0  0  0  0  0  0  0  0  0  0  0  0
    5.9185    0.1351   -0.8152 N   0  0  0  0  0  0  0  0  0  0  0  0
    6.4654    1.4595   -1.0243 C   0  0  0  0  0  0  0  0  0  0  0  0
    5.5256    2.3913   -1.7422 C   0  0  2  0  0  0  0  0  0  0  0  0
    5.4732    2.0200   -3.0904 O   0  0  0  0  0  0  0  0  0  0  0  0
    6.1191    3.7815   -1.7066 C   0  0  0  0  0  0  0  0  0  0  0  0
    6.2831    4.2028   -0.2681 C   0  0  0  0  0  0  0  0  0  0  0  0
    4.2029    2.2806   -1.0660 C   0  0  0  0  0  0  0  0  0  0  0  0
    5.9453   -0.2963    0.5229 C   0  0  0  0  0  0  0  0  0  0  0  0
    4.7186   -0.4993    1.3089 C   0  0  0  0  0  0  0  0  0  0  0  0
    3.7992   -1.5748    0.8897 C   0  0  0  0  0  0  0  0  0  0  0  0
    2.6332   -1.6321    0.1833 C   0  0  0  0  0  0  0  0  0  0  0  0
    2.2010   -2.9045    0.1019 N   0  0  0  0  0  0  0  0  0  0  0  0
    3.0434   -3.7287    0.7366 C   0  0  0  0  0  0  0  0  0  0  0  0
    3.0478   -5.0924    0.9352 C   0  0  0  0  0  0  0  0  0  0  0  0
    4.0484   -5.7196    1.6379 C   0  0  0  0  0  0  0  0  0  0  0  0
    5.0716   -4.9623    2.1555 C   0  0  0  0  0  0  0  0  0  0  0  0
    5.0294   -3.6075    1.9350 C   0  0  0  0  0  0  0  0  0  0  0  0
    4.0366   -2.9168    1.2280 C   0  0  0  0  0  0  0  0  0  0  0  0
    1.3818   -1.0527   -1.8740 C   0  0  0  0  0  0  0  0  0  0  0  0
    1.5968   -0.3842   -2.9246 O   0  0  0  0  0  0  0  0  0  0  0  0
    0.7528   -2.1814   -2.3071 O   0  0  0  0  0  0  0  0  0  0  0  0
    0.5001   -2.3532   -3.6826 C   0  0  0  0  0  0  0  0  0  0  0  0
   -3.2923    0.1023    2.0606 N   0  0  0  0  0  0  0  0  0  0  0  0
   -3.6620    0.8859    3.2406 C   0  0  0  0  0  0  0  0  0  0  0  0
   -4.0978   -0.6494    1.1703 C   0  0  1  0  0  0  0  0  0  0  0  0
   -5.5398   -0.3639    1.1061 C   0  0  2  0  0  0  0  0  0  0  0  0
   -6.1302   -1.4027    0.3456 O   0  0  0  0  0  0  0  0  0  0  0  0
   -5.9114    0.9185    0.4306 C   0  0  2  0  0  0  0  0  0  0  0  0
   -7.1738    0.7663   -0.1494 O   0  0  0  0  0  0  0  0  0  0  0  0
   -4.8902    1.4636   -0.5090 C   0  0  1  0  0  0  0  0  0  0  0  0
   -4.2313    2.7406    0.0433 C   0  0  0  0  0  0  0  0  0  0  0  0
   -5.2267    3.7056    0.5898 C   0  0  0  0  0  0  0  0  0  0  0  0
   -5.6763    1.9992   -1.6648 C   0  0  0  0  0  0  0  0  0  0  0  0
   -6.0099    1.3323   -2.7905 C   0  0  0  0  0  0  0  0  0  0  0  0
   -5.4842   -0.0815   -2.7696 C   0  0  0  0  0  0  0  0  0  0  0  0
   -6.1572   -0.4946    2.4541 C   0  0  0  0  0  0  0  0  0  0  0  0
   -7.1330   -1.5018    2.7992 N   0  0  0  0  0  0  0  0  0  0  0  0
   -6.4410   -0.2818    3.6824 O   0  0  0  0  0  0  0  0  0  0  0  0
   -2.9577    1.1557   -1.2388 H   0  0  0  0  0  0  0  0  0  0  0  0
   -2.5945   -1.3031   -2.8374 H   0  0  0  0  0  0  0  0  0  0  0  0
   -4.2535   -2.0819   -2.9557 H   0  0  0  0  0  0  0  0  0  0  0  0
   -2.5699   -2.4961   -0.7699 H   0  0  0  0  0  0  0  0  0  0  0  0
   -4.3180   -2.4953   -0.6283 H   0  0  0  0  0  0  0  0  0  0  0  0
   -0.7352    0.5010    3.2921 H   0  0  0  0  0  0  0  0  0  0  0  0
    0.9695    1.5426    3.7784 H   0  0  0  0  0  0  0  0  0  0  0  0
    2.5833    0.8106    4.0368 H   0  0  0  0  0  0  0  0  0  0  0  0
    1.0707   -0.1660    4.2180 H   0  0  0  0  0  0  0  0  0  0  0  0
   -0.8170   -0.8806   -1.3345 H   0  0  0  0  0  0  0  0  0  0  0  0
    2.3777    1.2646    0.3212 H   0  0  0  0  0  0  0  0  0  0  0  0
    1.6155    1.3423   -1.2110 H   0  0  0  0  0  0  0  0  0  0  0  0
    3.3441    1.1099   -2.5241 H   0  0  0  0  0  0  0  0  0  0  0  0
    5.0777   -0.1956   -2.6004 H   0  0  0  0  0  0  0  0  0  0  0  0
    4.4201   -1.1645   -1.3410 H   0  0  0  0  0  0  0  0  0  0  0  0
    7.3403    1.3010   -1.7106 H   0  0  0  0  0  0  0  0  0  0  0  0
    6.9179    1.8832   -0.1095 H   0  0  0  0  0  0  0  0  0  0  0  0
    5.3109    2.8376   -3.6226 H   0  0  0  0  0  0  0  0  0  0  0  0
    5.4578    4.4945   -2.2537 H   0  0  0  0  0  0  0  0  0  0  0  0
    7.1239    3.7647   -2.1784 H   0  0  0  0  0  0  0  0  0  0  0  0
    5.4558    3.8945    0.3706 H   0  0  0  0  0  0  0  0  0  0  0  0
    7.2852    3.8710    0.0798 H   0  0  0  0  0  0  0  0  0  0  0  0
    6.3018    5.3261   -0.2437 H   0  0  0  0  0  0  0  0  0  0  0  0
    3.4806    3.0662   -1.3539 H   0  0  0  0  0  0  0  0  0  0  0  0
    4.3578    2.2433    0.0270 H   0  0  0  0  0  0  0  0  0  0  0  0
    6.4704   -1.3140    0.5081 H   0  0  0  0  0  0  0  0  0  0  0  0
    6.7112    0.3354    1.0536 H   0  0  0  0  0  0  0  0  0  0  0  0
    4.1836    0.4589    1.5612 H   0  0  0  0  0  0  0  0  0  0  0  0
    5.1203   -0.7223    2.3647 H   0  0  0  0  0  0  0  0  0  0  0  0
    1.3426   -3.3319   -0.3618 H   0  0  0  0  0  0  0  0  0  0  0  0
    2.2669   -5.7364    0.5499 H   0  0  0  0  0  0  0  0  0  0  0  0
    4.0320   -6.7859    1.7807 H   0  0  0  0  0  0  0  0  0  0  0  0
    5.8874   -5.3932    2.7167 H   0  0  0  0  0  0  0  0  0  0  0  0
    5.8389   -3.0271    2.3471 H   0  0  0  0  0  0  0  0  0  0  0  0
   -0.3306   -1.6897   -3.9972 H   0  0  0  0  0  0  0  0  0  0  0  0
    1.3784   -2.0120   -4.3023 H   0  0  0  0  0  0  0  0  0  0  0  0
    0.3688   -3.4144   -3.9522 H   0  0  0  0  0  0  0  0  0  0  0  0
   -2.8232    1.5886    3.5220 H   0  0  0  0  0  0  0  0  0  0  0  0
   -3.7873    0.2492    4.1454 H   0  0  0  0  0  0  0  0  0  0  0  0
   -4.5137    1.5693    3.0503 H   0  0  0  0  0  0  0  0  0  0  0  0
   -3.9916   -1.7301    1.4877 H   0  0  0  0  0  0  0  0  0  0  0  0
   -7.1128   -1.3454    0.4384 H   0  0  0  0  0  0  0  0  0  0  0  0
   -6.0721    1.6742    1.2306 H   0  0  0  0  0  0  0  0  0  0  0  0
   -7.9067    0.8193    0.4994 H   0  0  0  0  0  0  0  0  0  0  0  0
   -3.7221    3.2416   -0.8347 H   0  0  0  0  0  0  0  0  0  0  0  0
   -3.4293    2.5522    0.7467 H   0  0  0  0  0  0  0  0  0  0  0  0
   -5.1749    3.7784    1.7177 H   0  0  0  0  0  0  0  0  0  0  0  0
   -6.2681    3.5142    0.2588 H   0  0  0  0  0  0  0  0  0  0  0  0
   -4.9707    4.7309    0.2552 H   0  0  0  0  0  0  0  0  0  0  0  0
   -6.0749    3.0341   -1.7059 H   0  0  0  0  0  0  0  0  0  0  0  0
   -6.5817    1.7659   -3.5998 H   0  0  0  0  0  0  0  0  0  0  0  0
   -6.2033   -0.7573   -2.3200 H   0  0  0  0  0  0  0  0  0  0  0  0
   -5.4349   -0.3556   -3.8643 H   0  0  0  0  0  0  0  0  0  0  0  0
   -7.6589   -2.4128    2.9253 H   0  0  0  0  0  0  0  0  0  0  0  0
   -7.3022   -2.5485    2.7179 H   0  0  0  0  0  0  0  0  0  0  0  0
  1  2  1  0
  2  3  1  0
  3  4  1  0
  5  4  1  6
  5  6  1  0
  6  7  2  0
  7  8  1  0
  8  9  2  0
  9 10  1  0
 10 11  1  0
  9 12  1  0
 12 13  2  0
 12 14  1  0
 14 15  1  0
 15 16  1  0
 16 17  1  0
 17 18  1  0
 18 19  1  1
 19 20  1  0
 20 21  1  6
 20 22  1  0
 22 23  1  0
 20 24  1  0
 18 25  1  0
 25 26  1  0
 26 27  1  0
 27 28  2  0
 28 29  1  0
 29 30  1  0
 30 31  2  0
 31 32  1  0
 32 33  2  0
 33 34  1  0
 34 35  2  0
 14 36  1  6
 36 37  2  0
 36 38  1  0
 38 39  1  0
  7 40  1  0
 40 41  1  0
 40 42  1  0
 42 43  1  0
 43 44  1  6
 43 45  1  0
 45 46  1  0
 45 47  1  0
 47 48  1  1
 48 49  1  0
 47 50  1  0
 50 51  2  0
 51 52  1  0
 43 53  1  0
 53 54  1  0
 53 55  2  0
  5  1  1  0
 42  5  1  0
 47  1  1  0
 52  2  1  0
 13  6  1  0
 28 14  1  0
 35 30  1  0
 24 16  1  0
 35 27  1  0
  1 56  1  6
  3 57  1  0
  3 58  1  0
  4 59  1  0
  4 60  1  0
  8 61  1  0
 11 62  1  0
 11 63  1  0
 11 64  1  0
 13 65  1  0
 15 66  1  0
 15 67  1  0
 16 68  1  6
 17 69  1  0
 17 70  1  0
 19 71  1  0
 19 72  1  0
 21 73  1  0
 22 74  1  0
 22 75  1  0
 23 76  1  0
 23 77  1  0
 23 78  1  0
 24 79  1  0
 24 80  1  0
 25 81  1  0
 25 82  1  0
 26 83  1  0
 26 84  1  0
 29 85  1  0
 31 86  1  0
 32 87  1  0
 33 88  1  0
 34 89  1  0
 39 90  1  0
 39 91  1  0
 39 92  1  0
 41 93  1  0
 41 94  1  0
 41 95  1  0
 42 96  1  1
 44 97  1  0
 45 98  1  1
 46 99  1  0
 48100  1  0
 48101  1  0
 49102  1  0
 49103  1  0
 49104  1  0
 50105  1  0
 51106  1  0
 52107  1  0
 52108  1  0
 54109  1  0
 54110  1  0
M  END
$$$$
