
     RDKit          3D

 60 62  0  0  0  0  0  0  0  0999 V2000
   -7.7398    1.7833    0.8489 C   0  0  0  0  0  0  0  0  0  0  0  0
   -6.6572    0.7437    0.7723 C   0  0  0  0  0  0  0  0  0  0  0  0
   -6.2304    0.5923   -0.5526 O   0  0  0  0  0  0  0  0  0  0  0  0
   -5.0199   -0.5964   -0.6570 P   0  0  0  0  0  5  0  0  0  0  0  0
   -4.6343   -1.0141    0.7133 O   0  0  0  0  0  0  0  0  0  0  0  0
   -3.6376    0.0345   -1.6390 C   0  0  0  0  0  0  0  0  0  0  0  0
   -3.4420    1.4441   -1.5297 N   0  0  0  0  0  0  0  0  0  0  0  0
   -2.9693    1.9301   -0.2792 C   0  0  0  0  0  0  0  0  0  0  0  0
   -1.5777    1.5481    0.0484 C   0  0  0  0  0  0  0  0  0  0  0  0
   -0.5345    2.3651   -0.3635 C   0  0  0  0  0  0  0  0  0  0  0  0
    0.7913    2.0523   -0.0790 C   0  0  0  0  0  0  0  0  0  0  0  0
    1.0834    0.9087    0.6264 C   0  0  0  0  0  0  0  0  0  0  0  0
    2.4699    0.5223    0.9592 C   0  0  0  0  0  0  0  0  0  0  0  0
    2.6850   -0.5374    1.5994 O   0  0  0  0  0  0  0  0  0  0  0  0
    3.5980    1.2936    0.5907 N   0  0  0  0  0  0  0  0  0  0  0  0
    4.9218    0.8841    0.9313 C   0  0  0  0  0  0  0  0  0  0  0  0
    5.6358    0.0758    0.0470 C   0  0  0  0  0  0  0  0  0  0  0  0
    6.9128   -0.3446    0.3302 C   0  0  0  0  0  0  0  0  0  0  0  0
    7.6695   -1.1915   -0.5905 C   0  0  0  0  0  0  0  0  0  0  0  0
    7.3458   -1.7133   -1.8094 C   0  0  0  0  0  0  0  0  0  0  0  0
    8.2164   -2.4633   -2.4609 C   0  0  0  0  0  0  0  0  0  0  0  0
    9.4689   -2.7369   -1.9281 C   0  0  0  0  0  0  0  0  0  0  0  0
    9.3276   -1.7978   -0.3307 S   0  0  0  0  0  0  0  0  0  0  0  0
    7.4711    0.0551    1.5155 C   0  0  0  0  0  0  0  0  0  0  0  0
    6.7715    0.8546    2.3954 C   0  0  0  0  0  0  0  0  0  0  0  0
    5.4902    1.2722    2.1036 C   0  0  0  0  0  0  0  0  0  0  0  0
    4.7403    2.1016    2.9973 N   0  0  0  0  0  0  0  0  0  0  0  0
    0.0342    0.1110    1.0264 C   0  0  0  0  0  0  0  0  0  0  0  0
   -1.3044    0.4149    0.7464 C   0  0  0  0  0  0  0  0  0  0  0  0
   -5.6603   -1.9372   -1.5096 O   0  0  0  0  0  0  0  0  0  0  0  0
   -6.4005   -2.7171   -0.6038 C   0  0  0  0  0  0  0  0  0  0  0  0
   -6.9686   -3.9303   -1.2775 C   0  0  0  0  0  0  0  0  0  0  0  0
   -8.6420    1.4227    0.3297 H   0  0  0  0  0  0  0  0  0  0  0  0
   -7.9921    1.9965    1.9025 H   0  0  0  0  0  0  0  0  0  0  0  0
   -7.3939    2.7274    0.3474 H   0  0  0  0  0  0  0  0  0  0  0  0
   -7.0702   -0.1968    1.1701 H   0  0  0  0  0  0  0  0  0  0  0  0
   -5.7924    1.0090    1.3945 H   0  0  0  0  0  0  0  0  0  0  0  0
   -2.7103   -0.4625   -1.2409 H   0  0  0  0  0  0  0  0  0  0  0  0
   -3.7803   -0.2538   -2.7031 H   0  0  0  0  0  0  0  0  0  0  0  0
   -4.2946    1.9805   -1.7955 H   0  0  0  0  0  0  0  0  0  0  0  0
   -2.9837    3.0575   -0.3500 H   0  0  0  0  0  0  0  0  0  0  0  0
   -3.6380    1.6714    0.5764 H   0  0  0  0  0  0  0  0  0  0  0  0
   -0.7824    3.2431   -0.9070 H   0  0  0  0  0  0  0  0  0  0  0  0
    1.5850    2.7047   -0.4107 H   0  0  0  0  0  0  0  0  0  0  0  0
    3.4758    2.1760    0.0624 H   0  0  0  0  0  0  0  0  0  0  0  0
    5.1970   -0.2398   -0.8869 H   0  0  0  0  0  0  0  0  0  0  0  0
    6.3169   -1.4677   -2.2091 H   0  0  0  0  0  0  0  0  0  0  0  0
    8.0063   -2.9206   -3.4684 H   0  0  0  0  0  0  0  0  0  0  0  0
   10.3037   -3.2749   -2.2219 H   0  0  0  0  0  0  0  0  0  0  0  0
    8.4724   -0.2799    1.7277 H   0  0  0  0  0  0  0  0  0  0  0  0
    7.1992    1.1808    3.3400 H   0  0  0  0  0  0  0  0  0  0  0  0
    5.0758    3.0416    3.3141 H   0  0  0  0  0  0  0  0  0  0  0  0
    3.8058    1.8073    3.3853 H   0  0  0  0  0  0  0  0  0  0  0  0
    0.2522   -0.7885    1.5803 H   0  0  0  0  0  0  0  0  0  0  0  0
   -2.0818   -0.2438    1.0861 H   0  0  0  0  0  0  0  0  0  0  0  0
   -7.2724   -2.0744   -0.3084 H   0  0  0  0  0  0  0  0  0  0  0  0
   -5.8081   -3.0270    0.2713 H   0  0  0  0  0  0  0  0  0  0  0  0
   -7.2057   -3.6974   -2.3299 H   0  0  0  0  0  0  0  0  0  0  0  0
   -6.2372   -4.7801   -1.2982 H   0  0  0  0  0  0  0  0  0  0  0  0
   -7.8622   -4.3183   -0.7543 H   0  0  0  0  0  0  0  0  0  0  0  0
  1  2  1  0
  2  3  1  0
  3  4  1  0
  4  5  2  0
  4  6  1  0
  6  7  1  0
  7  8  1  0
  8  9  1  0
  9 10  2  0
 10 11  1  0
 11 12  2  0
 12 13  1  0
 13 14  2  0
 13 15  1  0
 15 16  1  0
 16 17  2  0
 17 18  1  0
 18 19  1  0
 19 20  2  0
 20 21  1  0
 21 22  2  0
 22 23  1  0
 18 24  2  0
 24 25  1  0
 25 26  2  0
 26 27  1  0
 12 28  1  0
 28 29  2  0
  4 30  1  0
 30 31  1  0
 31 32  1  0
 29  9  1  0
 26 16  1  0
 23 19  1  0
  1 33  1  0
  1 34  1  0
  1 35  1  0
  2 36  1  0
  2 37  1  0
  6 38  1  0
  6 39  1  0
  7 40  1  0
  8 41  1  0
  8 42  1  0
 10 43  1  0
 11 44  1  0
 15 45  1  0
 17 46  1  0
 20 47  1  0
 21 48  1  0
 22 49  1  0
 24 50  1  0
 25 51  1  0
 27 52  1  0
 27 53  1  0
 28 54  1  0
 29 55  1  0
 31 56  1  0
 31 57  1  0
 32 58  1  0
 32 59  1  0
 32 60  1  0
M  END
$$$$
