@<TRIPOS>MOLECULE
*****
 60 62 0 0 0
SMALL
GASTEIGER

@<TRIPOS>ATOM
      1 C          -7.7398    1.7833    0.8489 C.3     1  UNL1       -0.0411
      2 C          -6.6572    0.7437    0.7723 C.3     1  UNL1        0.0542
      3 O          -6.2304    0.5923   -0.5526 O.3     1  UNL1       -0.3073
      4 P          -5.0199   -0.5964   -0.6570 P.3     1  UNL1        0.3464
      5 O          -4.6343   -1.0141    0.7133 O.2     1  UNL1       -0.2571
      6 C          -3.6376    0.0345   -1.6390 C.3     1  UNL1        0.0994
      7 N          -3.4420    1.4441   -1.5297 N.3     1  UNL1       -0.3019
      8 C          -2.9693    1.9301   -0.2792 C.3     1  UNL1        0.0218
      9 C          -1.5777    1.5481    0.0484 C.ar    1  UNL1       -0.0335
     10 C          -0.5345    2.3651   -0.3635 C.ar    1  UNL1       -0.0566
     11 C           0.7913    2.0523   -0.0790 C.ar    1  UNL1       -0.0493
     12 C           1.0834    0.9087    0.6264 C.ar    1  UNL1        0.0370
     13 C           2.4699    0.5223    0.9592 C.2     1  UNL1        0.2483
     14 O           2.6850   -0.5374    1.5994 O.2     1  UNL1       -0.2699
     15 N           3.5980    1.2936    0.5907 N.am    1  UNL1       -0.2799
     16 C           4.9218    0.8841    0.9313 C.ar    1  UNL1        0.0551
     17 C           5.6358    0.0758    0.0470 C.ar    1  UNL1       -0.0305
     18 C           6.9128   -0.3446    0.3302 C.ar    1  UNL1       -0.0094
     19 C           7.6695   -1.1915   -0.5905 C.ar    1  UNL1        0.0194
     20 C           7.3458   -1.7133   -1.8094 C.ar    1  UNL1       -0.0469
     21 C           8.2164   -2.4633   -2.4609 C.ar    1  UNL1       -0.0541
     22 C           9.4689   -2.7369   -1.9281 C.ar    1  UNL1       -0.0237
     23 S           9.3276   -1.7978   -0.3307 S.2     1  UNL1       -0.0967
     24 C           7.4711    0.0551    1.5155 C.ar    1  UNL1       -0.0517
     25 C           6.7715    0.8546    2.3954 C.ar    1  UNL1       -0.0386
     26 C           5.4902    1.2722    2.1036 C.ar    1  UNL1        0.0461
     27 N           4.7403    2.1016    2.9973 N.pl3   1  UNL1       -0.3565
     28 C           0.0342    0.1110    1.0264 C.ar    1  UNL1       -0.0493
     29 C          -1.3044    0.4149    0.7464 C.ar    1  UNL1       -0.0566
     30 O          -5.6603   -1.9372   -1.5096 O.3     1  UNL1       -0.3073
     31 C          -6.4005   -2.7171   -0.6038 C.3     1  UNL1        0.0542
     32 C          -6.9686   -3.9303   -1.2775 C.3     1  UNL1       -0.0411
     33 H          -8.6420    1.4227    0.3297 H       1  UNL1        0.0252
     34 H          -7.9921    1.9965    1.9025 H       1  UNL1        0.0252
     35 H          -7.3939    2.7274    0.3474 H       1  UNL1        0.0252
     36 H          -7.0702   -0.1968    1.1701 H       1  UNL1        0.0562
     37 H          -5.7924    1.0090    1.3945 H       1  UNL1        0.0562
     38 H          -2.7103   -0.4625   -1.2409 H       1  UNL1        0.0550
     39 H          -3.7803   -0.2538   -2.7031 H       1  UNL1        0.0550
     40 H          -4.2946    1.9805   -1.7955 H       1  UNL1        0.1228
     41 H          -2.9837    3.0575   -0.3500 H       1  UNL1        0.0474
     42 H          -3.6380    1.6714    0.5764 H       1  UNL1        0.0474
     43 H          -0.7824    3.2431   -0.9070 H       1  UNL1        0.0621
     44 H           1.5850    2.7047   -0.4107 H       1  UNL1        0.0625
     45 H           3.4758    2.1760    0.0624 H       1  UNL1        0.1552
     46 H           5.1970   -0.2398   -0.8869 H       1  UNL1        0.0643
     47 H           6.3169   -1.4677   -2.2091 H       1  UNL1        0.0629
     48 H           8.0063   -2.9206   -3.4684 H       1  UNL1        0.0623
     49 H          10.3037   -3.2749   -2.2219 H       1  UNL1        0.0693
     50 H           8.4724   -0.2799    1.7277 H       1  UNL1        0.0624
     51 H           7.1992    1.1808    3.3400 H       1  UNL1        0.0637
     52 H           5.0758    3.0416    3.3141 H       1  UNL1        0.1424
     53 H           3.8058    1.8073    3.3853 H       1  UNL1        0.1424
     54 H           0.2522   -0.7885    1.5803 H       1  UNL1        0.0625
     55 H          -2.0818   -0.2438    1.0861 H       1  UNL1        0.0621
     56 H          -7.2724   -2.0744   -0.3084 H       1  UNL1        0.0562
     57 H          -5.8081   -3.0270    0.2713 H       1  UNL1        0.0562
     58 H          -7.2057   -3.6974   -2.3299 H       1  UNL1        0.0252
     59 H          -6.2372   -4.7801   -1.2982 H       1  UNL1        0.0252
     60 H          -7.8622   -4.3183   -0.7543 H       1  UNL1        0.0252
@<TRIPOS>BOND
     1     1     2    1
     2     2     3    1
     3     3     4    1
     4     4     5    2
     5     4     6    1
     6     6     7    1
     7     7     8    1
     8     8     9    1
     9     9    10   ar
    10    10    11   ar
    11    11    12   ar
    12    12    13    1
    13    13    14    2
    14    13    15   am
    15    15    16    1
    16    16    17   ar
    17    17    18   ar
    18    18    19    1
    19    19    20   ar
    20    20    21   ar
    21    21    22   ar
    22    22    23   ar
    23    18    24   ar
    24    24    25   ar
    25    25    26   ar
    26    26    27    1
    27    12    28   ar
    28    28    29   ar
    29     4    30    1
    30    30    31    1
    31    31    32    1
    32    29     9   ar
    33    26    16   ar
    34    23    19   ar
    35     1    33    1
    36     1    34    1
    37     1    35    1
    38     2    36    1
    39     2    37    1
    40     6    38    1
    41     6    39    1
    42     7    40    1
    43     8    41    1
    44     8    42    1
    45    10    43    1
    46    11    44    1
    47    15    45    1
    48    17    46    1
    49    20    47    1
    50    21    48    1
    51    22    49    1
    52    24    50    1
    53    25    51    1
    54    27    52    1
    55    27    53    1
    56    28    54    1
    57    29    55    1
    58    31    56    1
    59    31    57    1
    60    32    58    1
    61    32    59    1
    62    32    60    1
