@<TRIPOS>MOLECULE
*****
 43 46 0 0 0
SMALL
GASTEIGER

@<TRIPOS>ATOM
      1 C           1.0376   -2.0450   -0.6601 C.3     1  UNL1        0.0291
      2 N           0.7093   -0.6883   -0.2313 N.ar    1  UNL1       -0.2830
      3 C          -0.4943   -0.1129   -0.3636 C.ar    1  UNL1        0.0511
      4 C          -0.4236    1.1656    0.1527 C.ar    1  UNL1        0.0437
      5 C           0.8864    1.3103    0.5955 C.ar    1  UNL1        0.2756
      6 O           1.3120    2.3797    1.1357 O.2     1  UNL1       -0.2655
      7 N           1.5340    0.1680    0.3441 N.ar    1  UNL1       -0.2155
      8 C           2.9108   -0.0451    0.6679 C.ar    1  UNL1        0.0856
      9 C           3.3146   -1.1274    1.4392 C.ar    1  UNL1       -0.0348
     10 C           4.6399   -1.3440    1.7586 C.ar    1  UNL1       -0.0597
     11 C           5.5998   -0.4512    1.2938 C.ar    1  UNL1       -0.0603
     12 C           5.2374    0.6379    0.5236 C.ar    1  UNL1       -0.0413
     13 C           3.9089    0.8052    0.2365 C.ar    1  UNL1        0.0664
     14 CL          3.4473    2.1953   -0.7465 Cl      1  UNL1       -0.0813
     15 C          -1.7594    1.7779   -0.0058 C.3     1  UNL1       -0.0029
     16 C          -1.9815    1.9749   -1.4838 C.3     1  UNL1       -0.0446
     17 C          -2.0958    0.5510   -2.0478 C.3     1  UNL1       -0.0411
     18 C          -1.8956   -0.2984   -0.8478 C.3     1  UNL1        0.0158
     19 C          -2.3340   -1.6884   -0.9261 C.3     1  UNL1       -0.0536
     20 C          -2.6294    0.5296    0.2223 C.3     1  UNL1       -0.0171
     21 C          -2.3916   -0.0699    1.5654 C.3     1  UNL1       -0.0584
     22 C          -4.0554    0.7629   -0.1239 C.3     1  UNL1       -0.0584
     23 H           0.5170   -2.2381   -1.6058 H       1  UNL1        0.0472
     24 H           2.1368   -2.1063   -0.8450 H       1  UNL1        0.0472
     25 H           0.7457   -2.7613    0.1314 H       1  UNL1        0.0472
     26 H           2.5673   -1.8130    1.7947 H       1  UNL1        0.0639
     27 H           4.9671   -2.1887    2.3621 H       1  UNL1        0.0618
     28 H           6.6430   -0.5733    1.5131 H       1  UNL1        0.0618
     29 H           5.9715    1.3437    0.1529 H       1  UNL1        0.0633
     30 H          -1.9848    2.5978    0.6335 H       1  UNL1        0.0357
     31 H          -1.0566    2.4237   -1.9047 H       1  UNL1        0.0272
     32 H          -2.8357    2.5941   -1.7361 H       1  UNL1        0.0272
     33 H          -3.0641    0.3931   -2.5522 H       1  UNL1        0.0274
     34 H          -1.2532    0.3499   -2.7674 H       1  UNL1        0.0274
     35 H          -1.8895   -2.2802   -0.1107 H       1  UNL1        0.0239
     36 H          -3.4370   -1.7455   -0.7889 H       1  UNL1        0.0239
     37 H          -2.1302   -2.0985   -1.9337 H       1  UNL1        0.0239
     38 H          -3.1973   -0.7870    1.7774 H       1  UNL1        0.0235
     39 H          -1.4486   -0.6857    1.5002 H       1  UNL1        0.0235
     40 H          -2.3029    0.6848    2.3766 H       1  UNL1        0.0235
     41 H          -4.6603    0.7175    0.8290 H       1  UNL1        0.0235
     42 H          -4.2689    1.7763   -0.5367 H       1  UNL1        0.0235
     43 H          -4.4969    0.0090   -0.7883 H       1  UNL1        0.0235
@<TRIPOS>BOND
     1     1     2    1
     2     2     3   ar
     3     3     4   ar
     4     4     5   ar
     5     5     6    2
     6     5     7   ar
     7     7     8    1
     8     8     9   ar
     9     9    10   ar
    10    10    11   ar
    11    11    12   ar
    12    12    13   ar
    13    13    14    1
    14     4    15    1
    15    15    16    1
    16    16    17    1
    17    17    18    1
    18    18    19    1
    19    18    20    1
    20    20    21    1
    21    20    22    1
    22     7     2   ar
    23    13     8   ar
    24    20    15    1
    25    18     3    1
    26     1    23    1
    27     1    24    1
    28     1    25    1
    29     9    26    1
    30    10    27    1
    31    11    28    1
    32    12    29    1
    33    15    30    1
    34    16    31    1
    35    16    32    1
    36    17    33    1
    37    17    34    1
    38    19    35    1
    39    19    36    1
    40    19    37    1
    41    21    38    1
    42    21    39    1
    43    21    40    1
    44    22    41    1
    45    22    42    1
    46    22    43    1
