
     RDKit          3D

 43 46  0  0  0  0  0  0  0  0999 V2000
    1.0376   -2.0450   -0.6601 C   0  0  0  0  0  0  0  0  0  0  0  0
    0.7093   -0.6883   -0.2313 N   0  0  0  0  0  0  0  0  0  0  0  0
   -0.4943   -0.1129   -0.3636 C   0  0  0  0  0  0  0  0  0  0  0  0
   -0.4236    1.1656    0.1527 C   0  0  0  0  0  0  0  0  0  0  0  0
    0.8864    1.3103    0.5955 C   0  0  0  0  0  0  0  0  0  0  0  0
    1.3120    2.3797    1.1357 O   0  0  0  0  0  0  0  0  0  0  0  0
    1.5340    0.1680    0.3441 N   0  0  0  0  0  0  0  0  0  0  0  0
    2.9108   -0.0451    0.6679 C   0  0  0  0  0  0  0  0  0  0  0  0
    3.3146   -1.1274    1.4392 C   0  0  0  0  0  0  0  0  0  0  0  0
    4.6399   -1.3440    1.7586 C   0  0  0  0  0  0  0  0  0  0  0  0
    5.5998   -0.4512    1.2938 C   0  0  0  0  0  0  0  0  0  0  0  0
    5.2374    0.6379    0.5236 C   0  0  0  0  0  0  0  0  0  0  0  0
    3.9089    0.8052    0.2365 C   0  0  0  0  0  0  0  0  0  0  0  0
    3.4473    2.1953   -0.7465 Cl  0  0  0  0  0  0  0  0  0  0  0  0
   -1.7594    1.7779   -0.0058 C   0  0  1  0  0  0  0  0  0  0  0  0
   -1.9815    1.9749   -1.4838 C   0  0  0  0  0  0  0  0  0  0  0  0
   -2.0958    0.5510   -2.0478 C   0  0  0  0  0  0  0  0  0  0  0  0
   -1.8956   -0.2984   -0.8478 C   0  0  1  0  0  0  0  0  0  0  0  0
   -2.3340   -1.6884   -0.9261 C   0  0  0  0  0  0  0  0  0  0  0  0
   -2.6294    0.5296    0.2223 C   0  0  0  0  0  0  0  0  0  0  0  0
   -2.3916   -0.0699    1.5654 C   0  0  0  0  0  0  0  0  0  0  0  0
   -4.0554    0.7629   -0.1239 C   0  0  0  0  0  0  0  0  0  0  0  0
    0.5170   -2.2381   -1.6058 H   0  0  0  0  0  0  0  0  0  0  0  0
    2.1368   -2.1063   -0.8450 H   0  0  0  0  0  0  0  0  0  0  0  0
    0.7457   -2.7613    0.1314 H   0  0  0  0  0  0  0  0  0  0  0  0
    2.5673   -1.8130    1.7947 H   0  0  0  0  0  0  0  0  0  0  0  0
    4.9671   -2.1887    2.3621 H   0  0  0  0  0  0  0  0  0  0  0  0
    6.6430   -0.5733    1.5131 H   0  0  0  0  0  0  0  0  0  0  0  0
    5.9715    1.3437    0.1529 H   0  0  0  0  0  0  0  0  0  0  0  0
   -1.9848    2.5978    0.6335 H   0  0  0  0  0  0  0  0  0  0  0  0
   -1.0566    2.4237   -1.9047 H   0  0  0  0  0  0  0  0  0  0  0  0
   -2.8357    2.5941   -1.7361 H   0  0  0  0  0  0  0  0  0  0  0  0
   -3.0641    0.3931   -2.5522 H   0  0  0  0  0  0  0  0  0  0  0  0
   -1.2532    0.3499   -2.7674 H   0  0  0  0  0  0  0  0  0  0  0  0
   -1.8895   -2.2802   -0.1107 H   0  0  0  0  0  0  0  0  0  0  0  0
   -3.4370   -1.7455   -0.7889 H   0  0  0  0  0  0  0  0  0  0  0  0
   -2.1302   -2.0985   -1.9337 H   0  0  0  0  0  0  0  0  0  0  0  0
   -3.1973   -0.7870    1.7774 H   0  0  0  0  0  0  0  0  0  0  0  0
   -1.4486   -0.6857    1.5002 H   0  0  0  0  0  0  0  0  0  0  0  0
   -2.3029    0.6848    2.3766 H   0  0  0  0  0  0  0  0  0  0  0  0
   -4.6603    0.7175    0.8290 H   0  0  0  0  0  0  0  0  0  0  0  0
   -4.2689    1.7763   -0.5367 H   0  0  0  0  0  0  0  0  0  0  0  0
   -4.4969    0.0090   -0.7883 H   0  0  0  0  0  0  0  0  0  0  0  0
  1  2  1  0
  2  3  1  0
  3  4  2  0
  4  5  1  0
  5  6  2  0
  5  7  1  0
  7  8  1  0
  8  9  2  0
  9 10  1  0
 10 11  2  0
 11 12  1  0
 12 13  2  0
 13 14  1  0
  4 15  1  0
 15 16  1  0
 16 17  1  0
 17 18  1  0
 18 19  1  6
 18 20  1  0
 20 21  1  0
 20 22  1  0
  7  2  1  0
 13  8  1  0
 20 15  1  0
 18  3  1  0
  1 23  1  0
  1 24  1  0
  1 25  1  0
  9 26  1  0
 10 27  1  0
 11 28  1  0
 12 29  1  0
 15 30  1  1
 16 31  1  0
 16 32  1  0
 17 33  1  0
 17 34  1  0
 19 35  1  0
 19 36  1  0
 19 37  1  0
 21 38  1  0
 21 39  1  0
 21 40  1  0
 22 41  1  0
 22 42  1  0
 22 43  1  0
M  END
$$$$
