@<TRIPOS>MOLECULE
*****
 67 70 0 0 0
SMALL
GASTEIGER

@<TRIPOS>ATOM
      1 C           8.6353   -3.3363   -1.0381 C.3     1  UNL1       -0.0306
      2 C           7.5288   -2.3661   -0.7309 C.3     1  UNL1        0.0884
      3 O           6.2610   -2.8453   -1.1501 O.3     1  UNL1       -0.4766
      4 C           5.1045   -2.0930   -0.9644 C.ar    1  UNL1        0.2147
      5 C           3.8857   -2.5680   -1.3735 C.ar    1  UNL1        0.0006
      6 C           2.7374   -1.8150   -1.1883 C.ar    1  UNL1       -0.0476
      7 C           2.8138   -0.5783   -0.5887 C.ar    1  UNL1        0.0005
      8 C           1.5980    0.2235   -0.3934 C.ar    1  UNL1       -0.0161
      9 C           1.6998    1.5812   -0.4193 C.ar    1  UNL1       -0.0534
     10 C           0.5546    2.3612   -0.2284 C.ar    1  UNL1       -0.0530
     11 C          -0.6457    1.7235   -0.0196 C.ar    1  UNL1       -0.0097
     12 C          -1.8704    2.5177    0.1833 C.ar    1  UNL1        0.0244
     13 C          -2.6984    2.8780   -0.8676 C.ar    1  UNL1       -0.0470
     14 C          -3.8493    3.6083   -0.6764 C.ar    1  UNL1       -0.0411
     15 C          -4.7414    3.9919   -1.8197 C.3     1  UNL1        0.0121
     16 C          -4.3653    5.3109   -2.3554 C.2     1  UNL1        0.0460
     17 O          -3.4101    5.9406   -1.8381 O.co2   1  UNL1       -0.5495
     18 O          -5.0498    5.8552   -3.4151 O.co2   1  UNL1       -0.5495
     19 C          -4.1680    3.9824    0.6117 C.ar    1  UNL1       -0.0547
     20 C          -3.3356    3.6195    1.6613 C.ar    1  UNL1       -0.0191
     21 C          -2.1762    2.8855    1.4798 C.ar    1  UNL1        0.1278
     22 O          -1.3518    2.5279    2.5348 O.3     1  UNL1       -0.4945
     23 C          -1.7328    2.9464    3.8515 C.3     1  UNL1        0.0788
     24 C          -0.7741    0.3540    0.0102 C.ar    1  UNL1       -0.0217
     25 C          -2.0997   -0.2455    0.2622 C.3     1  UNL1        0.0403
     26 N          -2.0342   -1.5413    0.9132 N.am    1  UNL1       -0.2972
     27 C          -2.0207   -1.6991    2.3380 C.3     1  UNL1        0.0122
     28 C          -0.5886   -1.6433    2.8437 C.3     1  UNL1       -0.0493
     29 C          -1.9737   -2.6813    0.0804 C.2     1  UNL1        0.2189
     30 O          -1.9138   -3.8148    0.6059 O.2     1  UNL1       -0.2753
     31 C          -1.9790   -2.6394   -1.4048 C.3     1  UNL1        0.0358
     32 C          -1.3890   -3.8106   -2.1882 C.3     1  UNL1       -0.0412
     33 C          -2.8589   -3.6739   -2.0847 C.3     1  UNL1       -0.0412
     34 C           0.3733   -0.3958   -0.1811 C.ar    1  UNL1       -0.0487
     35 C           4.0504   -0.1266   -0.1881 C.ar    1  UNL1        0.0391
     36 N           5.1395   -0.8823   -0.3833 N.ar    1  UNL1       -0.2207
     37 H           9.4624   -2.8173   -1.6097 H       1  UNL1        0.0262
     38 H           8.2178   -4.1740   -1.6363 H       1  UNL1        0.0262
     39 H           9.0562   -3.7939   -0.1202 H       1  UNL1        0.0262
     40 H           7.5496   -2.1245    0.3554 H       1  UNL1        0.0694
     41 H           7.7477   -1.4031   -1.2498 H       1  UNL1        0.0694
     42 H           3.7643   -3.5364   -1.8514 H       1  UNL1        0.0671
     43 H           1.7848   -2.2310   -1.5324 H       1  UNL1        0.0626
     44 H           2.6452    2.0733   -0.5844 H       1  UNL1        0.0624
     45 H           0.6375    3.4493   -0.2493 H       1  UNL1        0.0624
     46 H          -2.4473    2.5825   -1.8840 H       1  UNL1        0.0628
     47 H          -4.6355    3.2078   -2.6021 H       1  UNL1        0.0373
     48 H          -5.8058    4.0216   -1.5233 H       1  UNL1        0.0373
     49 H          -5.0686    4.5590    0.7983 H       1  UNL1        0.0622
     50 H          -3.5775    3.9083    2.6829 H       1  UNL1        0.0654
     51 H          -0.9445    2.7411    4.5780 H       1  UNL1        0.0660
     52 H          -1.8469    4.0712    3.8216 H       1  UNL1        0.0660
     53 H          -2.7282    2.5689    4.1387 H       1  UNL1        0.0660
     54 H          -2.6931   -0.2890   -0.6507 H       1  UNL1        0.0514
     55 H          -2.6231    0.4374    0.9940 H       1  UNL1        0.0514
     56 H          -2.4113   -2.7347    2.5517 H       1  UNL1        0.0462
     57 H          -2.6227   -0.9625    2.8864 H       1  UNL1        0.0462
     58 H           0.0963   -2.1658    2.1126 H       1  UNL1        0.0245
     59 H          -0.4616   -2.2442    3.7900 H       1  UNL1        0.0245
     60 H          -0.2502   -0.5984    3.0206 H       1  UNL1        0.0245
     61 H          -1.9709   -1.6338   -1.9150 H       1  UNL1        0.0394
     62 H          -0.8636   -4.5794   -1.5848 H       1  UNL1        0.0273
     63 H          -0.9340   -3.6024   -3.1836 H       1  UNL1        0.0273
     64 H          -3.4550   -3.3278   -2.9545 H       1  UNL1        0.0273
     65 H          -3.4450   -4.3543   -1.4264 H       1  UNL1        0.0273
     66 H           0.3376   -1.4562   -0.1665 H       1  UNL1        0.0627
     67 H           4.1301    0.8567    0.2905 H       1  UNL1        0.0837
@<TRIPOS>UNITY_ATOM_ATTR
18 1
charge -1
@<TRIPOS>BOND
     1     1     2    1
     2     2     3    1
     3     3     4    1
     4     4     5   ar
     5     5     6   ar
     6     6     7   ar
     7     7     8    1
     8     8     9   ar
     9     9    10   ar
    10    10    11   ar
    11    11    12    1
    12    12    13   ar
    13    13    14   ar
    14    14    15    1
    15    15    16    1
    16    16    17   ar
    17    16    18   ar
    18    14    19   ar
    19    19    20   ar
    20    20    21   ar
    21    21    22    1
    22    22    23    1
    23    11    24   ar
    24    24    25    1
    25    25    26    1
    26    26    27    1
    27    27    28    1
    28    26    29   am
    29    29    30    2
    30    29    31    1
    31    31    32    1
    32    32    33    1
    33    24    34   ar
    34     7    35   ar
    35    35    36   ar
    36    36     4   ar
    37    34     8   ar
    38    21    12   ar
    39    33    31    1
    40     1    37    1
    41     1    38    1
    42     1    39    1
    43     2    40    1
    44     2    41    1
    45     5    42    1
    46     6    43    1
    47     9    44    1
    48    10    45    1
    49    13    46    1
    50    15    47    1
    51    15    48    1
    52    19    49    1
    53    20    50    1
    54    23    51    1
    55    23    52    1
    56    23    53    1
    57    25    54    1
    58    25    55    1
    59    27    56    1
    60    27    57    1
    61    28    58    1
    62    28    59    1
    63    28    60    1
    64    31    61    1
    65    32    62    1
    66    32    63    1
    67    33    64    1
    68    33    65    1
    69    34    66    1
    70    35    67    1
