@<TRIPOS>MOLECULE
*****
 60 59 0 0 0
SMALL
GASTEIGER

@<TRIPOS>ATOM
      1 C          -0.8098    6.0329    0.3685 C.3     1  UNL1       -0.0653
      2 C          -1.6348    4.8029   -0.0209 C.3     1  UNL1       -0.0555
      3 C          -0.6758    3.6676   -0.1027 C.3     1  UNL1       -0.0465
      4 C          -1.2853    2.3454   -0.4995 C.3     1  UNL1        0.0056
      5 C          -0.2360    1.2957   -0.5381 C.ar    1  UNL1        0.1108
      6 N           1.0646    1.5433   -0.2238 N.ar    1  UNL1       -0.2323
      7 C           1.7867    0.4177   -0.3668 C.ar    1  UNL1        0.0899
      8 C           3.1177    0.1036   -0.1817 C.ar    1  UNL1       -0.0271
      9 C           3.5912   -1.1661   -0.4064 C.ar    1  UNL1       -0.0227
     10 C           4.9771   -1.5341   -0.1912 C.2     1  UNL1       -0.0496
     11 C           5.8816   -0.7007    0.2687 C.2     1  UNL1        0.0027
     12 C           7.2796   -1.0128    0.5041 C.2     1  UNL1        0.2593
     13 O           8.0336   -0.1172    0.9485 O.2     1  UNL1       -0.2687
     14 N           7.8073   -2.2830    0.2495 N.am    1  UNL1       -0.1940
     15 O           9.1277   -2.5511    0.4815 O.3     1  UNL1       -0.2949
     16 C           2.7237   -2.1797   -0.8341 C.ar    1  UNL1       -0.0525
     17 C           1.4019   -1.8601   -1.0147 C.ar    1  UNL1       -0.0355
     18 C           0.9270   -0.5755   -0.7849 C.ar    1  UNL1        0.0689
     19 N          -0.2728    0.0103   -0.8687 N.ar    1  UNL1       -0.3263
     20 C          -1.4910   -0.6910   -1.2781 C.3     1  UNL1        0.0377
     21 C          -2.0527   -1.2689    0.0023 C.3     1  UNL1        0.0169
     22 N          -3.2244   -2.0151   -0.2622 N.3     1  UNL1       -0.3012
     23 C          -3.6682   -2.6415    0.9736 C.3     1  UNL1       -0.0039
     24 C          -4.8957   -3.4877    0.8124 C.3     1  UNL1       -0.0524
     25 C          -4.2666   -1.3459   -0.9529 C.3     1  UNL1       -0.0039
     26 C          -4.9268   -0.2278   -0.1614 C.3     1  UNL1       -0.0524
     27 CL          0.6901    0.0000    0.0000 Cl      2  UNL2       -0.1454
     28 CL          0.6860    0.0000    0.0000 Cl      3  UNL3       -0.1454
     29 H          -1.4035    6.6148    1.0771 H       1  UNL1        0.0230
     30 H           0.1388    5.7278    0.8513 H       1  UNL1        0.0230
     31 H          -0.5958    6.6015   -0.5741 H       1  UNL1        0.0230
     32 H          -2.1672    5.0002   -0.9679 H       1  UNL1        0.0263
     33 H          -2.3953    4.5917    0.7607 H       1  UNL1        0.0263
     34 H          -0.0695    3.5180    0.7909 H       1  UNL1        0.0269
     35 H           0.0595    3.9250   -0.9248 H       1  UNL1        0.0269
     36 H          -1.9191    2.3863   -1.4004 H       1  UNL1        0.0343
     37 H          -1.9890    2.0461    0.3335 H       1  UNL1        0.0343
     38 H           3.7449    0.9231    0.1472 H       1  UNL1        0.0645
     39 H           5.3439   -2.5403   -0.4033 H       1  UNL1        0.0625
     40 H           5.5208    0.3211    0.4887 H       1  UNL1        0.0670
     41 H           7.2218   -3.0609   -0.1204 H       1  UNL1        0.1825
     42 H           9.5572   -1.6981    0.7304 H       1  UNL1        0.2414
     43 H           3.1426   -3.1557   -0.9960 H       1  UNL1        0.0624
     44 H           0.7101   -2.6260   -1.3482 H       1  UNL1        0.0639
     45 H          -2.1787    0.0181   -1.7606 H       1  UNL1        0.0505
     46 H          -1.2563   -1.4681   -2.0221 H       1  UNL1        0.0505
     47 H          -2.1724   -0.4837    0.7834 H       1  UNL1        0.0444
     48 H          -1.3030   -1.9806    0.4671 H       1  UNL1        0.0444
     49 H          -3.7288   -1.8885    1.7710 H       1  UNL1        0.0424
     50 H          -2.8206   -3.3338    1.2571 H       1  UNL1        0.0424
     51 H          -5.7744   -2.8811    1.0425 H       1  UNL1        0.0242
     52 H          -4.9016   -3.8552   -0.2472 H       1  UNL1        0.0242
     53 H          -4.7916   -4.3813    1.4638 H       1  UNL1        0.0242
     54 H          -3.8913   -0.9119   -1.8907 H       1  UNL1        0.0424
     55 H          -5.0462   -2.0832   -1.2756 H       1  UNL1        0.0424
     56 H          -4.4317    0.7181   -0.4401 H       1  UNL1        0.0242
     57 H          -5.9835   -0.1451   -0.5307 H       1  UNL1        0.0242
     58 H          -4.9002   -0.4596    0.9213 H       1  UNL1        0.0242
     59 H          -0.6901    0.0000    0.0000 H       1  UNL1        0.1454
     60 H          -0.6860    0.0000    0.0000 H       2  UNL2        0.1454
@<TRIPOS>BOND
     1     1     2    1
     2     2     3    1
     3     3     4    1
     4     4     5    1
     5     5     6   ar
     6     6     7   ar
     7     7     8   ar
     8     8     9   ar
     9     9    10    1
    10    10    11    2
    11    11    12    1
    12    12    13    2
    13    12    14   am
    14    14    15    1
    15     9    16   ar
    16    16    17   ar
    17    17    18   ar
    18    18    19   ar
    19    19    20    1
    20    20    21    1
    21    21    22    1
    22    22    23    1
    23    23    24    1
    24    22    25    1
    25    25    26    1
    26    19     5   ar
    27    18     7   ar
    28     1    29    1
    29     1    30    1
    30     1    31    1
    31     2    32    1
    32     2    33    1
    33     3    34    1
    34     3    35    1
    35     4    36    1
    36     4    37    1
    37     8    38    1
    38    10    39    1
    39    11    40    1
    40    14    41    1
    41    15    42    1
    42    16    43    1
    43    17    44    1
    44    20    45    1
    45    20    46    1
    46    21    47    1
    47    21    48    1
    48    23    49    1
    49    23    50    1
    50    24    51    1
    51    24    52    1
    52    24    53    1
    53    25    54    1
    54    25    55    1
    55    26    56    1
    56    26    57    1
    57    26    58    1
    58    27    59    1
    59    28    60    1
