
     RDKit          3D

 60 59  0  0  0  0  0  0  0  0999 V2000
   -0.8098    6.0329    0.3685 C   0  0  0  0  0  0  0  0  0  0  0  0
   -1.6348    4.8029   -0.0209 C   0  0  0  0  0  0  0  0  0  0  0  0
   -0.6758    3.6676   -0.1027 C   0  0  0  0  0  0  0  0  0  0  0  0
   -1.2853    2.3454   -0.4995 C   0  0  0  0  0  0  0  0  0  0  0  0
   -0.2360    1.2957   -0.5381 C   0  0  0  0  0  0  0  0  0  0  0  0
    1.0646    1.5433   -0.2238 N   0  0  0  0  0  0  0  0  0  0  0  0
    1.7867    0.4177   -0.3668 C   0  0  0  0  0  0  0  0  0  0  0  0
    3.1177    0.1036   -0.1817 C   0  0  0  0  0  0  0  0  0  0  0  0
    3.5912   -1.1661   -0.4064 C   0  0  0  0  0  0  0  0  0  0  0  0
    4.9771   -1.5341   -0.1912 C   0  0  0  0  0  0  0  0  0  0  0  0
    5.8816   -0.7007    0.2687 C   0  0  0  0  0  0  0  0  0  0  0  0
    7.2796   -1.0128    0.5041 C   0  0  0  0  0  0  0  0  0  0  0  0
    8.0336   -0.1172    0.9485 O   0  0  0  0  0  0  0  0  0  0  0  0
    7.8073   -2.2830    0.2495 N   0  0  0  0  0  0  0  0  0  0  0  0
    9.1277   -2.5511    0.4815 O   0  0  0  0  0  0  0  0  0  0  0  0
    2.7237   -2.1797   -0.8341 C   0  0  0  0  0  0  0  0  0  0  0  0
    1.4019   -1.8601   -1.0147 C   0  0  0  0  0  0  0  0  0  0  0  0
    0.9270   -0.5755   -0.7849 C   0  0  0  0  0  0  0  0  0  0  0  0
   -0.2728    0.0103   -0.8687 N   0  0  0  0  0  0  0  0  0  0  0  0
   -1.4910   -0.6910   -1.2781 C   0  0  0  0  0  0  0  0  0  0  0  0
   -2.0527   -1.2689    0.0023 C   0  0  0  0  0  0  0  0  0  0  0  0
   -3.2244   -2.0151   -0.2622 N   0  0  0  0  0  0  0  0  0  0  0  0
   -3.6682   -2.6415    0.9736 C   0  0  0  0  0  0  0  0  0  0  0  0
   -4.8957   -3.4877    0.8124 C   0  0  0  0  0  0  0  0  0  0  0  0
   -4.2666   -1.3459   -0.9529 C   0  0  0  0  0  0  0  0  0  0  0  0
   -4.9268   -0.2278   -0.1614 C   0  0  0  0  0  0  0  0  0  0  0  0
    0.6901    0.0000    0.0000 Cl  0  0  0  0  0  0  0  0  0  0  0  0
    0.6860    0.0000    0.0000 Cl  0  0  0  0  0  0  0  0  0  0  0  0
   -1.4035    6.6148    1.0771 H   0  0  0  0  0  0  0  0  0  0  0  0
    0.1388    5.7278    0.8513 H   0  0  0  0  0  0  0  0  0  0  0  0
   -0.5958    6.6015   -0.5741 H   0  0  0  0  0  0  0  0  0  0  0  0
   -2.1672    5.0002   -0.9679 H   0  0  0  0  0  0  0  0  0  0  0  0
   -2.3953    4.5917    0.7607 H   0  0  0  0  0  0  0  0  0  0  0  0
   -0.0695    3.5180    0.7909 H   0  0  0  0  0  0  0  0  0  0  0  0
    0.0595    3.9250   -0.9248 H   0  0  0  0  0  0  0  0  0  0  0  0
   -1.9191    2.3863   -1.4004 H   0  0  0  0  0  0  0  0  0  0  0  0
   -1.9890    2.0461    0.3335 H   0  0  0  0  0  0  0  0  0  0  0  0
    3.7449    0.9231    0.1472 H   0  0  0  0  0  0  0  0  0  0  0  0
    5.3439   -2.5403   -0.4033 H   0  0  0  0  0  0  0  0  0  0  0  0
    5.5208    0.3211    0.4887 H   0  0  0  0  0  0  0  0  0  0  0  0
    7.2218   -3.0609   -0.1204 H   0  0  0  0  0  0  0  0  0  0  0  0
    9.5572   -1.6981    0.7304 H   0  0  0  0  0  0  0  0  0  0  0  0
    3.1426   -3.1557   -0.9960 H   0  0  0  0  0  0  0  0  0  0  0  0
    0.7101   -2.6260   -1.3482 H   0  0  0  0  0  0  0  0  0  0  0  0
   -2.1787    0.0181   -1.7606 H   0  0  0  0  0  0  0  0  0  0  0  0
   -1.2563   -1.4681   -2.0221 H   0  0  0  0  0  0  0  0  0  0  0  0
   -2.1724   -0.4837    0.7834 H   0  0  0  0  0  0  0  0  0  0  0  0
   -1.3030   -1.9806    0.4671 H   0  0  0  0  0  0  0  0  0  0  0  0
   -3.7288   -1.8885    1.7710 H   0  0  0  0  0  0  0  0  0  0  0  0
   -2.8206   -3.3338    1.2571 H   0  0  0  0  0  0  0  0  0  0  0  0
   -5.7744   -2.8811    1.0425 H   0  0  0  0  0  0  0  0  0  0  0  0
   -4.9016   -3.8552   -0.2472 H   0  0  0  0  0  0  0  0  0  0  0  0
   -4.7916   -4.3813    1.4638 H   0  0  0  0  0  0  0  0  0  0  0  0
   -3.8913   -0.9119   -1.8907 H   0  0  0  0  0  0  0  0  0  0  0  0
   -5.0462   -2.0832   -1.2756 H   0  0  0  0  0  0  0  0  0  0  0  0
   -4.4317    0.7181   -0.4401 H   0  0  0  0  0  0  0  0  0  0  0  0
   -5.9835   -0.1451   -0.5307 H   0  0  0  0  0  0  0  0  0  0  0  0
   -4.9002   -0.4596    0.9213 H   0  0  0  0  0  0  0  0  0  0  0  0
   -0.6901    0.0000    0.0000 H   0  0  0  0  0  0  0  0  0  0  0  0
   -0.6860    0.0000    0.0000 H   0  0  0  0  0  0  0  0  0  0  0  0
  1  2  1  0
  2  3  1  0
  3  4  1  0
  4  5  1  0
  5  6  2  0
  6  7  1  0
  7  8  2  0
  8  9  1  0
  9 10  1  0
 10 11  2  0
 11 12  1  0
 12 13  2  0
 12 14  1  0
 14 15  1  0
  9 16  2  0
 16 17  1  0
 17 18  2  0
 18 19  1  0
 19 20  1  0
 20 21  1  0
 21 22  1  0
 22 23  1  0
 23 24  1  0
 22 25  1  0
 25 26  1  0
 19  5  1  0
 18  7  1  0
  1 29  1  0
  1 30  1  0
  1 31  1  0
  2 32  1  0
  2 33  1  0
  3 34  1  0
  3 35  1  0
  4 36  1  0
  4 37  1  0
  8 38  1  0
 10 39  1  0
 11 40  1  0
 14 41  1  0
 15 42  1  0
 16 43  1  0
 17 44  1  0
 20 45  1  0
 20 46  1  0
 21 47  1  0
 21 48  1  0
 23 49  1  0
 23 50  1  0
 24 51  1  0
 24 52  1  0
 24 53  1  0
 25 54  1  0
 25 55  1  0
 26 56  1  0
 26 57  1  0
 26 58  1  0
 27 59  1  0
 28 60  1  0
M  END
$$$$
