@<TRIPOS>MOLECULE
*****
 67 69 0 0 0
SMALL
GASTEIGER

@<TRIPOS>ATOM
      1 C          11.8866    0.4578   -0.6681 C.3     1  UNL1       -0.0556
      2 C          10.3881    0.4461   -0.9313 C.3     1  UNL1        0.0165
      3 C          10.0197   -0.6773   -1.8815 C.3     1  UNL1       -0.0556
      4 C           9.6390    0.3707    0.3334 C.2     1  UNL1        0.1657
      5 O          10.2859    0.2865    1.4175 O.2     1  UNL1       -0.2918
      6 C           8.1832    0.3864    0.4144 C.ar    1  UNL1        0.0179
      7 C           7.3997    0.5099   -0.7207 C.ar    1  UNL1       -0.0478
      8 C           6.0125    0.5159   -0.6470 C.ar    1  UNL1       -0.0193
      9 C           5.3490    0.3999    0.5530 C.ar    1  UNL1        0.1210
     10 O           3.9684    0.4013    0.6861 O.3     1  UNL1       -0.4874
     11 C           3.1539    0.5391   -0.4641 C.3     1  UNL1        0.1146
     12 C           1.7105    0.4919   -0.0979 C.ar    1  UNL1       -0.0104
     13 C           0.9990   -0.6980   -0.1081 C.ar    1  UNL1       -0.0548
     14 C          -0.3310   -0.7322    0.2459 C.ar    1  UNL1       -0.0537
     15 C          -1.0299    0.4100    0.6300 C.ar    1  UNL1       -0.0179
     16 C          -2.4322    0.3058    1.0010 C.ar    1  UNL1       -0.0178
     17 C          -3.3584    1.2994    0.8072 C.ar    1  UNL1       -0.0522
     18 C          -4.6738    1.1306    1.1836 C.ar    1  UNL1       -0.0348
     19 C          -5.1232   -0.0352    1.7706 C.ar    1  UNL1        0.1053
     20 S          -6.7891   -0.2646    2.2408 S.O2    1  UNL1        0.0591
     21 O          -6.8818   -1.2083    3.4305 O.2     1  UNL1       -0.1530
     22 O          -7.4160    1.0230    2.6839 O.2     1  UNL1       -0.1530
     23 N          -7.6016   -1.0172    0.9456 N.3     1  UNL1       -0.1759
     24 C          -7.6311   -0.2581   -0.2744 C.3     1  UNL1        0.1276
     25 C          -6.9629   -1.0134   -1.3829 C.2     1  UNL1        0.3238
     26 O          -6.9037   -0.4841   -2.5191 O.2     1  UNL1       -0.2492
     27 O          -6.4049   -2.2683   -1.2223 O.3     1  UNL1       -0.4795
     28 C          -9.0772   -0.1136   -0.7077 C.3     1  UNL1       -0.0194
     29 C          -9.6862   -1.5037   -0.9434 C.3     1  UNL1       -0.0607
     30 C          -9.9347    0.5717    0.3108 C.3     1  UNL1       -0.0607
     31 C          -4.1986   -1.0385    1.9688 C.ar    1  UNL1       -0.0348
     32 C          -2.8808   -0.8696    1.5909 C.ar    1  UNL1       -0.0522
     33 C          -0.3140    1.5865    0.6361 C.ar    1  UNL1       -0.0537
     34 C           1.0370    1.6290    0.2773 C.ar    1  UNL1       -0.0548
     35 C           6.1504    0.2760    1.6958 C.ar    1  UNL1       -0.0193
     36 C           7.5229    0.2712    1.6156 C.ar    1  UNL1       -0.0478
     37 H          12.1263   -0.2715    0.1286 H       1  UNL1        0.0236
     38 H          12.3840    0.2472   -1.6296 H       1  UNL1        0.0236
     39 H          12.1490    1.5004   -0.3834 H       1  UNL1        0.0236
     40 H          10.1418    1.3999   -1.4347 H       1  UNL1        0.0375
     41 H           9.7443   -0.2928   -2.8701 H       1  UNL1        0.0236
     42 H           9.2457   -1.3462   -1.4539 H       1  UNL1        0.0236
     43 H          10.9264   -1.3225   -2.0287 H       1  UNL1        0.0236
     44 H           7.8685    0.6029   -1.6797 H       1  UNL1        0.0626
     45 H           5.3918    0.6129   -1.5421 H       1  UNL1        0.0654
     46 H           3.3560   -0.2739   -1.1885 H       1  UNL1        0.0748
     47 H           3.3804    1.5244   -0.9206 H       1  UNL1        0.0748
     48 H           1.5403   -1.5811   -0.4063 H       1  UNL1        0.0622
     49 H          -0.8962   -1.6792    0.2363 H       1  UNL1        0.0624
     50 H          -3.0777    2.2333    0.3551 H       1  UNL1        0.0624
     51 H          -5.4192    1.9211    1.0325 H       1  UNL1        0.0637
     52 H          -8.5395   -1.3361    1.1998 H       1  UNL1        0.1489
     53 H          -7.1346    0.7073   -0.1000 H       1  UNL1        0.0595
     54 H          -5.8472   -2.6608   -1.9691 H       1  UNL1        0.2951
     55 H          -9.1710    0.4250   -1.6682 H       1  UNL1        0.0316
     56 H         -10.0561   -1.9553   -0.0160 H       1  UNL1        0.0233
     57 H         -10.5447   -1.3560   -1.6216 H       1  UNL1        0.0233
     58 H          -8.9463   -2.1401   -1.4956 H       1  UNL1        0.0233
     59 H         -10.2509   -0.1342    1.1158 H       1  UNL1        0.0233
     60 H         -10.8358    0.9482   -0.2331 H       1  UNL1        0.0233
     61 H          -9.3682    1.3791    0.7872 H       1  UNL1        0.0233
     62 H          -4.5551   -1.9543    2.4314 H       1  UNL1        0.0637
     63 H          -2.2195   -1.7138    1.7869 H       1  UNL1        0.0624
     64 H          -0.8289    2.4787    0.9251 H       1  UNL1        0.0624
     65 H           1.5810    2.5542    0.2878 H       1  UNL1        0.0622
     66 H           5.6356    0.1839    2.6426 H       1  UNL1        0.0654
     67 H           8.1450    0.1729    2.5121 H       1  UNL1        0.0626
@<TRIPOS>BOND
     1     1     2    1
     2     2     3    1
     3     2     4    1
     4     4     5    2
     5     4     6    1
     6     6     7   ar
     7     7     8   ar
     8     8     9   ar
     9     9    10    1
    10    10    11    1
    11    11    12    1
    12    12    13   ar
    13    13    14   ar
    14    14    15   ar
    15    15    16    1
    16    16    17   ar
    17    17    18   ar
    18    18    19   ar
    19    19    20    1
    20    20    21    2
    21    20    22    2
    22    20    23    1
    23    23    24    1
    24    24    25    1
    25    25    26    2
    26    25    27    1
    27    24    28    1
    28    28    29    1
    29    28    30    1
    30    19    31   ar
    31    31    32   ar
    32    15    33   ar
    33    33    34   ar
    34     9    35   ar
    35    35    36   ar
    36    36     6   ar
    37    34    12   ar
    38    32    16   ar
    39     1    37    1
    40     1    38    1
    41     1    39    1
    42     2    40    1
    43     3    41    1
    44     3    42    1
    45     3    43    1
    46     7    44    1
    47     8    45    1
    48    11    46    1
    49    11    47    1
    50    13    48    1
    51    14    49    1
    52    17    50    1
    53    18    51    1
    54    23    52    1
    55    24    53    1
    56    27    54    1
    57    28    55    1
    58    29    56    1
    59    29    57    1
    60    29    58    1
    61    30    59    1
    62    30    60    1
    63    30    61    1
    64    31    62    1
    65    32    63    1
    66    33    64    1
    67    34    65    1
    68    35    66    1
    69    36    67    1
