@<TRIPOS>MOLECULE
*****
 55 57 0 0 0
SMALL
GASTEIGER

@<TRIPOS>ATOM
      1 C          -0.2308   -2.8376    2.6269 C.3     0  UNK0       -0.0585
      2 C          -0.6328   -2.6161    1.1619 C.3     0  UNK0       -0.0183
      3 C          -1.2266   -3.8356    0.5388 C.3     0  UNK0       -0.0585
      4 C          -1.5427   -1.4488    1.1093 C.ar    0  UNK0       -0.0056
      5 C          -2.8396   -1.5703    1.6327 C.ar    0  UNK0        0.0334
      6 N          -3.6653   -0.5153    1.6649 N.ar    0  UNK0       -0.2545
      7 C          -3.3385    0.7134    1.2145 C.ar    0  UNK0        0.0755
      8 C          -4.3016    1.8215    1.2863 C.ar    0  UNK0        0.0369
      9 C          -4.0334    3.0943    0.8467 C.ar    0  UNK0       -0.0314
     10 C          -5.0150    4.0886    0.9556 C.ar    0  UNK0        0.0418
     11 CL         -4.6486    5.6933    0.3907 Cl      0  UNK0       -0.0835
     12 C          -6.2585    3.8478    1.4919 C.ar    0  UNK0       -0.0406
     13 C          -6.5243    2.5690    1.9322 C.ar    0  UNK0       -0.0244
     14 C          -5.5538    1.5888    1.8237 C.ar    0  UNK0        0.1326
     15 F          -5.8103    0.3200    2.2578 F       0  UNK0       -0.2048
     16 C          -2.0935    0.8729    0.6991 C.ar    0  UNK0       -0.0141
     17 C          -1.1997   -0.2114    0.6474 C.ar    0  UNK0        0.0383
     18 N           0.1139   -0.0032    0.1011 N.pl3   0  UNK0       -0.3135
     19 C           0.4577   -0.6368   -1.1114 C.ar    0  UNK0        0.0465
     20 C          -0.5440   -1.3766   -1.7862 C.ar    0  UNK0       -0.0217
     21 C          -0.2770   -2.0156   -2.9663 C.ar    0  UNK0        0.0293
     22 N           0.9511   -1.9399   -3.4909 N.ar    0  UNK0       -0.2624
     23 C           1.9283   -1.2533   -2.8894 C.ar    0  UNK0        0.0415
     24 C           1.6944   -0.5938   -1.6930 C.ar    0  UNK0        0.0758
     25 C           2.7901    0.1220   -1.0831 C.2     0  UNK0        0.2476
     26 O           2.6538    0.7158    0.0173 O.2     0  UNK0       -0.2701
     27 N           4.1041    0.2213   -1.6598 N.am    1  ALA1       -0.3065
     28 CA          5.1669    0.9669   -0.9792 C.3     1  ALA1        0.0437
     29 CB          6.3671    0.1066   -0.7016 C.3     1  ALA1       -0.0445
     30 C           5.5914    2.0890   -1.9017 C.3     1  ALA1        0.0623
     31 O           6.5925    2.8649   -1.3671 O.3     1  ALA1       -0.3932
     32 H          -1.0893   -2.6436    3.2867 H       0  UNK0        0.0235
     33 H           0.5286   -2.0616    2.8501 H       0  UNK0        0.0235
     34 H           0.1871   -3.8451    2.7147 H       0  UNK0        0.0235
     35 H           0.3111   -2.3667    0.6262 H       0  UNK0        0.0344
     36 H          -1.9285   -3.5241   -0.2630 H       0  UNK0        0.0235
     37 H          -0.4507   -4.4922    0.0492 H       0  UNK0        0.0235
     38 H          -1.8413   -4.4181    1.2643 H       0  UNK0        0.0235
     39 H          -3.1191   -2.5526    1.9996 H       0  UNK0        0.0833
     40 H          -3.0690    3.3208    0.4202 H       0  UNK0        0.0639
     41 H          -6.9746    4.6613    1.5480 H       0  UNK0        0.0633
     42 H          -7.5025    2.3826    2.3532 H       0  UNK0        0.0647
     43 H          -1.7353    1.8276    0.3094 H       0  UNK0        0.0658
     44 H           0.7038    0.6162    0.6611 H       0  UNK0        0.1522
     45 H          -1.5187   -1.4240   -1.3504 H       0  UNK0        0.0651
     46 H          -1.0191   -2.5876   -3.5051 H       0  UNK0        0.0830
     47 H           2.8945   -1.2465   -3.3870 H       0  UNK0        0.0838
     48 H           4.3003   -0.2343   -2.5581 H       1  ALA1        0.1494
     49 HA          4.8204    1.3997   -0.0368 H       1  ALA1        0.0518
     50 HB1         6.6287    0.1116    0.3755 H       1  ALA1        0.0248
     51 HB2         7.2324    0.4008   -1.3384 H       1  ALA1        0.0248
     52 HB3         6.1032   -0.9297   -1.0130 H       1  ALA1        0.0248
     53 H1          4.6989    2.7094   -2.1711 H       1  ALA1        0.0575
     54 H2          5.9756    1.6499   -2.8511 H       1  ALA1        0.0575
     55 H           7.1882    2.4045   -0.7533 H       1  ALA1        0.2095
@<TRIPOS>BOND
     1     1     2    1
     2     2     3    1
     3     2     4    1
     4     4     5   ar
     5     5     6   ar
     6     6     7   ar
     7     7     8    1
     8     8     9   ar
     9     9    10   ar
    10    10    11    1
    11    10    12   ar
    12    12    13   ar
    13    13    14   ar
    14    14    15    1
    15     7    16   ar
    16    16    17   ar
    17    17    18    1
    18    18    19    1
    19    19    20   ar
    20    20    21   ar
    21    21    22   ar
    22    22    23   ar
    23    23    24   ar
    24    24    25    1
    25    25    26    2
    26    25    27   am
    27    27    28    1
    28    28    29    1
    29    28    30    1
    30    30    31    1
    31    17     4   ar
    32    24    19   ar
    33    14     8   ar
    34     1    32    1
    35     1    33    1
    36     1    34    1
    37     2    35    1
    38     3    36    1
    39     3    37    1
    40     3    38    1
    41     5    39    1
    42     9    40    1
    43    12    41    1
    44    13    42    1
    45    16    43    1
    46    18    44    1
    47    20    45    1
    48    21    46    1
    49    23    47    1
    50    27    48    1
    51    28    49    1
    52    29    50    1
    53    29    51    1
    54    29    52    1
    55    30    53    1
    56    30    54    1
    57    31    55    1
