
     RDKit          3D

 55 57  0  0  0  0  0  0  0  0999 V2000
   -0.2308   -2.8376    2.6269 C   0  0  0  0  0  0  0  0  0  0  0  0
   -0.6328   -2.6161    1.1619 C   0  0  0  0  0  0  0  0  0  0  0  0
   -1.2266   -3.8356    0.5388 C   0  0  0  0  0  0  0  0  0  0  0  0
   -1.5427   -1.4488    1.1093 C   0  0  0  0  0  0  0  0  0  0  0  0
   -2.8396   -1.5703    1.6327 C   0  0  0  0  0  0  0  0  0  0  0  0
   -3.6653   -0.5153    1.6649 N   0  0  0  0  0  0  0  0  0  0  0  0
   -3.3385    0.7134    1.2145 C   0  0  0  0  0  0  0  0  0  0  0  0
   -4.3016    1.8215    1.2863 C   0  0  0  0  0  0  0  0  0  0  0  0
   -4.0334    3.0943    0.8467 C   0  0  0  0  0  0  0  0  0  0  0  0
   -5.0150    4.0886    0.9556 C   0  0  0  0  0  0  0  0  0  0  0  0
   -4.6486    5.6933    0.3907 Cl  0  0  0  0  0  0  0  0  0  0  0  0
   -6.2585    3.8478    1.4919 C   0  0  0  0  0  0  0  0  0  0  0  0
   -6.5243    2.5690    1.9322 C   0  0  0  0  0  0  0  0  0  0  0  0
   -5.5538    1.5888    1.8237 C   0  0  0  0  0  0  0  0  0  0  0  0
   -5.8103    0.3200    2.2578 F   0  0  0  0  0  0  0  0  0  0  0  0
   -2.0935    0.8729    0.6991 C   0  0  0  0  0  0  0  0  0  0  0  0
   -1.1997   -0.2114    0.6474 C   0  0  0  0  0  0  0  0  0  0  0  0
    0.1139   -0.0032    0.1011 N   0  0  0  0  0  0  0  0  0  0  0  0
    0.4577   -0.6368   -1.1114 C   0  0  0  0  0  0  0  0  0  0  0  0
   -0.5440   -1.3766   -1.7862 C   0  0  0  0  0  0  0  0  0  0  0  0
   -0.2770   -2.0156   -2.9663 C   0  0  0  0  0  0  0  0  0  0  0  0
    0.9511   -1.9399   -3.4909 N   0  0  0  0  0  0  0  0  0  0  0  0
    1.9283   -1.2533   -2.8894 C   0  0  0  0  0  0  0  0  0  0  0  0
    1.6944   -0.5938   -1.6930 C   0  0  0  0  0  0  0  0  0  0  0  0
    2.7901    0.1220   -1.0831 C   0  0  0  0  0  0  0  0  0  0  0  0
    2.6538    0.7158    0.0173 O   0  0  0  0  0  0  0  0  0  0  0  0
    4.1041    0.2213   -1.6598 N   0  0  0  0  0  0  0  0  0  0  0  0
    5.1669    0.9669   -0.9792 C   0  0  1  0  0  0  0  0  0  0  0  0
    6.3671    0.1066   -0.7016 C   0  0  0  0  0  0  0  0  0  0  0  0
    5.5914    2.0890   -1.9017 C   0  0  0  0  0  0  0  0  0  0  0  0
    6.5925    2.8649   -1.3671 O   0  0  0  0  0  0  0  0  0  0  0  0
   -1.0893   -2.6436    3.2867 H   0  0  0  0  0  0  0  0  0  0  0  0
    0.5286   -2.0616    2.8501 H   0  0  0  0  0  0  0  0  0  0  0  0
    0.1871   -3.8451    2.7147 H   0  0  0  0  0  0  0  0  0  0  0  0
    0.3111   -2.3667    0.6262 H   0  0  0  0  0  0  0  0  0  0  0  0
   -1.9285   -3.5241   -0.2630 H   0  0  0  0  0  0  0  0  0  0  0  0
   -0.4507   -4.4922    0.0492 H   0  0  0  0  0  0  0  0  0  0  0  0
   -1.8413   -4.4181    1.2643 H   0  0  0  0  0  0  0  0  0  0  0  0
   -3.1191   -2.5526    1.9996 H   0  0  0  0  0  0  0  0  0  0  0  0
   -3.0690    3.3208    0.4202 H   0  0  0  0  0  0  0  0  0  0  0  0
   -6.9746    4.6613    1.5480 H   0  0  0  0  0  0  0  0  0  0  0  0
   -7.5025    2.3826    2.3532 H   0  0  0  0  0  0  0  0  0  0  0  0
   -1.7353    1.8276    0.3094 H   0  0  0  0  0  0  0  0  0  0  0  0
    0.7038    0.6162    0.6611 H   0  0  0  0  0  0  0  0  0  0  0  0
   -1.5187   -1.4240   -1.3504 H   0  0  0  0  0  0  0  0  0  0  0  0
   -1.0191   -2.5876   -3.5051 H   0  0  0  0  0  0  0  0  0  0  0  0
    2.8945   -1.2465   -3.3870 H   0  0  0  0  0  0  0  0  0  0  0  0
    4.3003   -0.2343   -2.5581 H   0  0  0  0  0  0  0  0  0  0  0  0
    4.8204    1.3997   -0.0368 H   0  0  0  0  0  0  0  0  0  0  0  0
    6.6287    0.1116    0.3755 H   0  0  0  0  0  0  0  0  0  0  0  0
    7.2324    0.4008   -1.3384 H   0  0  0  0  0  0  0  0  0  0  0  0
    6.1032   -0.9297   -1.0130 H   0  0  0  0  0  0  0  0  0  0  0  0
    4.6989    2.7094   -2.1711 H   0  0  0  0  0  0  0  0  0  0  0  0
    5.9756    1.6499   -2.8511 H   0  0  0  0  0  0  0  0  0  0  0  0
    7.1882    2.4045   -0.7533 H   0  0  0  0  0  0  0  0  0  0  0  0
  1  2  1  0
  2  3  1  0
  2  4  1  0
  4  5  2  0
  5  6  1  0
  6  7  2  0
  7  8  1  0
  8  9  2  0
  9 10  1  0
 10 11  1  0
 10 12  2  0
 12 13  1  0
 13 14  2  0
 14 15  1  0
  7 16  1  0
 16 17  2  0
 17 18  1  0
 18 19  1  0
 19 20  2  0
 20 21  1  0
 21 22  2  0
 22 23  1  0
 23 24  2  0
 24 25  1  0
 25 26  2  0
 25 27  1  0
 27 28  1  0
 28 29  1  0
 28 30  1  0
 30 31  1  0
 17  4  1  0
 24 19  1  0
 14  8  1  0
  1 32  1  0
  1 33  1  0
  1 34  1  0
  2 35  1  0
  3 36  1  0
  3 37  1  0
  3 38  1  0
  5 39  1  0
  9 40  1  0
 12 41  1  0
 13 42  1  0
 16 43  1  0
 18 44  1  0
 20 45  1  0
 21 46  1  0
 23 47  1  0
 27 48  1  0
 28 49  1  1
 29 50  1  0
 29 51  1  0
 29 52  1  0
 30 53  1  0
 30 54  1  0
 31 55  1  0
M  END
$$$$
