@<TRIPOS>MOLECULE
*****
 49 51 0 0 0
SMALL
GASTEIGER

@<TRIPOS>ATOM
      1 C          -3.1641   -1.7308   -3.2323 C.3     1  UNL1        0.0788
      2 O          -1.8909   -1.4342   -2.6802 O.3     1  UNL1       -0.4948
      3 C          -1.8074   -0.6403   -1.5202 C.ar    1  UNL1        0.1250
      4 C          -2.9611   -0.2058   -0.9559 C.ar    1  UNL1       -0.0119
      5 C          -2.9172    0.5711    0.1910 C.ar    1  UNL1       -0.0144
      6 C          -4.1976    1.0389    0.7383 C.ar    1  UNL1       -0.0178
      7 C          -5.2460    1.3281   -0.1131 C.ar    1  UNL1       -0.0540
      8 C          -6.4474    1.7662    0.4210 C.ar    1  UNL1       -0.0612
      9 C          -6.6272    1.9212    1.7763 C.ar    1  UNL1       -0.0617
     10 C          -5.5812    1.6343    2.6370 C.ar    1  UNL1       -0.0612
     11 C          -4.3925    1.2003    2.0873 C.ar    1  UNL1       -0.0540
     12 C          -1.6948    0.8684    0.7108 C.ar    1  UNL1       -0.0535
     13 C          -0.5006    0.4221    0.1301 C.ar    1  UNL1       -0.0534
     14 C          -0.5424   -0.3360   -0.9923 C.ar    1  UNL1        0.0089
     15 C           0.5895   -0.8656   -1.7527 C.3     1  UNL1        0.0465
     16 C           0.7835   -0.0312   -3.0496 C.3     1  UNL1       -0.0473
     17 C           1.8096   -0.7568   -0.9559 C.1     1  UNL1       -0.0889
     18 C           2.8401   -0.6585   -0.2932 C.1     1  UNL1       -0.0605
     19 C           4.0416   -0.5527    0.4567 C.ar    1  UNL1        0.0855
     20 C           5.2888   -0.5323   -0.1267 C.ar    1  UNL1        0.0605
     21 C           5.3850   -0.6247   -1.6284 C.3     1  UNL1       -0.0209
     22 N           6.3996   -0.4265    0.6239 N.ar    1  UNL1       -0.2186
     23 C           6.3665   -0.3352    1.9679 C.ar    1  UNL1        0.2145
     24 N           7.5664   -0.2279    2.7452 N.pl3   1  UNL1       -0.3274
     25 N           5.1559   -0.3528    2.5593 N.ar    1  UNL1       -0.1989
     26 C           4.0166   -0.4572    1.8442 C.ar    1  UNL1        0.1370
     27 N           2.7940   -0.4532    2.5540 N.pl3   1  UNL1       -0.3420
     28 H          -2.9831   -2.2133   -4.2268 H       1  UNL1        0.0660
     29 H          -3.6738   -2.4663   -2.6047 H       1  UNL1        0.0660
     30 H          -3.7706   -0.8194   -3.4338 H       1  UNL1        0.0660
     31 H          -3.9252   -0.4621   -1.3942 H       1  UNL1        0.0660
     32 H          -5.1026    1.2054   -1.1990 H       1  UNL1        0.0624
     33 H          -7.2748    1.9988   -0.2653 H       1  UNL1        0.0618
     34 H          -7.6048    2.2702    2.1059 H       1  UNL1        0.0618
     35 H          -5.7230    1.7519    3.6865 H       1  UNL1        0.0618
     36 H          -3.5478    0.9672    2.7521 H       1  UNL1        0.0624
     37 H          -1.6710    1.4735    1.6099 H       1  UNL1        0.0624
     38 H           0.4543    0.6691    0.5567 H       1  UNL1        0.0622
     39 H           0.3719   -1.9127   -2.0331 H       1  UNL1        0.0481
     40 H           0.3216    0.9712   -2.9117 H       1  UNL1        0.0245
     41 H           0.4385   -0.5801   -3.9265 H       1  UNL1        0.0245
     42 H           1.8751    0.1306   -3.1664 H       1  UNL1        0.0245
     43 H           5.2426    0.3830   -2.0807 H       1  UNL1        0.0293
     44 H           4.5613   -1.2475   -2.0061 H       1  UNL1        0.0293
     45 H           6.3917   -1.0133   -1.8963 H       1  UNL1        0.0293
     46 H           8.1375    0.6277    2.6529 H       1  UNL1        0.1452
     47 H           7.8018   -1.0234    3.3662 H       1  UNL1        0.1452
     48 H           2.5232   -1.1221    3.2966 H       1  UNL1        0.1437
     49 H           2.0906    0.2829    2.3178 H       1  UNL1        0.1437
@<TRIPOS>BOND
     1     1     2    1
     2     2     3    1
     3     3     4   ar
     4     4     5   ar
     5     5     6    1
     6     6     7   ar
     7     7     8   ar
     8     8     9   ar
     9     9    10   ar
    10    10    11   ar
    11     5    12   ar
    12    12    13   ar
    13    13    14   ar
    14    14    15    1
    15    15    16    1
    16    15    17    1
    17    17    18    3
    18    18    19    1
    19    19    20   ar
    20    20    21    1
    21    20    22   ar
    22    22    23   ar
    23    23    24    1
    24    23    25   ar
    25    25    26   ar
    26    26    27    1
    27    14     3   ar
    28    26    19   ar
    29    11     6   ar
    30     1    28    1
    31     1    29    1
    32     1    30    1
    33     4    31    1
    34     7    32    1
    35     8    33    1
    36     9    34    1
    37    10    35    1
    38    11    36    1
    39    12    37    1
    40    13    38    1
    41    15    39    1
    42    16    40    1
    43    16    41    1
    44    16    42    1
    45    21    43    1
    46    21    44    1
    47    21    45    1
    48    24    46    1
    49    24    47    1
    50    27    48    1
    51    27    49    1
