
     RDKit          3D

 43 45  0  0  0  0  0  0  0  0999 V2000
   -1.5846    3.2555   -0.7619 C   0  0  0  0  0  0  0  0  0  0  0  0
   -1.5077    1.8745   -0.5618 O   0  0  0  0  0  0  0  0  0  0  0  0
   -0.8479    0.9886   -1.4004 C   0  0  0  0  0  0  0  0  0  0  0  0
   -0.2825    1.4481   -2.4032 O   0  0  0  0  0  0  0  0  0  0  0  0
   -0.8701   -0.4481   -1.0304 C   0  0  1  0  0  0  0  0  0  0  0  0
   -0.2213   -0.5894    0.3315 C   0  0  1  0  0  0  0  0  0  0  0  0
    1.1082   -0.1644    0.2243 O   0  0  0  0  0  0  0  0  0  0  0  0
    2.2091   -0.9626    0.3976 C   0  0  0  0  0  0  0  0  0  0  0  0
    2.0170   -2.1733    0.6750 O   0  0  0  0  0  0  0  0  0  0  0  0
    3.5884   -0.4555    0.2713 C   0  0  0  0  0  0  0  0  0  0  0  0
    4.6719   -1.2886    0.4526 C   0  0  0  0  0  0  0  0  0  0  0  0
    5.9791   -0.8716    0.3474 C   0  0  0  0  0  0  0  0  0  0  0  0
    6.1933    0.4586    0.0427 C   0  0  0  0  0  0  0  0  0  0  0  0
    5.1404    1.3304   -0.1478 C   0  0  0  0  0  0  0  0  0  0  0  0
    3.8305    0.8587   -0.0301 C   0  0  0  0  0  0  0  0  0  0  0  0
   -0.9946    0.1175    1.4146 C   0  0  0  0  0  0  0  0  0  0  0  0
   -2.4640   -0.1181    1.2592 C   0  0  2  0  0  0  0  0  0  0  0  0
   -2.6825   -1.6336    1.3578 C   0  0  0  0  0  0  0  0  0  0  0  0
   -2.5370   -2.0673   -0.0743 C   0  0  0  0  0  0  0  0  0  0  0  0
   -2.3506   -0.8206   -0.8745 C   0  0  1  0  0  0  0  0  0  0  0  0
   -2.9341    0.2350   -0.0600 N   0  0  0  0  0  0  0  0  0  0  0  0
   -4.3625    0.2812   -0.1348 C   0  0  0  0  0  0  0  0  0  0  0  0
   -1.5339    3.4813   -1.8324 H   0  0  0  0  0  0  0  0  0  0  0  0
   -0.7628    3.7292   -0.1744 H   0  0  0  0  0  0  0  0  0  0  0  0
   -2.5647    3.5904   -0.3168 H   0  0  0  0  0  0  0  0  0  0  0  0
   -0.3592   -1.0956   -1.7399 H   0  0  0  0  0  0  0  0  0  0  0  0
   -0.2751   -1.6896    0.5826 H   0  0  0  0  0  0  0  0  0  0  0  0
    4.4472   -2.3249    0.6905 H   0  0  0  0  0  0  0  0  0  0  0  0
    6.8140   -1.5671    0.4994 H   0  0  0  0  0  0  0  0  0  0  0  0
    7.2335    0.7755   -0.0377 H   0  0  0  0  0  0  0  0  0  0  0  0
    5.3384    2.3555   -0.3829 H   0  0  0  0  0  0  0  0  0  0  0  0
    2.9742    1.5191   -0.1739 H   0  0  0  0  0  0  0  0  0  0  0  0
   -0.7016    1.1638    1.5140 H   0  0  0  0  0  0  0  0  0  0  0  0
   -0.6924   -0.3804    2.3829 H   0  0  0  0  0  0  0  0  0  0  0  0
   -3.0305    0.3630    2.0693 H   0  0  0  0  0  0  0  0  0  0  0  0
   -1.9011   -2.0440    2.0163 H   0  0  0  0  0  0  0  0  0  0  0  0
   -3.6932   -1.8291    1.7653 H   0  0  0  0  0  0  0  0  0  0  0  0
   -1.7610   -2.8281   -0.2288 H   0  0  0  0  0  0  0  0  0  0  0  0
   -3.5097   -2.5460   -0.3826 H   0  0  0  0  0  0  0  0  0  0  0  0
   -2.8238   -0.9088   -1.8595 H   0  0  0  0  0  0  0  0  0  0  0  0
   -4.6719    1.3131   -0.4027 H   0  0  0  0  0  0  0  0  0  0  0  0
   -4.7921   -0.4109   -0.8941 H   0  0  0  0  0  0  0  0  0  0  0  0
   -4.8327    0.0787    0.8707 H   0  0  0  0  0  0  0  0  0  0  0  0
  1  2  1  0
  2  3  1  0
  3  4  2  0
  3  5  1  0
  5  6  1  0
  6  7  1  0
  7  8  1  0
  8  9  2  0
  8 10  1  0
 10 11  2  0
 11 12  1  0
 12 13  2  0
 13 14  1  0
 14 15  2  0
  6 16  1  0
 16 17  1  0
 17 18  1  0
 18 19  1  0
 19 20  1  0
 20 21  1  0
 21 22  1  0
 20  5  1  0
 15 10  1  0
 21 17  1  0
  1 23  1  0
  1 24  1  0
  1 25  1  0
  5 26  1  6
  6 27  1  1
 11 28  1  0
 12 29  1  0
 13 30  1  0
 14 31  1  0
 15 32  1  0
 16 33  1  0
 16 34  1  0
 17 35  1  1
 18 36  1  0
 18 37  1  0
 19 38  1  0
 19 39  1  0
 20 40  1  6
 22 41  1  0
 22 42  1  0
 22 43  1  0
M  END
$$$$
