@<TRIPOS>MOLECULE
*****
 43 45 0 0 0
SMALL
GASTEIGER

@<TRIPOS>ATOM
      1 C          -1.5846    3.2555   -0.7619 C.3     1  UNL1        0.0817
      2 O          -1.5077    1.8745   -0.5618 O.3     1  UNL1       -0.4676
      3 C          -0.8479    0.9886   -1.4004 C.2     1  UNL1        0.3150
      4 O          -0.2825    1.4481   -2.4032 O.2     1  UNL1       -0.2504
      5 C          -0.8701   -0.4481   -1.0304 C.3     1  UNL1        0.1087
      6 C          -0.2213   -0.5894    0.3315 C.3     1  UNL1        0.1191
      7 O           1.1082   -0.1644    0.2243 O.3     1  UNL1       -0.4569
      8 C           2.2091   -0.9626    0.3976 C.2     1  UNL1        0.3395
      9 O           2.0170   -2.1733    0.6750 O.2     1  UNL1       -0.2450
     10 C           3.5884   -0.4555    0.2713 C.ar    1  UNL1        0.0590
     11 C           4.6719   -1.2886    0.4526 C.ar    1  UNL1       -0.0478
     12 C           5.9791   -0.8716    0.3474 C.ar    1  UNL1       -0.0610
     13 C           6.1933    0.4586    0.0427 C.ar    1  UNL1       -0.0617
     14 C           5.1404    1.3304   -0.1478 C.ar    1  UNL1       -0.0610
     15 C           3.8305    0.8587   -0.0301 C.ar    1  UNL1       -0.0478
     16 C          -0.9946    0.1175    1.4146 C.3     1  UNL1        0.0008
     17 C          -2.4640   -0.1181    1.2592 C.3     1  UNL1        0.0138
     18 C          -2.6825   -1.6336    1.3578 C.3     1  UNL1       -0.0358
     19 C          -2.5370   -2.0673   -0.0743 C.3     1  UNL1       -0.0350
     20 C          -2.3506   -0.8206   -0.8745 C.3     1  UNL1        0.0268
     21 N          -2.9341    0.2350   -0.0600 N.3     1  UNL1       -0.2984
     22 C          -4.3625    0.2812   -0.1348 C.3     1  UNL1       -0.0122
     23 H          -1.5339    3.4813   -1.8324 H       1  UNL1        0.0661
     24 H          -0.7628    3.7292   -0.1744 H       1  UNL1        0.0661
     25 H          -2.5647    3.5904   -0.3168 H       1  UNL1        0.0661
     26 H          -0.3592   -1.0956   -1.7399 H       1  UNL1        0.0466
     27 H          -0.2751   -1.6896    0.5826 H       1  UNL1        0.0743
     28 H           4.4472   -2.3249    0.6905 H       1  UNL1        0.0626
     29 H           6.8140   -1.5671    0.4994 H       1  UNL1        0.0618
     30 H           7.2335    0.7755   -0.0377 H       1  UNL1        0.0618
     31 H           5.3384    2.3555   -0.3829 H       1  UNL1        0.0618
     32 H           2.9742    1.5191   -0.1739 H       1  UNL1        0.0626
     33 H          -0.7016    1.1638    1.5140 H       1  UNL1        0.0316
     34 H          -0.6924   -0.3804    2.3829 H       1  UNL1        0.0316
     35 H          -3.0305    0.3630    2.0693 H       1  UNL1        0.0464
     36 H          -1.9011   -2.0440    2.0163 H       1  UNL1        0.0281
     37 H          -3.6932   -1.8291    1.7653 H       1  UNL1        0.0281
     38 H          -1.7610   -2.8281   -0.2288 H       1  UNL1        0.0281
     39 H          -3.5097   -2.5460   -0.3826 H       1  UNL1        0.0281
     40 H          -2.8238   -0.9088   -1.8595 H       1  UNL1        0.0472
     41 H          -4.6719    1.3131   -0.4027 H       1  UNL1        0.0391
     42 H          -4.7921   -0.4109   -0.8941 H       1  UNL1        0.0391
     43 H          -4.8327    0.0787    0.8707 H       1  UNL1        0.0391
@<TRIPOS>BOND
     1     1     2    1
     2     2     3    1
     3     3     4    2
     4     3     5    1
     5     5     6    1
     6     6     7    1
     7     7     8    1
     8     8     9    2
     9     8    10    1
    10    10    11   ar
    11    11    12   ar
    12    12    13   ar
    13    13    14   ar
    14    14    15   ar
    15     6    16    1
    16    16    17    1
    17    17    18    1
    18    18    19    1
    19    19    20    1
    20    20    21    1
    21    21    22    1
    22    20     5    1
    23    15    10   ar
    24    21    17    1
    25     1    23    1
    26     1    24    1
    27     1    25    1
    28     5    26    1
    29     6    27    1
    30    11    28    1
    31    12    29    1
    32    13    30    1
    33    14    31    1
    34    15    32    1
    35    16    33    1
    36    16    34    1
    37    17    35    1
    38    18    36    1
    39    18    37    1
    40    19    38    1
    41    19    39    1
    42    20    40    1
    43    22    41    1
    44    22    42    1
    45    22    43    1
