@<TRIPOS>MOLECULE
*****
 100 105 0 0 0
SMALL
GASTEIGER

@<TRIPOS>ATOM
      1 C          -5.9534   -2.6302   -3.7398 C.3     1  UNL1        0.0364
      2 O          -4.8801   -1.8077   -4.0600 O.3     1  UNL1       -0.3830
      3 C          -3.8182   -1.9591   -3.1861 C.3     1  UNL1        0.0476
      4 C          -2.6957   -1.0820   -3.6474 C.3     1  UNL1       -0.0255
      5 C          -3.0367    0.3617   -3.7257 C.3     1  UNL1       -0.0255
      6 C          -3.3829    0.8758   -2.3387 C.ar    1  UNL1       -0.0435
      7 C          -2.2842    1.1852   -1.5471 C.ar    1  UNL1       -0.0537
      8 C          -2.5628    1.7623   -0.2903 C.ar    1  UNL1       -0.0264
      9 C          -1.3845    2.0958    0.5551 C.3     1  UNL1        0.0401
     10 N          -0.9356    1.0810    1.4738 N.am    1  UNL1       -0.2938
     11 C          -0.1456   -0.0568    0.9880 C.2     1  UNL1        0.2210
     12 O           0.1796   -0.0434   -0.2026 O.2     1  UNL1       -0.2752
     13 C           0.1962   -1.1070    1.9000 C.3     1  UNL1        0.0550
     14 C          -1.0561   -1.7821    2.5157 C.3     1  UNL1        0.0076
     15 N          -0.6204   -2.3553    3.7522 N.3     1  UNL1       -0.3152
     16 C           0.7105   -2.7584    3.8801 C.3     1  UNL1       -0.0035
     17 C           1.6093   -2.8512    2.7133 C.3     1  UNL1       -0.0329
     18 C           0.9902   -2.2751    1.4322 C.3     1  UNL1       -0.0024
     19 C           1.9267   -2.1525    0.3410 C.ar    1  UNL1       -0.0432
     20 C           1.5123   -2.2932   -0.9854 C.ar    1  UNL1       -0.0548
     21 C           2.3543   -2.2567   -2.0595 C.ar    1  UNL1       -0.0197
     22 C           3.7506   -2.0692   -1.8754 C.ar    1  UNL1        0.1207
     23 O           4.5255   -2.0443   -2.9698 O.3     1  UNL1       -0.4886
     24 C           5.7766   -1.9421   -3.3314 C.3     1  UNL1        0.1235
     25 C           6.7067   -0.8378   -3.0582 C.3     1  UNL1        0.1236
     26 O           6.9932   -0.5155   -1.7418 O.3     1  UNL1       -0.4857
     27 C           7.9507    0.4286   -1.4026 C.ar    1  UNL1        0.1571
     28 C           9.2518   -0.0323   -1.1773 C.ar    1  UNL1        0.0842
     29 CL          9.5395   -1.7518   -1.3377 Cl      1  UNL1       -0.0797
     30 C          10.2884    0.8140   -0.8343 C.ar    1  UNL1       -0.0368
     31 C          10.0447    2.1566   -0.7068 C.ar    1  UNL1       -0.0475
     32 C          11.1953    3.0512   -0.3308 C.3     1  UNL1       -0.0396
     33 C           8.7838    2.6483   -0.9180 C.ar    1  UNL1       -0.0368
     34 C           7.7518    1.7724   -1.2651 C.ar    1  UNL1        0.0842
     35 CL          6.1486    2.4112   -1.5223 Cl      1  UNL1       -0.0797
     36 C           4.1466   -1.9347   -0.5838 C.ar    1  UNL1       -0.0197
     37 C           3.2729   -1.9697    0.5074 C.ar    1  UNL1       -0.0548
     38 C          -1.1507    1.2214    2.8823 C.3     1  UNL1        0.0265
     39 C          -2.3781    1.6895    3.5083 C.3     1  UNL1       -0.0326
     40 C          -1.1533    2.5789    3.5708 C.3     1  UNL1       -0.0326
     41 C          -3.8630    1.9759    0.0414 C.ar    1  UNL1       -0.0152
     42 C          -4.9561    1.6840   -0.7158 C.ar    1  UNL1        0.1211
     43 O          -6.2633    1.8842   -0.4473 O.3     1  UNL1       -0.4914
     44 C          -6.9326    2.4339    0.5980 C.3     1  UNL1        0.0961
     45 C          -6.8809    1.8191    1.9636 C.3     1  UNL1        0.0176
     46 C          -7.4180    0.3909    2.0438 C.3     1  UNL1        0.0435
     47 C          -6.6931   -0.5139    1.1822 C.1     1  UNL1        0.0632
     48 N          -6.1141   -1.2635    0.4718 N.1     1  UNL1       -0.1965
     49 C          -6.1154    2.4428    3.0498 C.3     1  UNL1       -0.0427
     50 C          -7.5920    2.7322    2.9974 C.3     1  UNL1       -0.0427
     51 C          -4.6712    1.0895   -1.9928 C.ar    1  UNL1       -0.0167
     52 H          -6.7933   -2.4268   -4.4697 H       1  UNL1        0.0523
     53 H          -6.3197   -2.4655   -2.7266 H       1  UNL1        0.0523
     54 H          -5.6210   -3.7037   -3.8694 H       1  UNL1        0.0523
     55 H          -3.4357   -3.0260   -3.2704 H       1  UNL1        0.0560
     56 H          -4.0689   -1.8092   -2.1284 H       1  UNL1        0.0560
     57 H          -1.8440   -1.1928   -2.9205 H       1  UNL1        0.0290
     58 H          -2.3583   -1.4230   -4.6574 H       1  UNL1        0.0290
     59 H          -3.9337    0.5529   -4.3613 H       1  UNL1        0.0314
     60 H          -2.2216    0.9981   -4.0853 H       1  UNL1        0.0314
     61 H          -1.3039    1.0061   -1.9269 H       1  UNL1        0.0624
     62 H          -1.7189    2.9919    1.1587 H       1  UNL1        0.0514
     63 H          -0.5375    2.4475   -0.1054 H       1  UNL1        0.0514
     64 H           0.7764   -0.6663    2.7688 H       1  UNL1        0.0413
     65 H          -1.9125   -1.1345    2.5989 H       1  UNL1        0.0432
     66 H          -1.3375   -2.5791    1.7654 H       1  UNL1        0.0432
     67 H          -1.2674   -3.1295    4.0283 H       1  UNL1        0.1220
     68 H           1.1999   -1.9834    4.5806 H       1  UNL1        0.0424
     69 H           0.8291   -3.6969    4.4956 H       1  UNL1        0.0424
     70 H           1.8778   -3.9167    2.5414 H       1  UNL1        0.0283
     71 H           2.5340   -2.2078    2.8707 H       1  UNL1        0.0283
     72 H           0.2005   -3.0841    1.1569 H       1  UNL1        0.0357
     73 H           0.4306   -2.4633   -1.1412 H       1  UNL1        0.0622
     74 H           1.9946   -2.3693   -3.0727 H       1  UNL1        0.0654
     75 H           5.8340   -2.0752   -4.4888 H       1  UNL1        0.0731
     76 H           6.3386   -2.8937   -2.9723 H       1  UNL1        0.0731
     77 H           6.4400    0.0935   -3.6353 H       1  UNL1        0.0731
     78 H           7.7041   -1.1226   -3.5325 H       1  UNL1        0.0731
     79 H          11.2837    0.4177   -0.6717 H       1  UNL1        0.0636
     80 H          10.9378    4.1052   -0.3138 H       1  UNL1        0.0278
     81 H          11.5455    2.7611    0.6960 H       1  UNL1        0.0278
     82 H          12.0539    2.8205   -0.9909 H       1  UNL1        0.0278
     83 H           8.6104    3.6992   -0.8090 H       1  UNL1        0.0636
     84 H           5.2191   -1.8000   -0.3862 H       1  UNL1        0.0654
     85 H           3.7263   -1.8360    1.4760 H       1  UNL1        0.0622
     86 H          -0.5984    0.4160    3.4901 H       1  UNL1        0.0500
     87 H          -3.2206    2.2054    3.0832 H       1  UNL1        0.0284
     88 H          -2.6888    1.1585    4.4750 H       1  UNL1        0.0284
     89 H          -0.6521    2.6084    4.5767 H       1  UNL1        0.0284
     90 H          -1.0884    3.4395    2.9204 H       1  UNL1        0.0284
     91 H          -4.0630    2.4390    1.0081 H       1  UNL1        0.0657
     92 H          -6.5173    3.4859    0.7423 H       1  UNL1        0.0702
     93 H          -8.0310    2.5472    0.3650 H       1  UNL1        0.0702
     94 H          -7.4201    0.0137    3.0754 H       1  UNL1        0.0424
     95 H          -8.5132    0.4879    1.7534 H       1  UNL1        0.0424
     96 H          -5.7613    1.8324    3.9215 H       1  UNL1        0.0272
     97 H          -5.3673    3.2315    2.8171 H       1  UNL1        0.0272
     98 H          -7.8634    3.7608    2.6790 H       1  UNL1        0.0272
     99 H          -8.2230    2.2515    3.7554 H       1  UNL1        0.0272
    100 H          -5.5223    0.8280   -2.6386 H       1  UNL1        0.0657
@<TRIPOS>BOND
     1     1     2    1
     2     2     3    1
     3     3     4    1
     4     4     5    1
     5     5     6    1
     6     6     7   ar
     7     7     8   ar
     8     8     9    1
     9     9    10    1
    10    10    11   am
    11    11    12    2
    12    11    13    1
    13    13    14    1
    14    14    15    1
    15    15    16    1
    16    16    17    1
    17    17    18    1
    18    18    19    1
    19    19    20   ar
    20    20    21   ar
    21    21    22   ar
    22    22    23    1
    23    23    24    1
    24    24    25    1
    25    25    26    1
    26    26    27    1
    27    27    28   ar
    28    28    29    1
    29    28    30   ar
    30    30    31   ar
    31    31    32    1
    32    31    33   ar
    33    33    34   ar
    34    34    35    1
    35    22    36   ar
    36    36    37   ar
    37    10    38    1
    38    38    39    1
    39    39    40    1
    40     8    41   ar
    41    41    42   ar
    42    42    43    1
    43    43    44    1
    44    44    45    1
    45    45    46    1
    46    46    47    1
    47    47    48    3
    48    45    49    1
    49    49    50    1
    50    42    51   ar
    51    51     6   ar
    52    18    13    1
    53    37    19   ar
    54    40    38    1
    55    50    45    1
    56    34    27   ar
    57     1    52    1
    58     1    53    1
    59     1    54    1
    60     3    55    1
    61     3    56    1
    62     4    57    1
    63     4    58    1
    64     5    59    1
    65     5    60    1
    66     7    61    1
    67     9    62    1
    68     9    63    1
    69    13    64    1
    70    14    65    1
    71    14    66    1
    72    15    67    1
    73    16    68    1
    74    16    69    1
    75    17    70    1
    76    17    71    1
    77    18    72    1
    78    20    73    1
    79    21    74    1
    80    24    75    1
    81    24    76    1
    82    25    77    1
    83    25    78    1
    84    30    79    1
    85    32    80    1
    86    32    81    1
    87    32    82    1
    88    33    83    1
    89    36    84    1
    90    37    85    1
    91    38    86    1
    92    39    87    1
    93    39    88    1
    94    40    89    1
    95    40    90    1
    96    41    91    1
    97    44    92    1
    98    44    93    1
    99    46    94    1
   100    46    95    1
   101    49    96    1
   102    49    97    1
   103    50    98    1
   104    50    99    1
   105    51   100    1
