
     RDKit          3D

100105  0  0  0  0  0  0  0  0999 V2000
   -5.9534   -2.6302   -3.7398 C   0  0  0  0  0  0  0  0  0  0  0  0
   -4.8801   -1.8077   -4.0600 O   0  0  0  0  0  0  0  0  0  0  0  0
   -3.8182   -1.9591   -3.1861 C   0  0  0  0  0  0  0  0  0  0  0  0
   -2.6957   -1.0820   -3.6474 C   0  0  0  0  0  0  0  0  0  0  0  0
   -3.0367    0.3617   -3.7257 C   0  0  0  0  0  0  0  0  0  0  0  0
   -3.3829    0.8758   -2.3387 C   0  0  0  0  0  0  0  0  0  0  0  0
   -2.2842    1.1852   -1.5471 C   0  0  0  0  0  0  0  0  0  0  0  0
   -2.5628    1.7623   -0.2903 C   0  0  0  0  0  0  0  0  0  0  0  0
   -1.3845    2.0958    0.5551 C   0  0  0  0  0  0  0  0  0  0  0  0
   -0.9356    1.0810    1.4738 N   0  0  0  0  0  0  0  0  0  0  0  0
   -0.1456   -0.0568    0.9880 C   0  0  0  0  0  0  0  0  0  0  0  0
    0.1796   -0.0434   -0.2026 O   0  0  0  0  0  0  0  0  0  0  0  0
    0.1962   -1.1070    1.9000 C   0  0  1  0  0  0  0  0  0  0  0  0
   -1.0561   -1.7821    2.5157 C   0  0  0  0  0  0  0  0  0  0  0  0
   -0.6204   -2.3553    3.7522 N   0  0  0  0  0  0  0  0  0  0  0  0
    0.7105   -2.7584    3.8801 C   0  0  0  0  0  0  0  0  0  0  0  0
    1.6093   -2.8512    2.7133 C   0  0  0  0  0  0  0  0  0  0  0  0
    0.9902   -2.2751    1.4322 C   0  0  2  0  0  0  0  0  0  0  0  0
    1.9267   -2.1525    0.3410 C   0  0  0  0  0  0  0  0  0  0  0  0
    1.5123   -2.2932   -0.9854 C   0  0  0  0  0  0  0  0  0  0  0  0
    2.3543   -2.2567   -2.0595 C   0  0  0  0  0  0  0  0  0  0  0  0
    3.7506   -2.0692   -1.8754 C   0  0  0  0  0  0  0  0  0  0  0  0
    4.5255   -2.0443   -2.9698 O   0  0  0  0  0  0  0  0  0  0  0  0
    5.7766   -1.9421   -3.3314 C   0  0  0  0  0  0  0  0  0  0  0  0
    6.7067   -0.8378   -3.0582 C   0  0  0  0  0  0  0  0  0  0  0  0
    6.9932   -0.5155   -1.7418 O   0  0  0  0  0  0  0  0  0  0  0  0
    7.9507    0.4286   -1.4026 C   0  0  0  0  0  0  0  0  0  0  0  0
    9.2518   -0.0323   -1.1773 C   0  0  0  0  0  0  0  0  0  0  0  0
    9.5395   -1.7518   -1.3377 Cl  0  0  0  0  0  0  0  0  0  0  0  0
   10.2884    0.8140   -0.8343 C   0  0  0  0  0  0  0  0  0  0  0  0
   10.0447    2.1566   -0.7068 C   0  0  0  0  0  0  0  0  0  0  0  0
   11.1953    3.0512   -0.3308 C   0  0  0  0  0  0  0  0  0  0  0  0
    8.7838    2.6483   -0.9180 C   0  0  0  0  0  0  0  0  0  0  0  0
    7.7518    1.7724   -1.2651 C   0  0  0  0  0  0  0  0  0  0  0  0
    6.1486    2.4112   -1.5223 Cl  0  0  0  0  0  0  0  0  0  0  0  0
    4.1466   -1.9347   -0.5838 C   0  0  0  0  0  0  0  0  0  0  0  0
    3.2729   -1.9697    0.5074 C   0  0  0  0  0  0  0  0  0  0  0  0
   -1.1507    1.2214    2.8823 C   0  0  0  0  0  0  0  0  0  0  0  0
   -2.3781    1.6895    3.5083 C   0  0  0  0  0  0  0  0  0  0  0  0
   -1.1533    2.5789    3.5708 C   0  0  0  0  0  0  0  0  0  0  0  0
   -3.8630    1.9759    0.0414 C   0  0  0  0  0  0  0  0  0  0  0  0
   -4.9561    1.6840   -0.7158 C   0  0  0  0  0  0  0  0  0  0  0  0
   -6.2633    1.8842   -0.4473 O   0  0  0  0  0  0  0  0  0  0  0  0
   -6.9326    2.4339    0.5980 C   0  0  0  0  0  0  0  0  0  0  0  0
   -6.8809    1.8191    1.9636 C   0  0  0  0  0  0  0  0  0  0  0  0
   -7.4180    0.3909    2.0438 C   0  0  0  0  0  0  0  0  0  0  0  0
   -6.6931   -0.5139    1.1822 C   0  0  0  0  0  0  0  0  0  0  0  0
   -6.1141   -1.2635    0.4718 N   0  0  0  0  0  0  0  0  0  0  0  0
   -6.1154    2.4428    3.0498 C   0  0  0  0  0  0  0  0  0  0  0  0
   -7.5920    2.7322    2.9974 C   0  0  0  0  0  0  0  0  0  0  0  0
   -4.6712    1.0895   -1.9928 C   0  0  0  0  0  0  0  0  0  0  0  0
   -6.7933   -2.4268   -4.4697 H   0  0  0  0  0  0  0  0  0  0  0  0
   -6.3197   -2.4655   -2.7266 H   0  0  0  0  0  0  0  0  0  0  0  0
   -5.6210   -3.7037   -3.8694 H   0  0  0  0  0  0  0  0  0  0  0  0
   -3.4357   -3.0260   -3.2704 H   0  0  0  0  0  0  0  0  0  0  0  0
   -4.0689   -1.8092   -2.1284 H   0  0  0  0  0  0  0  0  0  0  0  0
   -1.8440   -1.1928   -2.9205 H   0  0  0  0  0  0  0  0  0  0  0  0
   -2.3583   -1.4230   -4.6574 H   0  0  0  0  0  0  0  0  0  0  0  0
   -3.9337    0.5529   -4.3613 H   0  0  0  0  0  0  0  0  0  0  0  0
   -2.2216    0.9981   -4.0853 H   0  0  0  0  0  0  0  0  0  0  0  0
   -1.3039    1.0061   -1.9269 H   0  0  0  0  0  0  0  0  0  0  0  0
   -1.7189    2.9919    1.1587 H   0  0  0  0  0  0  0  0  0  0  0  0
   -0.5375    2.4475   -0.1054 H   0  0  0  0  0  0  0  0  0  0  0  0
    0.7764   -0.6663    2.7688 H   0  0  0  0  0  0  0  0  0  0  0  0
   -1.9125   -1.1345    2.5989 H   0  0  0  0  0  0  0  0  0  0  0  0
   -1.3375   -2.5791    1.7654 H   0  0  0  0  0  0  0  0  0  0  0  0
   -1.2674   -3.1295    4.0283 H   0  0  0  0  0  0  0  0  0  0  0  0
    1.1999   -1.9834    4.5806 H   0  0  0  0  0  0  0  0  0  0  0  0
    0.8291   -3.6969    4.4956 H   0  0  0  0  0  0  0  0  0  0  0  0
    1.8778   -3.9167    2.5414 H   0  0  0  0  0  0  0  0  0  0  0  0
    2.5340   -2.2078    2.8707 H   0  0  0  0  0  0  0  0  0  0  0  0
    0.2005   -3.0841    1.1569 H   0  0  0  0  0  0  0  0  0  0  0  0
    0.4306   -2.4633   -1.1412 H   0  0  0  0  0  0  0  0  0  0  0  0
    1.9946   -2.3693   -3.0727 H   0  0  0  0  0  0  0  0  0  0  0  0
    5.8340   -2.0752   -4.4888 H   0  0  0  0  0  0  0  0  0  0  0  0
    6.3386   -2.8937   -2.9723 H   0  0  0  0  0  0  0  0  0  0  0  0
    6.4400    0.0935   -3.6353 H   0  0  0  0  0  0  0  0  0  0  0  0
    7.7041   -1.1226   -3.5325 H   0  0  0  0  0  0  0  0  0  0  0  0
   11.2837    0.4177   -0.6717 H   0  0  0  0  0  0  0  0  0  0  0  0
   10.9378    4.1052   -0.3138 H   0  0  0  0  0  0  0  0  0  0  0  0
   11.5455    2.7611    0.6960 H   0  0  0  0  0  0  0  0  0  0  0  0
   12.0539    2.8205   -0.9909 H   0  0  0  0  0  0  0  0  0  0  0  0
    8.6104    3.6992   -0.8090 H   0  0  0  0  0  0  0  0  0  0  0  0
    5.2191   -1.8000   -0.3862 H   0  0  0  0  0  0  0  0  0  0  0  0
    3.7263   -1.8360    1.4760 H   0  0  0  0  0  0  0  0  0  0  0  0
   -0.5984    0.4160    3.4901 H   0  0  0  0  0  0  0  0  0  0  0  0
   -3.2206    2.2054    3.0832 H   0  0  0  0  0  0  0  0  0  0  0  0
   -2.6888    1.1585    4.4750 H   0  0  0  0  0  0  0  0  0  0  0  0
   -0.6521    2.6084    4.5767 H   0  0  0  0  0  0  0  0  0  0  0  0
   -1.0884    3.4395    2.9204 H   0  0  0  0  0  0  0  0  0  0  0  0
   -4.0630    2.4390    1.0081 H   0  0  0  0  0  0  0  0  0  0  0  0
   -6.5173    3.4859    0.7423 H   0  0  0  0  0  0  0  0  0  0  0  0
   -8.0310    2.5472    0.3650 H   0  0  0  0  0  0  0  0  0  0  0  0
   -7.4201    0.0137    3.0754 H   0  0  0  0  0  0  0  0  0  0  0  0
   -8.5132    0.4879    1.7534 H   0  0  0  0  0  0  0  0  0  0  0  0
   -5.7613    1.8324    3.9215 H   0  0  0  0  0  0  0  0  0  0  0  0
   -5.3673    3.2315    2.8171 H   0  0  0  0  0  0  0  0  0  0  0  0
   -7.8634    3.7608    2.6790 H   0  0  0  0  0  0  0  0  0  0  0  0
   -8.2230    2.2515    3.7554 H   0  0  0  0  0  0  0  0  0  0  0  0
   -5.5223    0.8280   -2.6386 H   0  0  0  0  0  0  0  0  0  0  0  0
  1  2  1  0
  2  3  1  0
  3  4  1  0
  4  5  1  0
  5  6  1  0
  6  7  2  0
  7  8  1  0
  8  9  1  0
  9 10  1  0
 10 11  1  0
 11 12  2  0
 11 13  1  0
 13 14  1  0
 14 15  1  0
 15 16  1  0
 16 17  1  0
 17 18  1  0
 18 19  1  0
 19 20  2  0
 20 21  1  0
 21 22  2  0
 22 23  1  0
 23 24  1  0
 24 25  1  0
 25 26  1  0
 26 27  1  0
 27 28  2  0
 28 29  1  0
 28 30  1  0
 30 31  2  0
 31 32  1  0
 31 33  1  0
 33 34  2  0
 34 35  1  0
 22 36  1  0
 36 37  2  0
 10 38  1  0
 38 39  1  0
 39 40  1  0
  8 41  2  0
 41 42  1  0
 42 43  1  0
 43 44  1  0
 44 45  1  0
 45 46  1  0
 46 47  1  0
 47 48  3  0
 45 49  1  0
 49 50  1  0
 42 51  2  0
 51  6  1  0
 18 13  1  0
 37 19  1  0
 40 38  1  0
 50 45  1  0
 34 27  1  0
  1 52  1  0
  1 53  1  0
  1 54  1  0
  3 55  1  0
  3 56  1  0
  4 57  1  0
  4 58  1  0
  5 59  1  0
  5 60  1  0
  7 61  1  0
  9 62  1  0
  9 63  1  0
 13 64  1  1
 14 65  1  0
 14 66  1  0
 15 67  1  0
 16 68  1  0
 16 69  1  0
 17 70  1  0
 17 71  1  0
 18 72  1  6
 20 73  1  0
 21 74  1  0
 24 75  1  0
 24 76  1  0
 25 77  1  0
 25 78  1  0
 30 79  1  0
 32 80  1  0
 32 81  1  0
 32 82  1  0
 33 83  1  0
 36 84  1  0
 37 85  1  0
 38 86  1  0
 39 87  1  0
 39 88  1  0
 40 89  1  0
 40 90  1  0
 41 91  1  0
 44 92  1  0
 44 93  1  0
 46 94  1  0
 46 95  1  0
 49 96  1  0
 49 97  1  0
 50 98  1  0
 50 99  1  0
 51100  1  0
M  END
$$$$
