@<TRIPOS>MOLECULE
*****
 57 61 0 0 0
SMALL
GASTEIGER

@<TRIPOS>ATOM
      1 C          -4.1058    0.9375    3.3640 C.3     1  UNL1        0.0789
      2 O          -3.5783    1.1524    2.0832 O.3     1  UNL1       -0.4930
      3 C          -3.3497    2.3710    1.4859 C.ar    1  UNL1        0.1440
      4 C          -3.6334    3.5435    2.1490 C.ar    1  UNL1       -0.0179
      5 C          -3.3669    4.7143    1.4712 C.ar    1  UNL1       -0.0582
      6 C          -2.8464    4.7671    0.2078 C.ar    1  UNL1       -0.0596
      7 C          -2.5803    3.5513   -0.4141 C.ar    1  UNL1       -0.0341
      8 C          -2.8179    2.3335    0.1898 C.ar    1  UNL1        0.0934
      9 N          -2.5690    1.0998   -0.4685 N.ar    1  UNL1       -0.2522
     10 C          -1.3611    0.8719   -1.0080 C.ar    1  UNL1        0.1770
     11 S          -0.1255    2.1415   -0.8788 S.3     1  UNL1       -0.0779
     12 C           0.9264    1.9506    0.5580 C.3     1  UNL1        0.0779
     13 C           1.8980    0.7961    0.4296 C.2     1  UNL1        0.2275
     14 O           1.5537   -0.3446    0.0751 O.2     1  UNL1       -0.2746
     15 N           3.2581    1.0462    0.7283 N.am    1  UNL1       -0.2847
     16 C           4.2947    0.1004    0.6546 C.ar    1  UNL1        0.0355
     17 C           4.6776   -0.7032    1.7226 C.ar    1  UNL1       -0.0383
     18 C           5.7573   -1.5673    1.6023 C.ar    1  UNL1       -0.0325
     19 C           6.4897   -1.6667    0.4321 C.ar    1  UNL1        0.0893
     20 N           7.5532   -2.5021    0.3417 N.ar    1  UNL1       -0.2519
     21 C           8.2912   -2.6078   -0.7691 C.ar    1  UNL1        0.0464
     22 C           7.9262   -1.8163   -1.8576 C.ar    1  UNL1        0.0464
     23 N           6.8672   -0.9920   -1.7494 N.ar    1  UNL1       -0.2519
     24 C           6.1213   -0.8870   -0.6195 C.ar    1  UNL1        0.0909
     25 C           5.0655   -0.0360   -0.5156 C.ar    1  UNL1       -0.0130
     26 N          -1.0777   -0.2804   -1.6549 N.ar    1  UNL1       -0.2275
     27 C          -2.0001   -1.2350   -1.7783 C.ar    1  UNL1        0.0524
     28 C          -3.2492   -1.0362   -1.2377 C.ar    1  UNL1        0.0388
     29 C          -3.5082    0.1436   -0.5866 C.ar    1  UNL1        0.2627
     30 O          -4.6600    0.3214   -0.0925 O.2     1  UNL1       -0.2669
     31 C          -4.3580   -2.0247   -1.3067 C.3     1  UNL1       -0.0208
     32 C          -3.9291   -3.3915   -1.6910 C.3     1  UNL1       -0.0485
     33 C          -2.4336   -3.5960   -1.6032 C.3     1  UNL1       -0.0473
     34 C          -1.7751   -2.5293   -2.4729 C.3     1  UNL1       -0.0099
     35 H          -4.9845    1.5691    3.6025 H       1  UNL1        0.0660
     36 H          -4.5016   -0.1141    3.3741 H       1  UNL1        0.0660
     37 H          -3.3635    1.0313    4.1770 H       1  UNL1        0.0660
     38 H          -4.0508    3.5168    3.1602 H       1  UNL1        0.0655
     39 H          -3.5867    5.6655    1.9682 H       1  UNL1        0.0619
     40 H          -2.6292    5.7055   -0.3258 H       1  UNL1        0.0618
     41 H          -2.1617    3.5559   -1.4277 H       1  UNL1        0.0639
     42 H           0.3154    1.7030    1.4716 H       1  UNL1        0.0475
     43 H           1.4817    2.8860    0.7775 H       1  UNL1        0.0475
     44 H           3.5164    2.0502    1.0300 H       1  UNL1        0.1548
     45 H           4.0983   -0.6355    2.6516 H       1  UNL1        0.0637
     46 H           6.0690   -2.1975    2.4278 H       1  UNL1        0.0640
     47 H           9.1568   -3.2565   -0.8859 H       1  UNL1        0.0845
     48 H           8.4877   -1.8716   -2.7635 H       1  UNL1        0.0845
     49 H           4.7825    0.5786   -1.3604 H       1  UNL1        0.0658
     50 H          -4.8270   -2.0399   -0.2995 H       1  UNL1        0.0315
     51 H          -5.1371   -1.6779   -2.0132 H       1  UNL1        0.0315
     52 H          -4.3921   -4.1397   -0.9830 H       1  UNL1        0.0269
     53 H          -4.2830   -3.6654   -2.6980 H       1  UNL1        0.0269
     54 H          -2.0591   -3.4615   -0.5905 H       1  UNL1        0.0269
     55 H          -2.2274   -4.6055   -1.9924 H       1  UNL1        0.0269
     56 H          -0.7177   -2.7042   -2.6606 H       1  UNL1        0.0328
     57 H          -2.3414   -2.5189   -3.4308 H       1  UNL1        0.0328
@<TRIPOS>BOND
     1     1     2    1
     2     2     3    1
     3     3     4   ar
     4     4     5   ar
     5     5     6   ar
     6     6     7   ar
     7     7     8   ar
     8     8     9    1
     9     9    10   ar
    10    10    11    1
    11    11    12    1
    12    12    13    1
    13    13    14    2
    14    13    15   am
    15    15    16    1
    16    16    17   ar
    17    17    18   ar
    18    18    19   ar
    19    19    20   ar
    20    20    21   ar
    21    21    22   ar
    22    22    23   ar
    23    23    24   ar
    24    24    25   ar
    25    10    26   ar
    26    26    27   ar
    27    27    28   ar
    28    28    29   ar
    29    29    30    2
    30    28    31    1
    31    31    32    1
    32    32    33    1
    33    33    34    1
    34     8     3   ar
    35    29     9   ar
    36    25    16   ar
    37    34    27    1
    38    24    19   ar
    39     1    35    1
    40     1    36    1
    41     1    37    1
    42     4    38    1
    43     5    39    1
    44     6    40    1
    45     7    41    1
    46    12    42    1
    47    12    43    1
    48    15    44    1
    49    17    45    1
    50    18    46    1
    51    21    47    1
    52    22    48    1
    53    25    49    1
    54    31    50    1
    55    31    51    1
    56    32    52    1
    57    32    53    1
    58    33    54    1
    59    33    55    1
    60    34    56    1
    61    34    57    1
