
     RDKit          3D

 57 61  0  0  0  0  0  0  0  0999 V2000
   -4.1058    0.9375    3.3640 C   0  0  0  0  0  0  0  0  0  0  0  0
   -3.5783    1.1524    2.0832 O   0  0  0  0  0  0  0  0  0  0  0  0
   -3.3497    2.3710    1.4859 C   0  0  0  0  0  0  0  0  0  0  0  0
   -3.6334    3.5435    2.1490 C   0  0  0  0  0  0  0  0  0  0  0  0
   -3.3669    4.7143    1.4712 C   0  0  0  0  0  0  0  0  0  0  0  0
   -2.8464    4.7671    0.2078 C   0  0  0  0  0  0  0  0  0  0  0  0
   -2.5803    3.5513   -0.4141 C   0  0  0  0  0  0  0  0  0  0  0  0
   -2.8179    2.3335    0.1898 C   0  0  0  0  0  0  0  0  0  0  0  0
   -2.5690    1.0998   -0.4685 N   0  0  0  0  0  0  0  0  0  0  0  0
   -1.3611    0.8719   -1.0080 C   0  0  0  0  0  0  0  0  0  0  0  0
   -0.1255    2.1415   -0.8788 S   0  0  0  0  0  0  0  0  0  0  0  0
    0.9264    1.9506    0.5580 C   0  0  0  0  0  0  0  0  0  0  0  0
    1.8980    0.7961    0.4296 C   0  0  0  0  0  0  0  0  0  0  0  0
    1.5537   -0.3446    0.0751 O   0  0  0  0  0  0  0  0  0  0  0  0
    3.2581    1.0462    0.7283 N   0  0  0  0  0  0  0  0  0  0  0  0
    4.2947    0.1004    0.6546 C   0  0  0  0  0  0  0  0  0  0  0  0
    4.6776   -0.7032    1.7226 C   0  0  0  0  0  0  0  0  0  0  0  0
    5.7573   -1.5673    1.6023 C   0  0  0  0  0  0  0  0  0  0  0  0
    6.4897   -1.6667    0.4321 C   0  0  0  0  0  0  0  0  0  0  0  0
    7.5532   -2.5021    0.3417 N   0  0  0  0  0  0  0  0  0  0  0  0
    8.2912   -2.6078   -0.7691 C   0  0  0  0  0  0  0  0  0  0  0  0
    7.9262   -1.8163   -1.8576 C   0  0  0  0  0  0  0  0  0  0  0  0
    6.8672   -0.9920   -1.7494 N   0  0  0  0  0  0  0  0  0  0  0  0
    6.1213   -0.8870   -0.6195 C   0  0  0  0  0  0  0  0  0  0  0  0
    5.0655   -0.0360   -0.5156 C   0  0  0  0  0  0  0  0  0  0  0  0
   -1.0777   -0.2804   -1.6549 N   0  0  0  0  0  0  0  0  0  0  0  0
   -2.0001   -1.2350   -1.7783 C   0  0  0  0  0  0  0  0  0  0  0  0
   -3.2492   -1.0362   -1.2377 C   0  0  0  0  0  0  0  0  0  0  0  0
   -3.5082    0.1436   -0.5866 C   0  0  0  0  0  0  0  0  0  0  0  0
   -4.6600    0.3214   -0.0925 O   0  0  0  0  0  0  0  0  0  0  0  0
   -4.3580   -2.0247   -1.3067 C   0  0  0  0  0  0  0  0  0  0  0  0
   -3.9291   -3.3915   -1.6910 C   0  0  0  0  0  0  0  0  0  0  0  0
   -2.4336   -3.5960   -1.6032 C   0  0  0  0  0  0  0  0  0  0  0  0
   -1.7751   -2.5293   -2.4729 C   0  0  0  0  0  0  0  0  0  0  0  0
   -4.9845    1.5691    3.6025 H   0  0  0  0  0  0  0  0  0  0  0  0
   -4.5016   -0.1141    3.3741 H   0  0  0  0  0  0  0  0  0  0  0  0
   -3.3635    1.0313    4.1770 H   0  0  0  0  0  0  0  0  0  0  0  0
   -4.0508    3.5168    3.1602 H   0  0  0  0  0  0  0  0  0  0  0  0
   -3.5867    5.6655    1.9682 H   0  0  0  0  0  0  0  0  0  0  0  0
   -2.6292    5.7055   -0.3258 H   0  0  0  0  0  0  0  0  0  0  0  0
   -2.1617    3.5559   -1.4277 H   0  0  0  0  0  0  0  0  0  0  0  0
    0.3154    1.7030    1.4716 H   0  0  0  0  0  0  0  0  0  0  0  0
    1.4817    2.8860    0.7775 H   0  0  0  0  0  0  0  0  0  0  0  0
    3.5164    2.0502    1.0300 H   0  0  0  0  0  0  0  0  0  0  0  0
    4.0983   -0.6355    2.6516 H   0  0  0  0  0  0  0  0  0  0  0  0
    6.0690   -2.1975    2.4278 H   0  0  0  0  0  0  0  0  0  0  0  0
    9.1568   -3.2565   -0.8859 H   0  0  0  0  0  0  0  0  0  0  0  0
    8.4877   -1.8716   -2.7635 H   0  0  0  0  0  0  0  0  0  0  0  0
    4.7825    0.5786   -1.3604 H   0  0  0  0  0  0  0  0  0  0  0  0
   -4.8270   -2.0399   -0.2995 H   0  0  0  0  0  0  0  0  0  0  0  0
   -5.1371   -1.6779   -2.0132 H   0  0  0  0  0  0  0  0  0  0  0  0
   -4.3921   -4.1397   -0.9830 H   0  0  0  0  0  0  0  0  0  0  0  0
   -4.2830   -3.6654   -2.6980 H   0  0  0  0  0  0  0  0  0  0  0  0
   -2.0591   -3.4615   -0.5905 H   0  0  0  0  0  0  0  0  0  0  0  0
   -2.2274   -4.6055   -1.9924 H   0  0  0  0  0  0  0  0  0  0  0  0
   -0.7177   -2.7042   -2.6606 H   0  0  0  0  0  0  0  0  0  0  0  0
   -2.3414   -2.5189   -3.4308 H   0  0  0  0  0  0  0  0  0  0  0  0
  1  2  1  0
  2  3  1  0
  3  4  2  0
  4  5  1  0
  5  6  2  0
  6  7  1  0
  7  8  2  0
  8  9  1  0
  9 10  1  0
 10 11  1  0
 11 12  1  0
 12 13  1  0
 13 14  2  0
 13 15  1  0
 15 16  1  0
 16 17  2  0
 17 18  1  0
 18 19  2  0
 19 20  1  0
 20 21  2  0
 21 22  1  0
 22 23  2  0
 23 24  1  0
 24 25  2  0
 10 26  2  0
 26 27  1  0
 27 28  2  0
 28 29  1  0
 29 30  2  0
 28 31  1  0
 31 32  1  0
 32 33  1  0
 33 34  1  0
  8  3  1  0
 29  9  1  0
 25 16  1  0
 34 27  1  0
 24 19  1  0
  1 35  1  0
  1 36  1  0
  1 37  1  0
  4 38  1  0
  5 39  1  0
  6 40  1  0
  7 41  1  0
 12 42  1  0
 12 43  1  0
 15 44  1  0
 17 45  1  0
 18 46  1  0
 21 47  1  0
 22 48  1  0
 25 49  1  0
 31 50  1  0
 31 51  1  0
 32 52  1  0
 32 53  1  0
 33 54  1  0
 33 55  1  0
 34 56  1  0
 34 57  1  0
M  END
$$$$
