
     RDKit          3D

 34 36  0  0  0  0  0  0  0  0999 V2000
    5.6344    1.7846    0.7319 C   0  0  0  0  0  0  0  0  0  0  0  0
    4.2464    1.6655    0.4754 O   0  0  0  0  0  0  0  0  0  0  0  0
    3.5803    0.4661    0.4403 C   0  0  0  0  0  0  0  0  0  0  0  0
    4.2829   -0.7155    0.6657 C   0  0  0  0  0  0  0  0  0  0  0  0
    3.5759   -1.8565    0.6183 N   0  0  0  0  0  0  0  0  0  0  0  0
    2.2603   -1.8677    0.3673 C   0  0  0  0  0  0  0  0  0  0  0  0
    1.5387   -0.7156    0.1405 C   0  0  0  0  0  0  0  0  0  0  0  0
    0.1047   -0.7832   -0.1294 C   0  0  0  0  0  0  0  0  0  0  0  0
   -0.4711   -1.8539   -0.7893 C   0  0  0  0  0  0  0  0  0  0  0  0
   -1.8159   -1.9374   -1.0523 C   0  0  0  0  0  0  0  0  0  0  0  0
   -2.6668   -0.9197   -0.6525 C   0  0  0  0  0  0  0  0  0  0  0  0
   -2.1079    0.1547    0.0066 C   0  0  0  0  0  0  0  0  0  0  0  0
   -0.7543    0.2256    0.2643 C   0  0  0  0  0  0  0  0  0  0  0  0
   -3.0555    1.2342    0.4232 C   0  0  0  0  0  0  0  0  0  0  0  0
   -3.8505    1.6047   -0.8361 C   0  0  0  0  0  0  0  0  0  0  0  0
   -4.5609    0.3875   -1.3213 C   0  0  0  0  0  0  0  0  0  0  0  0
   -5.5303    0.4544   -2.0707 O   0  0  0  0  0  0  0  0  0  0  0  0
   -4.1336   -0.9812   -0.9231 C   0  0  0  0  0  0  0  0  0  0  0  0
    2.2256    0.4790    0.1800 C   0  0  0  0  0  0  0  0  0  0  0  0
    6.2460    1.1838    0.0135 H   0  0  0  0  0  0  0  0  0  0  0  0
    5.9123    1.4108    1.7442 H   0  0  0  0  0  0  0  0  0  0  0  0
    5.9412    2.8404    0.5889 H   0  0  0  0  0  0  0  0  0  0  0  0
    5.3506   -0.7005    0.8687 H   0  0  0  0  0  0  0  0  0  0  0  0
    1.7414   -2.8156    0.3409 H   0  0  0  0  0  0  0  0  0  0  0  0
    0.1525   -2.6700   -1.1191 H   0  0  0  0  0  0  0  0  0  0  0  0
   -2.2738   -2.7810   -1.5733 H   0  0  0  0  0  0  0  0  0  0  0  0
   -0.3644    1.1006    0.7905 H   0  0  0  0  0  0  0  0  0  0  0  0
   -2.5376    2.1224    0.7952 H   0  0  0  0  0  0  0  0  0  0  0  0
   -3.7656    0.7778    1.1343 H   0  0  0  0  0  0  0  0  0  0  0  0
   -3.0767    1.9095   -1.5942 H   0  0  0  0  0  0  0  0  0  0  0  0
   -4.5493    2.4397   -0.6343 H   0  0  0  0  0  0  0  0  0  0  0  0
   -4.6366   -1.2890    0.0404 H   0  0  0  0  0  0  0  0  0  0  0  0
   -4.3016   -1.7308   -1.7134 H   0  0  0  0  0  0  0  0  0  0  0  0
    1.6591    1.3762    0.0026 H   0  0  0  0  0  0  0  0  0  0  0  0
  1  2  1  0
  2  3  1  0
  3  4  2  0
  4  5  1  0
  5  6  2  0
  6  7  1  0
  7  8  1  0
  8  9  2  0
  9 10  1  0
 10 11  2  0
 11 12  1  0
 12 13  2  0
 12 14  1  0
 14 15  1  0
 15 16  1  0
 16 17  2  0
 16 18  1  0
  7 19  2  0
 19  3  1  0
 13  8  1  0
 18 11  1  0
  1 20  1  0
  1 21  1  0
  1 22  1  0
  4 23  1  0
  6 24  1  0
  9 25  1  0
 10 26  1  0
 13 27  1  0
 14 28  1  0
 14 29  1  0
 15 30  1  0
 15 31  1  0
 18 32  1  0
 18 33  1  0
 19 34  1  0
M  END
$$$$
