@<TRIPOS>MOLECULE
*****
 34 36 0 0 0
SMALL
GASTEIGER

@<TRIPOS>ATOM
      1 C           5.6344    1.7846    0.7319 C.3     1  UNL1        0.0789
      2 O           4.2464    1.6655    0.4754 O.3     1  UNL1       -0.4936
      3 C           3.5803    0.4661    0.4403 C.ar    1  UNL1        0.1387
      4 C           4.2829   -0.7155    0.6657 C.ar    1  UNL1        0.0692
      5 N           3.5759   -1.8565    0.6183 N.ar    1  UNL1       -0.2590
      6 C           2.2603   -1.8677    0.3673 C.ar    1  UNL1        0.0355
      7 C           1.5387   -0.7156    0.1405 C.ar    1  UNL1        0.0037
      8 C           0.1047   -0.7832   -0.1294 C.ar    1  UNL1       -0.0160
      9 C          -0.4711   -1.8539   -0.7893 C.ar    1  UNL1       -0.0537
     10 C          -1.8159   -1.9374   -1.0523 C.ar    1  UNL1       -0.0573
     11 C          -2.6668   -0.9197   -0.6525 C.ar    1  UNL1       -0.0371
     12 C          -2.1079    0.1547    0.0066 C.ar    1  UNL1       -0.0428
     13 C          -0.7543    0.2256    0.2643 C.ar    1  UNL1       -0.0505
     14 C          -3.0555    1.2342    0.4232 C.3     1  UNL1       -0.0207
     15 C          -3.8505    1.6047   -0.8361 C.3     1  UNL1        0.0101
     16 C          -4.5609    0.3875   -1.3213 C.2     1  UNL1        0.1379
     17 O          -5.5303    0.4544   -2.0707 O.2     1  UNL1       -0.2971
     18 C          -4.1336   -0.9812   -0.9231 C.3     1  UNL1        0.0313
     19 C           2.2256    0.4790    0.1800 C.ar    1  UNL1       -0.0093
     20 H           6.2460    1.1838    0.0135 H       1  UNL1        0.0660
     21 H           5.9123    1.4108    1.7442 H       1  UNL1        0.0660
     22 H           5.9412    2.8404    0.5889 H       1  UNL1        0.0660
     23 H           5.3506   -0.7005    0.8687 H       1  UNL1        0.0867
     24 H           1.7414   -2.8156    0.3409 H       1  UNL1        0.0836
     25 H           0.1525   -2.6700   -1.1191 H       1  UNL1        0.0624
     26 H          -2.2738   -2.7810   -1.5733 H       1  UNL1        0.0621
     27 H          -0.3644    1.1006    0.7905 H       1  UNL1        0.0626
     28 H          -2.5376    2.1224    0.7952 H       1  UNL1        0.0317
     29 H          -3.7656    0.7778    1.1343 H       1  UNL1        0.0317
     30 H          -3.0767    1.9095   -1.5942 H       1  UNL1        0.0345
     31 H          -4.5493    2.4397   -0.6343 H       1  UNL1        0.0345
     32 H          -4.6366   -1.2890    0.0404 H       1  UNL1        0.0390
     33 H          -4.3016   -1.7308   -1.7134 H       1  UNL1        0.0390
     34 H           1.6591    1.3762    0.0026 H       1  UNL1        0.0661
@<TRIPOS>BOND
     1     1     2    1
     2     2     3    1
     3     3     4   ar
     4     4     5   ar
     5     5     6   ar
     6     6     7   ar
     7     7     8    1
     8     8     9   ar
     9     9    10   ar
    10    10    11   ar
    11    11    12   ar
    12    12    13   ar
    13    12    14    1
    14    14    15    1
    15    15    16    1
    16    16    17    2
    17    16    18    1
    18     7    19   ar
    19    19     3   ar
    20    13     8   ar
    21    18    11    1
    22     1    20    1
    23     1    21    1
    24     1    22    1
    25     4    23    1
    26     6    24    1
    27     9    25    1
    28    10    26    1
    29    13    27    1
    30    14    28    1
    31    14    29    1
    32    15    30    1
    33    15    31    1
    34    18    32    1
    35    18    33    1
    36    19    34    1
