@<TRIPOS>MOLECULE
*****
 53 56 0 0 0
SMALL
GASTEIGER

@<TRIPOS>ATOM
      1 C          -3.8376    0.7901   -2.0199 C.3     1  UNL1       -0.0220
      2 C          -4.8051    0.9654   -0.9352 C.ar    1  UNL1        0.0450
      3 N          -5.2914    2.1742   -0.6366 N.ar    1  UNL1       -0.2373
      4 C          -6.1801    2.3719    0.3517 C.ar    1  UNL1        0.1164
      5 N          -6.6509    3.6774    0.6106 N.pl3   1  UNL1       -0.3431
      6 C          -6.6452    1.3226    1.1227 C.ar    1  UNL1       -0.0218
      7 C          -6.1453    0.0733    0.8171 C.ar    1  UNL1       -0.0521
      8 C          -5.2324   -0.1181   -0.2007 C.ar    1  UNL1       -0.0092
      9 C          -4.7402   -1.4684   -0.4703 C.3     1  UNL1        0.0388
     10 N          -3.4019   -1.6440    0.0464 N.am    1  UNL1       -0.3071
     11 C          -2.6697   -2.8480   -0.0486 C.2     1  UNL1        0.2473
     12 O          -3.1752   -3.8374   -0.6031 O.2     1  UNL1       -0.2701
     13 C          -1.3215   -2.9110    0.5106 C.ar    1  UNL1        0.0741
     14 C          -0.4698   -3.9871    0.5342 C.ar    1  UNL1        0.0615
     15 N           0.6632   -3.5807    1.1492 N.ar    1  UNL1       -0.1786
     16 N           0.5671   -2.3201    1.5080 N.ar    1  UNL1       -0.2664
     17 C           1.6193   -1.5583    2.1992 C.3     1  UNL1        0.0665
     18 C           2.5117   -0.9029    1.1967 C.ar    1  UNL1       -0.0261
     19 C           3.6364   -1.5453    0.7202 C.ar    1  UNL1       -0.0565
     20 C           4.4807   -0.9714   -0.2076 C.ar    1  UNL1       -0.0565
     21 C           4.2255    0.2900   -0.7019 C.ar    1  UNL1       -0.0261
     22 C           5.1460    0.9106   -1.7094 C.3     1  UNL1        0.0665
     23 N           6.1683    1.6666   -1.0412 N.ar    1  UNL1       -0.2671
     24 C           7.3518    1.1202   -0.6657 C.ar    1  UNL1        0.0258
     25 C           8.0620    2.1321   -0.0650 C.ar    1  UNL1       -0.0242
     26 C           7.2611    3.2589   -0.1070 C.ar    1  UNL1        0.0494
     27 N           6.1086    2.9260   -0.7149 N.ar    1  UNL1       -0.1794
     28 C           3.1046    0.9433   -0.2339 C.ar    1  UNL1       -0.0565
     29 C           2.2526    0.3627    0.7033 C.ar    1  UNL1       -0.0565
     30 C          -0.6264   -1.8877    1.1335 C.ar    1  UNL1        0.0380
     31 H          -4.3651    0.6997   -2.9857 H       1  UNL1        0.0293
     32 H          -3.2146    1.7291   -2.0959 H       1  UNL1        0.0293
     33 H          -3.1005   -0.0192   -1.8458 H       1  UNL1        0.0293
     34 H          -6.4687    4.4893   -0.0101 H       1  UNL1        0.1437
     35 H          -7.2240    3.8871    1.4700 H       1  UNL1        0.1437
     36 H          -7.3601    1.4700    1.9198 H       1  UNL1        0.0652
     37 H          -6.4811   -0.7840    1.3958 H       1  UNL1        0.0622
     38 H          -4.8154   -1.7589   -1.5411 H       1  UNL1        0.0512
     39 H          -5.3726   -2.1986    0.0807 H       1  UNL1        0.0512
     40 H          -2.9497   -0.8354    0.5163 H       1  UNL1        0.1493
     41 H          -0.7207   -4.9601    0.1182 H       1  UNL1        0.0855
     42 H           2.1923   -2.2488    2.8409 H       1  UNL1        0.0558
     43 H           1.1648   -0.7950    2.8729 H       1  UNL1        0.0558
     44 H           3.8232   -2.5338    1.1170 H       1  UNL1        0.0621
     45 H           5.3594   -1.4843   -0.5747 H       1  UNL1        0.0621
     46 H           4.5428    1.5066   -2.4122 H       1  UNL1        0.0558
     47 H           5.5928    0.0528   -2.2876 H       1  UNL1        0.0558
     48 H           7.6729    0.0937   -0.8103 H       1  UNL1        0.0826
     49 H           9.0434    2.1145    0.3691 H       1  UNL1        0.0648
     50 H           7.4973    4.2381    0.2727 H       1  UNL1        0.0848
     51 H           2.8750    1.9446   -0.6060 H       1  UNL1        0.0621
     52 H           1.3654    0.8836    1.0727 H       1  UNL1        0.0621
     53 H          -1.0227   -0.8960    1.2782 H       1  UNL1        0.0834
@<TRIPOS>BOND
     1     1     2    1
     2     2     3   ar
     3     3     4   ar
     4     4     5    1
     5     4     6   ar
     6     6     7   ar
     7     7     8   ar
     8     8     9    1
     9     9    10    1
    10    10    11   am
    11    11    12    2
    12    11    13    1
    13    13    14   ar
    14    14    15   ar
    15    15    16   ar
    16    16    17    1
    17    17    18    1
    18    18    19   ar
    19    19    20   ar
    20    20    21   ar
    21    21    22    1
    22    22    23    1
    23    23    24   ar
    24    24    25   ar
    25    25    26   ar
    26    26    27   ar
    27    21    28   ar
    28    28    29   ar
    29    16    30   ar
    30     8     2   ar
    31    30    13   ar
    32    29    18   ar
    33    27    23   ar
    34     1    31    1
    35     1    32    1
    36     1    33    1
    37     5    34    1
    38     5    35    1
    39     6    36    1
    40     7    37    1
    41     9    38    1
    42     9    39    1
    43    10    40    1
    44    14    41    1
    45    17    42    1
    46    17    43    1
    47    19    44    1
    48    20    45    1
    49    22    46    1
    50    22    47    1
    51    24    48    1
    52    25    49    1
    53    26    50    1
    54    28    51    1
    55    29    52    1
    56    30    53    1
