@<TRIPOS>MOLECULE
*****
 30 30 0 0 0
SMALL
GASTEIGER

@<TRIPOS>ATOM
      1 C           3.3816    0.3483   -0.8502 C.3     1  UNL1       -0.0413
      2 C           2.6048   -0.5390    0.1011 C.3     1  UNL1        0.0798
      3 N           3.0395   -0.4396    1.4594 N.3     1  UNL1       -0.3202
      4 C           1.1356   -0.3265   -0.0633 C.2     1  UNL1        0.2338
      5 O           0.6628   -0.3984   -1.2483 O.2     1  UNL1       -0.2738
      6 N           0.1526   -0.0451    0.9486 N.am    1  UNL1       -0.2838
      7 C          -1.1062    0.0684    0.2543 C.ar    1  UNL1        0.0393
      8 C          -1.8478   -1.0852    0.0997 C.ar    1  UNL1       -0.0290
      9 C          -1.4028   -2.4098    0.6129 C.3     1  UNL1       -0.0379
     10 C          -3.0568   -1.0101   -0.5601 C.ar    1  UNL1       -0.0571
     11 C          -3.4502    0.2290   -1.0279 C.ar    1  UNL1       -0.0611
     12 C          -2.7013    1.3888   -0.8708 C.ar    1  UNL1       -0.0571
     13 C          -1.4929    1.3087   -0.2103 C.ar    1  UNL1       -0.0290
     14 C          -0.5815    2.4716    0.0329 C.3     1  UNL1       -0.0379
     15 H           2.8387    0.3104   -1.8307 H       1  UNL1        0.0249
     16 H           3.3455    1.3867   -0.4381 H       1  UNL1        0.0249
     17 H           4.4214   -0.0380   -0.9375 H       1  UNL1        0.0249
     18 H           2.7933   -1.5899   -0.2225 H       1  UNL1        0.0551
     19 H           3.8602   -1.0137    1.6847 H       1  UNL1        0.1189
     20 H           3.0732    0.5327    1.8337 H       1  UNL1        0.1189
     21 H           0.5837    0.0070    1.9202 H       1  UNL1        0.1549
     22 H          -0.5509   -2.3243    1.3084 H       1  UNL1        0.0278
     23 H          -1.2282   -3.1567   -0.1875 H       1  UNL1        0.0278
     24 H          -2.2490   -2.7788    1.2639 H       1  UNL1        0.0278
     25 H          -3.6837   -1.8798   -0.7128 H       1  UNL1        0.0621
     26 H          -4.3906    0.3580   -1.5558 H       1  UNL1        0.0618
     27 H          -3.0112    2.3468   -1.2356 H       1  UNL1        0.0621
     28 H          -0.4873    2.5778    1.1475 H       1  UNL1        0.0278
     29 H          -1.0826    3.3875   -0.3200 H       1  UNL1        0.0278
     30 H           0.4302    2.3134   -0.3959 H       1  UNL1        0.0278
@<TRIPOS>BOND
     1     1     2    1
     2     2     3    1
     3     2     4    1
     4     4     5    2
     5     4     6   am
     6     6     7    1
     7     7     8   ar
     8     8     9    1
     9     8    10   ar
    10    10    11   ar
    11    11    12   ar
    12    12    13   ar
    13    13    14    1
    14    13     7   ar
    15     1    15    1
    16     1    16    1
    17     1    17    1
    18     2    18    1
    19     3    19    1
    20     3    20    1
    21     6    21    1
    22     9    22    1
    23     9    23    1
    24     9    24    1
    25    10    25    1
    26    11    26    1
    27    12    27    1
    28    14    28    1
    29    14    29    1
    30    14    30    1
