@<TRIPOS>MOLECULE
*****
 35 36 0 0 0
SMALL
GASTEIGER

@<TRIPOS>ATOM
      1 C           5.5639   -0.0103    0.8236 C.3     1  UNL1       -0.0014
      2 C           4.8638    0.0614   -0.4643 C.2     1  UNL1        0.1601
      3 O           5.5151   -0.0551   -1.5280 O.2     1  UNL1       -0.2924
      4 C           3.4268    0.2650   -0.5474 C.ar    1  UNL1        0.0180
      5 C           2.8375    0.3216   -1.7908 C.ar    1  UNL1       -0.0495
      6 C           1.4817    0.5127   -1.8773 C.ar    1  UNL1       -0.0391
      7 C           0.6680    0.6534   -0.7462 C.ar    1  UNL1        0.0455
      8 N          -0.7223    0.8473   -0.9544 N.pl3   1  UNL1       -0.3138
      9 C          -1.7280   -0.0701   -0.5454 C.ar    1  UNL1        0.0321
     10 C          -1.3648   -1.3619   -0.1790 C.ar    1  UNL1       -0.0405
     11 C          -2.3202   -2.2665    0.2210 C.ar    1  UNL1       -0.0592
     12 C          -3.6613   -1.8881    0.2601 C.ar    1  UNL1       -0.0477
     13 C          -4.0403   -0.6145   -0.0987 C.ar    1  UNL1        0.0606
     14 C          -5.4558   -0.1987   -0.0626 C.2     1  UNL1        0.3369
     15 O          -6.3539   -0.9821    0.2922 O.2     1  UNL1       -0.2451
     16 O          -5.8291    1.0870   -0.4258 O.3     1  UNL1       -0.4771
     17 C          -3.0627    0.2685   -0.4944 C.ar    1  UNL1       -0.0266
     18 C           1.2491    0.6001    0.5017 C.ar    1  UNL1        0.0806
     19 C           0.4717    0.7934    1.7168 C.2     1  UNL1        0.3386
     20 O           1.0762    0.6971    2.8239 O.2     1  UNL1       -0.2451
     21 O          -0.8693    1.0763    1.7802 O.3     1  UNL1       -0.4771
     22 C           2.6292    0.4039    0.5633 C.ar    1  UNL1       -0.0355
     23 H           6.5215   -0.5117    0.6948 H       1  UNL1        0.0309
     24 H           4.8934   -0.5262    1.5583 H       1  UNL1        0.0309
     25 H           5.7385    1.0088    1.2554 H       1  UNL1        0.0309
     26 H           3.4440    0.2153   -2.7002 H       1  UNL1        0.0625
     27 H           1.0171    0.5575   -2.8502 H       1  UNL1        0.0636
     28 H          -1.0369    1.7259   -1.4432 H       1  UNL1        0.1522
     29 H          -0.3253   -1.6455   -0.2123 H       1  UNL1        0.0636
     30 H          -2.0797   -3.2842    0.5151 H       1  UNL1        0.0618
     31 H          -4.4115   -2.5959    0.5734 H       1  UNL1        0.0626
     32 H          -6.5690    1.5778    0.0974 H       1  UNL1        0.2954
     33 H          -3.3415    1.2676   -0.7780 H       1  UNL1        0.0644
     34 H          -1.2848    1.7056    2.4829 H       1  UNL1        0.2954
     35 H           3.0587    0.3642    1.5381 H       1  UNL1        0.0633
@<TRIPOS>BOND
     1     1     2    1
     2     2     3    2
     3     2     4    1
     4     4     5   ar
     5     5     6   ar
     6     6     7   ar
     7     7     8    1
     8     8     9    1
     9     9    10   ar
    10    10    11   ar
    11    11    12   ar
    12    12    13   ar
    13    13    14    1
    14    14    15    2
    15    14    16    1
    16    13    17   ar
    17     7    18   ar
    18    18    19    1
    19    19    20    2
    20    19    21    1
    21    18    22   ar
    22    22     4   ar
    23    17     9   ar
    24     1    23    1
    25     1    24    1
    26     1    25    1
    27     5    26    1
    28     6    27    1
    29     8    28    1
    30    10    29    1
    31    11    30    1
    32    12    31    1
    33    16    32    1
    34    17    33    1
    35    21    34    1
    36    22    35    1
