
     RDKit          3D

 35 36  0  0  0  0  0  0  0  0999 V2000
    5.5639   -0.0103    0.8236 C   0  0  0  0  0  0  0  0  0  0  0  0
    4.8638    0.0614   -0.4643 C   0  0  0  0  0  0  0  0  0  0  0  0
    5.5151   -0.0551   -1.5280 O   0  0  0  0  0  0  0  0  0  0  0  0
    3.4268    0.2650   -0.5474 C   0  0  0  0  0  0  0  0  0  0  0  0
    2.8375    0.3216   -1.7908 C   0  0  0  0  0  0  0  0  0  0  0  0
    1.4817    0.5127   -1.8773 C   0  0  0  0  0  0  0  0  0  0  0  0
    0.6680    0.6534   -0.7462 C   0  0  0  0  0  0  0  0  0  0  0  0
   -0.7223    0.8473   -0.9544 N   0  0  0  0  0  0  0  0  0  0  0  0
   -1.7280   -0.0701   -0.5454 C   0  0  0  0  0  0  0  0  0  0  0  0
   -1.3648   -1.3619   -0.1790 C   0  0  0  0  0  0  0  0  0  0  0  0
   -2.3202   -2.2665    0.2210 C   0  0  0  0  0  0  0  0  0  0  0  0
   -3.6613   -1.8881    0.2601 C   0  0  0  0  0  0  0  0  0  0  0  0
   -4.0403   -0.6145   -0.0987 C   0  0  0  0  0  0  0  0  0  0  0  0
   -5.4558   -0.1987   -0.0626 C   0  0  0  0  0  0  0  0  0  0  0  0
   -6.3539   -0.9821    0.2922 O   0  0  0  0  0  0  0  0  0  0  0  0
   -5.8291    1.0870   -0.4258 O   0  0  0  0  0  0  0  0  0  0  0  0
   -3.0627    0.2685   -0.4944 C   0  0  0  0  0  0  0  0  0  0  0  0
    1.2491    0.6001    0.5017 C   0  0  0  0  0  0  0  0  0  0  0  0
    0.4717    0.7934    1.7168 C   0  0  0  0  0  0  0  0  0  0  0  0
    1.0762    0.6971    2.8239 O   0  0  0  0  0  0  0  0  0  0  0  0
   -0.8693    1.0763    1.7802 O   0  0  0  0  0  0  0  0  0  0  0  0
    2.6292    0.4039    0.5633 C   0  0  0  0  0  0  0  0  0  0  0  0
    6.5215   -0.5117    0.6948 H   0  0  0  0  0  0  0  0  0  0  0  0
    4.8934   -0.5262    1.5583 H   0  0  0  0  0  0  0  0  0  0  0  0
    5.7385    1.0088    1.2554 H   0  0  0  0  0  0  0  0  0  0  0  0
    3.4440    0.2153   -2.7002 H   0  0  0  0  0  0  0  0  0  0  0  0
    1.0171    0.5575   -2.8502 H   0  0  0  0  0  0  0  0  0  0  0  0
   -1.0369    1.7259   -1.4432 H   0  0  0  0  0  0  0  0  0  0  0  0
   -0.3253   -1.6455   -0.2123 H   0  0  0  0  0  0  0  0  0  0  0  0
   -2.0797   -3.2842    0.5151 H   0  0  0  0  0  0  0  0  0  0  0  0
   -4.4115   -2.5959    0.5734 H   0  0  0  0  0  0  0  0  0  0  0  0
   -6.5690    1.5778    0.0974 H   0  0  0  0  0  0  0  0  0  0  0  0
   -3.3415    1.2676   -0.7780 H   0  0  0  0  0  0  0  0  0  0  0  0
   -1.2848    1.7056    2.4829 H   0  0  0  0  0  0  0  0  0  0  0  0
    3.0587    0.3642    1.5381 H   0  0  0  0  0  0  0  0  0  0  0  0
  1  2  1  0
  2  3  2  0
  2  4  1  0
  4  5  2  0
  5  6  1  0
  6  7  2  0
  7  8  1  0
  8  9  1  0
  9 10  2  0
 10 11  1  0
 11 12  2  0
 12 13  1  0
 13 14  1  0
 14 15  2  0
 14 16  1  0
 13 17  2  0
  7 18  1  0
 18 19  1  0
 19 20  2  0
 19 21  1  0
 18 22  2  0
 22  4  1  0
 17  9  1  0
  1 23  1  0
  1 24  1  0
  1 25  1  0
  5 26  1  0
  6 27  1  0
  8 28  1  0
 10 29  1  0
 11 30  1  0
 12 31  1  0
 16 32  1  0
 17 33  1  0
 21 34  1  0
 22 35  1  0
M  END
$$$$
