
     RDKit          3D

 79 84  0  0  0  0  0  0  0  0999 V2000
    3.2701    1.6903   -2.2654 O   0  0  0  0  0  0  0  0  0  0  0  0
    3.1030    0.6990   -1.4713 C   0  0  0  0  0  0  0  0  0  0  0  0
    4.1771   -0.3098   -1.3898 C   0  0  0  0  0  0  0  0  0  0  0  0
    4.7714   -0.3104   -0.0259 C   0  0  0  0  0  0  0  0  0  0  0  0
    6.1311   -1.0007    0.0485 C   0  0  0  0  0  0  0  0  0  0  0  0
    6.9576   -0.5404   -1.0246 N   0  0  0  0  0  0  0  0  0  0  0  0
    8.1939    0.1000   -0.7861 C   0  0  0  0  0  0  0  0  0  0  0  0
    8.7707    0.2913    0.4429 C   0  0  0  0  0  0  0  0  0  0  0  0
    9.9907    0.9349    0.6215 C   0  0  0  0  0  0  0  0  0  0  0  0
   10.5484    1.1002    1.9885 C   0  0  0  0  0  0  0  0  0  0  0  0
   11.9071    0.8540    1.9797 F   0  0  0  0  0  0  0  0  0  0  0  0
    9.9571    0.1463    2.7935 F   0  0  0  0  0  0  0  0  0  0  0  0
   10.2371    2.3311    2.5290 F   0  0  0  0  0  0  0  0  0  0  0  0
   10.6377    1.3959   -0.5004 C   0  0  0  0  0  0  0  0  0  0  0  0
   10.0524    1.2009   -1.7401 C   0  0  0  0  0  0  0  0  0  0  0  0
    8.8763    0.5769   -1.8765 N   0  0  0  0  0  0  0  0  0  0  0  0
    6.4565   -0.7699   -2.3735 C   0  0  0  0  0  0  0  0  0  0  0  0
    5.1597   -0.0299   -2.5074 C   0  0  0  0  0  0  0  0  0  0  0  0
    1.9207    0.6215   -0.7298 N   0  0  0  0  0  0  0  0  0  0  0  0
    0.8561    1.5993   -0.8031 C   0  0  0  0  0  0  0  0  0  0  0  0
   -0.1149    1.1553    0.2791 C   0  0  0  0  0  0  0  0  0  0  0  0
    0.0088   -0.3274    0.2323 C   0  0  2  0  0  0  0  0  0  0  0  0
   -0.4376   -1.0927    1.3085 N   0  0  0  0  0  0  0  0  0  0  0  0
   -1.7973   -1.1611    1.6542 C   0  0  1  0  0  0  0  0  0  0  0  0
   -2.3597    0.1264    2.1267 C   0  0  0  0  0  0  0  0  0  0  0  0
   -3.5286    0.5362    1.2152 C   0  0  0  0  0  0  0  0  0  0  0  0
   -4.6103   -0.5078    1.4856 C   0  0  1  0  0  0  0  0  0  0  0  0
   -4.6808   -0.5916    2.8968 O   0  0  0  0  0  0  0  0  0  0  0  0
   -5.9071   -0.1410    0.9189 C   0  0  0  0  0  0  0  0  0  0  0  0
   -6.9658   -1.0039    1.0876 C   0  0  0  0  0  0  0  0  0  0  0  0
   -8.2314   -0.7152    0.5728 C   0  0  0  0  0  0  0  0  0  0  0  0
   -8.4181    0.4619   -0.1192 C   0  0  0  0  0  0  0  0  0  0  0  0
   -9.7471    0.7440   -0.6494 C   0  0  0  0  0  0  0  0  0  0  0  0
   -9.9958    1.8812   -1.3392 N   0  0  0  0  0  0  0  0  0  0  0  0
  -11.2169    2.1613   -1.8375 C   0  0  0  0  0  0  0  0  0  0  0  0
  -12.2759    1.2897   -1.6624 C   0  0  0  0  0  0  0  0  0  0  0  0
  -12.0107    0.1348   -0.9580 C   0  0  0  0  0  0  0  0  0  0  0  0
  -10.7753   -0.1049   -0.4778 N   0  0  0  0  0  0  0  0  0  0  0  0
   -7.3419    1.3022   -0.2707 C   0  0  0  0  0  0  0  0  0  0  0  0
   -6.1168    0.9936    0.2435 N   0  0  0  0  0  0  0  0  0  0  0  0
   -4.0865   -1.8207    1.0012 C   0  0  0  0  0  0  0  0  0  0  0  0
   -2.6583   -1.8178    0.5854 C   0  0  0  0  0  0  0  0  0  0  0  0
    1.5613   -0.4307    0.2062 C   0  0  0  0  0  0  0  0  0  0  0  0
    3.7305   -1.3335   -1.5498 H   0  0  0  0  0  0  0  0  0  0  0  0
    4.7958    0.6874    0.4399 H   0  0  0  0  0  0  0  0  0  0  0  0
    4.0959   -0.9341    0.6329 H   0  0  0  0  0  0  0  0  0  0  0  0
    5.8979   -2.0933   -0.1260 H   0  0  0  0  0  0  0  0  0  0  0  0
    6.5011   -0.8304    1.0599 H   0  0  0  0  0  0  0  0  0  0  0  0
    8.2707   -0.0671    1.3152 H   0  0  0  0  0  0  0  0  0  0  0  0
   11.5877    1.9035   -0.4267 H   0  0  0  0  0  0  0  0  0  0  0  0
   10.6004    1.5832   -2.5980 H   0  0  0  0  0  0  0  0  0  0  0  0
    6.2197   -1.8650   -2.4271 H   0  0  0  0  0  0  0  0  0  0  0  0
    7.1383   -0.4345   -3.1534 H   0  0  0  0  0  0  0  0  0  0  0  0
    5.3216    1.0719   -2.5741 H   0  0  0  0  0  0  0  0  0  0  0  0
    4.6818   -0.3282   -3.4547 H   0  0  0  0  0  0  0  0  0  0  0  0
    0.4066    1.5109   -1.8122 H   0  0  0  0  0  0  0  0  0  0  0  0
    1.2248    2.6249   -0.5954 H   0  0  0  0  0  0  0  0  0  0  0  0
   -1.1013    1.5695    0.0444 H   0  0  0  0  0  0  0  0  0  0  0  0
    0.3274    1.5451    1.2243 H   0  0  0  0  0  0  0  0  0  0  0  0
   -0.2749   -0.7115   -0.7774 H   0  0  0  0  0  0  0  0  0  0  0  0
    0.0587   -2.0089    1.3322 H   0  0  0  0  0  0  0  0  0  0  0  0
   -1.8703   -1.8843    2.5290 H   0  0  0  0  0  0  0  0  0  0  0  0
   -1.6799    0.9577    2.2675 H   0  0  0  0  0  0  0  0  0  0  0  0
   -2.8722    0.0087    3.1388 H   0  0  0  0  0  0  0  0  0  0  0  0
   -3.8575    1.5509    1.4660 H   0  0  0  0  0  0  0  0  0  0  0  0
   -3.2079    0.4381    0.1651 H   0  0  0  0  0  0  0  0  0  0  0  0
   -5.3204    0.0958    3.2460 H   0  0  0  0  0  0  0  0  0  0  0  0
   -6.8429   -1.9327    1.6273 H   0  0  0  0  0  0  0  0  0  0  0  0
   -9.0704   -1.3827    0.6979 H   0  0  0  0  0  0  0  0  0  0  0  0
  -11.4312    3.0747   -2.3950 H   0  0  0  0  0  0  0  0  0  0  0  0
  -13.2563    1.5130   -2.0609 H   0  0  0  0  0  0  0  0  0  0  0  0
  -12.8343   -0.5537   -0.8163 H   0  0  0  0  0  0  0  0  0  0  0  0
   -7.4836    2.2142   -0.8060 H   0  0  0  0  0  0  0  0  0  0  0  0
   -4.3386   -2.6196    1.7353 H   0  0  0  0  0  0  0  0  0  0  0  0
   -4.6925   -2.0847    0.0844 H   0  0  0  0  0  0  0  0  0  0  0  0
   -2.5279   -1.3936   -0.4087 H   0  0  0  0  0  0  0  0  0  0  0  0
   -2.3108   -2.8899    0.5470 H   0  0  0  0  0  0  0  0  0  0  0  0
    1.8957   -1.3835   -0.1986 H   0  0  0  0  0  0  0  0  0  0  0  0
    1.9501   -0.2592    1.2178 H   0  0  0  0  0  0  0  0  0  0  0  0
  1  2  2  0
  2  3  1  0
  3  4  1  0
  4  5  1  0
  5  6  1  0
  6  7  1  0
  7  8  2  0
  8  9  1  0
  9 10  1  0
 10 11  1  0
 10 12  1  0
 10 13  1  0
  9 14  2  0
 14 15  1  0
 15 16  2  0
  6 17  1  0
 17 18  1  0
  2 19  1  0
 19 20  1  0
 20 21  1  0
 21 22  1  0
 22 23  1  0
 23 24  1  0
 24 25  1  0
 25 26  1  0
 26 27  1  0
 27 28  1  1
 27 29  1  0
 29 30  2  0
 30 31  1  0
 31 32  2  0
 32 33  1  0
 33 34  2  0
 34 35  1  0
 35 36  2  0
 36 37  1  0
 37 38  2  0
 32 39  1  0
 39 40  2  0
 27 41  1  0
 41 42  1  0
 22 43  1  0
 18  3  1  0
 43 19  1  0
 16  7  1  0
 42 24  1  0
 40 29  1  0
 38 33  1  0
  3 44  1  0
  4 45  1  0
  4 46  1  0
  5 47  1  0
  5 48  1  0
  8 49  1  0
 14 50  1  0
 15 51  1  0
 17 52  1  0
 17 53  1  0
 18 54  1  0
 18 55  1  0
 20 56  1  0
 20 57  1  0
 21 58  1  0
 21 59  1  0
 22 60  1  6
 23 61  1  0
 24 62  1  1
 25 63  1  0
 25 64  1  0
 26 65  1  0
 26 66  1  0
 28 67  1  0
 30 68  1  0
 31 69  1  0
 35 70  1  0
 36 71  1  0
 37 72  1  0
 39 73  1  0
 41 74  1  0
 41 75  1  0
 42 76  1  0
 42 77  1  0
 43 78  1  0
 43 79  1  0
M  END
$$$$
