@<TRIPOS>MOLECULE
*****
 79 84 0 0 0
SMALL
GASTEIGER

@<TRIPOS>ATOM
      1 O           3.2701    1.6903   -2.2654 O.2     1  UNL1       -0.2753
      2 C           3.1030    0.6990   -1.4713 C.2     1  UNL1        0.2188
      3 C           4.1771   -0.3098   -1.3898 C.3     1  UNL1        0.0386
      4 C           4.7714   -0.3104   -0.0259 C.3     1  UNL1       -0.0260
      5 C           6.1311   -1.0007    0.0485 C.3     1  UNL1        0.0142
      6 N           6.9576   -0.5404   -1.0246 N.pl3   1  UNL1       -0.3151
      7 C           8.1939    0.1000   -0.7861 C.ar    1  UNL1        0.1217
      8 C           8.7707    0.2913    0.4429 C.ar    1  UNL1       -0.0101
      9 C           9.9907    0.9349    0.6215 C.ar    1  UNL1        0.0595
     10 C          10.5484    1.1002    1.9885 C.3     1  UNL1        0.4176
     11 F          11.9071    0.8540    1.9797 F       1  UNL1       -0.1659
     12 F           9.9571    0.1463    2.7935 F       1  UNL1       -0.1659
     13 F          10.2371    2.3311    2.5290 F       1  UNL1       -0.1659
     14 C          10.6377    1.3959   -0.5004 C.ar    1  UNL1       -0.0318
     15 C          10.0524    1.2009   -1.7401 C.ar    1  UNL1        0.0302
     16 N           8.8763    0.5769   -1.8765 N.ar    1  UNL1       -0.2403
     17 C           6.4565   -0.7699   -2.3735 C.3     1  UNL1        0.0142
     18 C           5.1597   -0.0299   -2.5074 C.3     1  UNL1       -0.0260
     19 N           1.9207    0.6215   -0.7298 N.am    1  UNL1       -0.2997
     20 C           0.8561    1.5993   -0.8031 C.3     1  UNL1        0.0162
     21 C          -0.1149    1.1553    0.2791 C.3     1  UNL1       -0.0202
     22 C           0.0088   -0.3274    0.2323 C.3     1  UNL1        0.0250
     23 N          -0.4376   -1.0927    1.3085 N.3     1  UNL1       -0.3090
     24 C          -1.7973   -1.1611    1.6542 C.3     1  UNL1        0.0081
     25 C          -2.3597    0.1264    2.1267 C.3     1  UNL1       -0.0346
     26 C          -3.5286    0.5362    1.2152 C.3     1  UNL1       -0.0170
     27 C          -4.6103   -0.5078    1.4856 C.3     1  UNL1        0.1077
     28 O          -4.6808   -0.5916    2.8968 O.3     1  UNL1       -0.3824
     29 C          -5.9071   -0.1410    0.9189 C.ar    1  UNL1        0.0727
     30 C          -6.9658   -1.0039    1.0876 C.ar    1  UNL1       -0.0369
     31 C          -8.2314   -0.7152    0.5728 C.ar    1  UNL1       -0.0478
     32 C          -8.4181    0.4619   -0.1192 C.ar    1  UNL1        0.0372
     33 C          -9.7471    0.7440   -0.6494 C.ar    1  UNL1        0.1611
     34 N          -9.9958    1.8812   -1.3392 N.ar    1  UNL1       -0.2356
     35 C         -11.2169    2.1613   -1.8375 C.ar    1  UNL1        0.0314
     36 C         -12.2759    1.2897   -1.6624 C.ar    1  UNL1       -0.0254
     37 C         -12.0107    0.1348   -0.9580 C.ar    1  UNL1        0.0314
     38 N         -10.7753   -0.1049   -0.4778 N.ar    1  UNL1       -0.2356
     39 C          -7.3419    1.3022   -0.2707 C.ar    1  UNL1        0.0387
     40 N          -6.1168    0.9936    0.2435 N.ar    1  UNL1       -0.2563
     41 C          -4.0865   -1.8207    1.0012 C.3     1  UNL1       -0.0170
     42 C          -2.6583   -1.8178    0.5854 C.3     1  UNL1       -0.0346
     43 C           1.5613   -0.4307    0.2062 C.3     1  UNL1        0.0301
     44 H           3.7305   -1.3335   -1.5498 H       1  UNL1        0.0395
     45 H           4.7958    0.6874    0.4399 H       1  UNL1        0.0288
     46 H           4.0959   -0.9341    0.6329 H       1  UNL1        0.0288
     47 H           5.8979   -2.0933   -0.1260 H       1  UNL1        0.0464
     48 H           6.5011   -0.8304    1.0599 H       1  UNL1        0.0464
     49 H           8.2707   -0.0671    1.3152 H       1  UNL1        0.0657
     50 H          11.5877    1.9035   -0.4267 H       1  UNL1        0.0638
     51 H          10.6004    1.5832   -2.5980 H       1  UNL1        0.0830
     52 H           6.2197   -1.8650   -2.4271 H       1  UNL1        0.0464
     53 H           7.1383   -0.4345   -3.1534 H       1  UNL1        0.0464
     54 H           5.3216    1.0719   -2.5741 H       1  UNL1        0.0288
     55 H           4.6818   -0.3282   -3.4547 H       1  UNL1        0.0288
     56 H           0.4066    1.5109   -1.8122 H       1  UNL1        0.0465
     57 H           1.2248    2.6249   -0.5954 H       1  UNL1        0.0465
     58 H          -1.1013    1.5695    0.0444 H       1  UNL1        0.0296
     59 H           0.3274    1.5451    1.2243 H       1  UNL1        0.0296
     60 H          -0.2749   -0.7115   -0.7774 H       1  UNL1        0.0476
     61 H           0.0587   -2.0089    1.3322 H       1  UNL1        0.1225
     62 H          -1.8703   -1.8843    2.5290 H       1  UNL1        0.0460
     63 H          -1.6799    0.9577    2.2675 H       1  UNL1        0.0281
     64 H          -2.8722    0.0087    3.1388 H       1  UNL1        0.0281
     65 H          -3.8575    1.5509    1.4660 H       1  UNL1        0.0297
     66 H          -3.2079    0.4381    0.1651 H       1  UNL1        0.0297
     67 H          -5.3204    0.0958    3.2460 H       1  UNL1        0.2107
     68 H          -6.8429   -1.9327    1.6273 H       1  UNL1        0.0637
     69 H          -9.0704   -1.3827    0.6979 H       1  UNL1        0.0626
     70 H         -11.4312    3.0747   -2.3950 H       1  UNL1        0.0831
     71 H         -13.2563    1.5130   -2.0609 H       1  UNL1        0.0648
     72 H         -12.8343   -0.5537   -0.8163 H       1  UNL1        0.0831
     73 H          -7.4836    2.2142   -0.8060 H       1  UNL1        0.0837
     74 H          -4.3386   -2.6196    1.7353 H       1  UNL1        0.0297
     75 H          -4.6925   -2.0847    0.0844 H       1  UNL1        0.0297
     76 H          -2.5279   -1.3936   -0.4087 H       1  UNL1        0.0281
     77 H          -2.3108   -2.8899    0.5470 H       1  UNL1        0.0281
     78 H           1.8957   -1.3835   -0.1986 H       1  UNL1        0.0480
     79 H           1.9501   -0.2592    1.2178 H       1  UNL1        0.0480
@<TRIPOS>BOND
     1     1     2    2
     2     2     3    1
     3     3     4    1
     4     4     5    1
     5     5     6    1
     6     6     7    1
     7     7     8   ar
     8     8     9   ar
     9     9    10    1
    10    10    11    1
    11    10    12    1
    12    10    13    1
    13     9    14   ar
    14    14    15   ar
    15    15    16   ar
    16     6    17    1
    17    17    18    1
    18     2    19   am
    19    19    20    1
    20    20    21    1
    21    21    22    1
    22    22    23    1
    23    23    24    1
    24    24    25    1
    25    25    26    1
    26    26    27    1
    27    27    28    1
    28    27    29    1
    29    29    30   ar
    30    30    31   ar
    31    31    32   ar
    32    32    33    1
    33    33    34   ar
    34    34    35   ar
    35    35    36   ar
    36    36    37   ar
    37    37    38   ar
    38    32    39   ar
    39    39    40   ar
    40    27    41    1
    41    41    42    1
    42    22    43    1
    43    18     3    1
    44    43    19    1
    45    16     7   ar
    46    42    24    1
    47    40    29   ar
    48    38    33   ar
    49     3    44    1
    50     4    45    1
    51     4    46    1
    52     5    47    1
    53     5    48    1
    54     8    49    1
    55    14    50    1
    56    15    51    1
    57    17    52    1
    58    17    53    1
    59    18    54    1
    60    18    55    1
    61    20    56    1
    62    20    57    1
    63    21    58    1
    64    21    59    1
    65    22    60    1
    66    23    61    1
    67    24    62    1
    68    25    63    1
    69    25    64    1
    70    26    65    1
    71    26    66    1
    72    28    67    1
    73    30    68    1
    74    31    69    1
    75    35    70    1
    76    36    71    1
    77    37    72    1
    78    39    73    1
    79    41    74    1
    80    41    75    1
    81    42    76    1
    82    42    77    1
    83    43    78    1
    84    43    79    1
