@<TRIPOS>MOLECULE
*****
 48 51 0 0 0
SMALL
GASTEIGER

@<TRIPOS>ATOM
      1 C           7.6518   -1.3680    0.8599 C.3     1  UNL1        0.0788
      2 O           6.8794   -0.2217    0.5517 O.3     1  UNL1       -0.4945
      3 C           5.5059   -0.2763    0.3763 C.ar    1  UNL1        0.1321
      4 C           4.8372   -1.4992    0.5045 C.ar    1  UNL1       -0.0144
      5 C           3.4754   -1.5147    0.3238 C.ar    1  UNL1       -0.0209
      6 C           2.8043   -0.3478    0.0251 C.ar    1  UNL1        0.0417
      7 C           3.4826    0.8645   -0.0998 C.ar    1  UNL1       -0.0248
      8 C           4.8411    0.8923    0.0782 C.ar    1  UNL1        0.0981
      9 C           5.5525    2.1924   -0.0585 C.3     1  UNL1        0.4208
     10 F           4.6950    3.2110   -0.3565 F       1  UNL1       -0.1658
     11 F           6.2851    2.5124    1.0665 F       1  UNL1       -0.1658
     12 F           6.4751    2.1028   -1.1086 F       1  UNL1       -0.1658
     13 N           1.4099   -0.6336   -0.1131 N.am    1  UNL1       -0.2547
     14 C           0.3833    0.3658    0.0077 C.2     1  UNL1        0.3107
     15 O           0.6470    1.5485    0.2509 O.2     1  UNL1       -0.2519
     16 N          -0.9401   -0.0662   -0.1647 N.am    1  UNL1       -0.2689
     17 C          -2.1048    0.7417   -0.0887 C.ar    1  UNL1        0.0381
     18 C          -2.1089    2.0772    0.1859 C.ar    1  UNL1       -0.0051
     19 C          -3.2871    2.8359    0.2469 C.ar    1  UNL1        0.1257
     20 F          -3.2256    4.1719    0.5268 F       1  UNL1       -0.2054
     21 C          -4.4828    2.2005    0.0197 C.ar    1  UNL1       -0.0186
     22 C          -4.5284    0.8540   -0.2611 C.ar    1  UNL1       -0.0120
     23 C          -5.8092    0.1997   -0.5001 C.ar    1  UNL1        0.0004
     24 C          -6.8623    0.8940   -1.0906 C.ar    1  UNL1       -0.0512
     25 C          -8.0862    0.3103   -1.3332 C.ar    1  UNL1       -0.0430
     26 C          -8.2418   -1.0126   -0.9656 C.ar    1  UNL1        0.0276
     27 N          -7.2098   -1.6839   -0.3898 N.ar    1  UNL1       -0.2627
     28 C          -6.0223   -1.1161   -0.1548 C.ar    1  UNL1        0.0353
     29 C          -3.3597    0.1528   -0.3111 C.ar    1  UNL1       -0.0325
     30 C           1.2805   -2.0501   -0.3802 C.3     1  UNL1        0.0253
     31 C           2.4645   -2.6203    0.3843 C.3     1  UNL1       -0.0095
     32 H           8.7186   -1.0723    0.9069 H       1  UNL1        0.0660
     33 H           7.5457   -2.1733    0.1275 H       1  UNL1        0.0660
     34 H           7.3996   -1.7667    1.8855 H       1  UNL1        0.0660
     35 H           5.3962   -2.3962    0.7401 H       1  UNL1        0.0657
     36 H           2.9193    1.7695   -0.3371 H       1  UNL1        0.0643
     37 H          -1.1160   -1.1030   -0.3751 H       1  UNL1        0.1564
     38 H          -1.1822    2.6117    0.3719 H       1  UNL1        0.0665
     39 H          -5.4258    2.7467    0.0560 H       1  UNL1        0.0652
     40 H          -6.7018    1.9157   -1.3601 H       1  UNL1        0.0625
     41 H          -8.9227    0.8185   -1.7887 H       1  UNL1        0.0633
     42 H          -9.1823   -1.4981   -1.1402 H       1  UNL1        0.0829
     43 H          -5.2596   -1.7139    0.3031 H       1  UNL1        0.0836
     44 H          -3.4019   -0.8887   -0.5293 H       1  UNL1        0.0642
     45 H           1.4392   -2.1791   -1.4882 H       1  UNL1        0.0472
     46 H           0.3321   -2.4910   -0.0702 H       1  UNL1        0.0472
     47 H           2.9118   -3.4882   -0.1107 H       1  UNL1        0.0329
     48 H           2.1281   -2.8085    1.4148 H       1  UNL1        0.0329
@<TRIPOS>BOND
     1     1     2    1
     2     2     3    1
     3     3     4   ar
     4     4     5   ar
     5     5     6   ar
     6     6     7   ar
     7     7     8   ar
     8     8     9    1
     9     9    10    1
    10     9    11    1
    11     9    12    1
    12     6    13    1
    13    13    14   am
    14    14    15    2
    15    14    16   am
    16    16    17    1
    17    17    18   ar
    18    18    19   ar
    19    19    20    1
    20    19    21   ar
    21    21    22   ar
    22    22    23    1
    23    23    24   ar
    24    24    25   ar
    25    25    26   ar
    26    26    27   ar
    27    27    28   ar
    28    22    29   ar
    29    13    30    1
    30    30    31    1
    31     8     3   ar
    32    29    17   ar
    33    31     5    1
    34    28    23   ar
    35     1    32    1
    36     1    33    1
    37     1    34    1
    38     4    35    1
    39     7    36    1
    40    16    37    1
    41    18    38    1
    42    21    39    1
    43    24    40    1
    44    25    41    1
    45    26    42    1
    46    28    43    1
    47    29    44    1
    48    30    45    1
    49    30    46    1
    50    31    47    1
    51    31    48    1
