
     RDKit          3D

 99105  0  0  0  0  0  0  0  0999 V2000
   -1.7852    9.2216   -2.2605 C   0  0  0  0  0  0  0  0  0  0  0  0
   -2.3020    8.2470   -1.1891 C   0  0  0  0  0  0  0  0  0  0  0  0
   -1.4890    8.6604    0.0668 C   0  0  0  0  0  0  0  0  0  0  0  0
   -3.7410    8.4505   -0.8697 C   0  0  0  0  0  0  0  0  0  0  0  0
   -1.9365    6.9722   -1.5968 O   0  0  0  0  0  0  0  0  0  0  0  0
   -2.2065    5.7645   -1.0059 C   0  0  0  0  0  0  0  0  0  0  0  0
   -3.3144    5.0262   -1.3954 C   0  0  0  0  0  0  0  0  0  0  0  0
   -3.5979    3.8127   -0.8147 C   0  0  0  0  0  0  0  0  0  0  0  0
   -2.7597    3.3019    0.1928 C   0  0  0  0  0  0  0  0  0  0  0  0
   -3.0735    1.9876    0.7874 C   0  0  0  0  0  0  0  0  0  0  0  0
   -2.4244    0.8265    0.1185 C   0  0  0  0  0  0  0  0  0  0  0  0
   -2.8436   -0.4231    0.7785 N   0  0  0  0  0  0  0  0  0  0  0  0
   -3.3152   -1.5092   -0.0004 C   0  0  0  0  0  0  0  0  0  0  0  0
   -3.3969   -1.3799   -1.2700 O   0  0  0  0  0  0  0  0  0  0  0  0
   -3.6903   -2.7288    0.5272 O   0  0  0  0  0  0  0  0  0  0  0  0
   -4.1556   -3.8029   -0.2544 C   0  0  0  0  0  0  0  0  0  0  0  0
   -4.2702   -5.0294    0.6667 C   0  0  0  0  0  0  0  0  0  0  0  0
   -2.9076   -5.2776    1.2210 C   0  0  0  0  0  0  0  0  0  0  0  0
   -2.2132   -4.5136    2.1341 C   0  0  0  0  0  0  0  0  0  0  0  0
   -0.9081   -4.9582    2.4231 C   0  0  0  0  0  0  0  0  0  0  0  0
   -0.3561   -6.0341    1.8719 C   0  0  0  0  0  0  0  0  0  0  0  0
   -1.0555   -6.8158    0.9461 C   0  0  0  0  0  0  0  0  0  0  0  0
   -2.3628   -6.3750    0.6539 C   0  0  0  0  0  0  0  0  0  0  0  0
   -3.3866   -6.9665   -0.2231 C   0  0  0  0  0  0  0  0  0  0  0  0
   -3.3861   -8.1030   -1.0107 C   0  0  0  0  0  0  0  0  0  0  0  0
   -4.4892   -8.4770   -1.7222 C   0  0  0  0  0  0  0  0  0  0  0  0
   -5.6266   -7.7205   -1.6643 C   0  0  0  0  0  0  0  0  0  0  0  0
   -5.6896   -6.5526   -0.8801 C   0  0  0  0  0  0  0  0  0  0  0  0
   -4.5212   -6.2426   -0.1886 C   0  0  0  0  0  0  0  0  0  0  0  0
   -0.9068    0.8631    0.2316 C   0  0  0  0  0  0  0  0  0  0  0  0
   -0.2735    1.7443   -0.3460 O   0  0  0  0  0  0  0  0  0  0  0  0
   -0.2151   -0.1056    0.9939 N   0  0  0  0  0  0  0  0  0  0  0  0
    1.1677   -0.1906    1.1754 N   0  0  0  0  0  0  0  0  0  0  0  0
    1.6865   -1.1701    2.0202 C   0  0  0  0  0  0  0  0  0  0  0  0
    0.7947   -1.9434    2.5826 O   0  0  0  0  0  0  0  0  0  0  0  0
    3.0363   -1.4948    2.4030 C   0  0  0  0  0  0  0  0  0  0  0  0
    4.1557   -0.8698    1.8447 N   0  0  0  0  0  0  0  0  0  0  0  0
    4.7663   -1.4703    0.7794 C   0  0  0  0  0  0  0  0  0  0  0  0
    4.2686   -2.5313    0.3058 O   0  0  0  0  0  0  0  0  0  0  0  0
    5.9016   -0.9710    0.1892 C   0  0  0  0  0  0  0  0  0  0  0  0
    6.6221   -1.6418   -0.9429 C   0  0  0  0  0  0  0  0  0  0  0  0
    6.0547   -1.4606   -2.2551 C   0  0  0  0  0  0  0  0  0  0  0  0
    5.1488   -2.4031   -2.7836 C   0  0  0  0  0  0  0  0  0  0  0  0
    4.6412   -2.1905   -4.0310 C   0  0  0  0  0  0  0  0  0  0  0  0
    4.9634   -1.1045   -4.8032 C   0  0  0  0  0  0  0  0  0  0  0  0
    5.8678   -0.1746   -4.2587 C   0  0  0  0  0  0  0  0  0  0  0  0
    6.3847   -0.3652   -3.0222 C   0  0  0  0  0  0  0  0  0  0  0  0
    6.4145    0.1759    0.7092 N   0  0  0  0  0  0  0  0  0  0  0  0
    5.8063    0.7718    1.7676 C   0  0  0  0  0  0  0  0  0  0  0  0
    6.3527    1.9377    2.3182 C   0  0  0  0  0  0  0  0  0  0  0  0
    5.7613    2.5544    3.4184 C   0  0  0  0  0  0  0  0  0  0  0  0
    4.6296    2.0096    3.9681 C   0  0  0  0  0  0  0  0  0  0  0  0
    4.0602    0.8627    3.4518 C   0  0  0  0  0  0  0  0  0  0  0  0
    4.6791    0.2722    2.3498 C   0  0  0  0  0  0  0  0  0  0  0  0
   -1.6901    4.0716    0.5318 C   0  0  0  0  0  0  0  0  0  0  0  0
   -1.3739    5.2763   -0.0180 C   0  0  0  0  0  0  0  0  0  0  0  0
   -1.4949   10.1542   -1.7719 H   0  0  0  0  0  0  0  0  0  0  0  0
   -2.5614    9.3798   -3.0504 H   0  0  0  0  0  0  0  0  0  0  0  0
   -0.9276    8.7263   -2.7489 H   0  0  0  0  0  0  0  0  0  0  0  0
   -1.8013    9.7066    0.2788 H   0  0  0  0  0  0  0  0  0  0  0  0
   -1.7275    8.0460    0.9311 H   0  0  0  0  0  0  0  0  0  0  0  0
   -0.4077    8.7123   -0.2122 H   0  0  0  0  0  0  0  0  0  0  0  0
   -4.4197    7.6657   -1.3186 H   0  0  0  0  0  0  0  0  0  0  0  0
   -4.1072    9.4266   -1.2705 H   0  0  0  0  0  0  0  0  0  0  0  0
   -3.9023    8.4911    0.2330 H   0  0  0  0  0  0  0  0  0  0  0  0
   -3.9775    5.4019   -2.1645 H   0  0  0  0  0  0  0  0  0  0  0  0
   -4.4642    3.2460   -1.1304 H   0  0  0  0  0  0  0  0  0  0  0  0
   -4.1641    1.8475    0.7438 H   0  0  0  0  0  0  0  0  0  0  0  0
   -2.7933    2.0663    1.8701 H   0  0  0  0  0  0  0  0  0  0  0  0
   -2.7095    0.7552   -0.9367 H   0  0  0  0  0  0  0  0  0  0  0  0
   -2.8067   -0.5074    1.8097 H   0  0  0  0  0  0  0  0  0  0  0  0
   -3.4041   -4.0769   -1.0169 H   0  0  0  0  0  0  0  0  0  0  0  0
   -5.1578   -3.6257   -0.7057 H   0  0  0  0  0  0  0  0  0  0  0  0
   -5.0393   -4.9247    1.3885 H   0  0  0  0  0  0  0  0  0  0  0  0
   -2.6394   -3.6506    2.5851 H   0  0  0  0  0  0  0  0  0  0  0  0
   -0.3999   -4.3171    3.1595 H   0  0  0  0  0  0  0  0  0  0  0  0
    0.6637   -6.3430    2.1187 H   0  0  0  0  0  0  0  0  0  0  0  0
   -0.6447   -7.6849    0.4814 H   0  0  0  0  0  0  0  0  0  0  0  0
   -2.4434   -8.6757   -1.0269 H   0  0  0  0  0  0  0  0  0  0  0  0
   -4.4727   -9.3836   -2.3484 H   0  0  0  0  0  0  0  0  0  0  0  0
   -6.5514   -7.9678   -2.2198 H   0  0  0  0  0  0  0  0  0  0  0  0
   -6.5899   -5.9662   -0.8387 H   0  0  0  0  0  0  0  0  0  0  0  0
   -0.8535   -0.8227    1.4601 H   0  0  0  0  0  0  0  0  0  0  0  0
    1.8240    0.4487    0.7054 H   0  0  0  0  0  0  0  0  0  0  0  0
    3.1329   -1.4256    3.5335 H   0  0  0  0  0  0  0  0  0  0  0  0
    3.1382   -2.6382    2.2340 H   0  0  0  0  0  0  0  0  0  0  0  0
    7.6958   -1.3480   -0.8388 H   0  0  0  0  0  0  0  0  0  0  0  0
    6.6200   -2.7406   -0.6169 H   0  0  0  0  0  0  0  0  0  0  0  0
    4.8495   -3.2834   -2.2440 H   0  0  0  0  0  0  0  0  0  0  0  0
    3.9295   -2.9367   -4.4422 H   0  0  0  0  0  0  0  0  0  0  0  0
    4.5552   -0.9323   -5.8107 H   0  0  0  0  0  0  0  0  0  0  0  0
    6.1527    0.6934   -4.8218 H   0  0  0  0  0  0  0  0  0  0  0  0
    7.0919    0.3961   -2.6445 H   0  0  0  0  0  0  0  0  0  0  0  0
    7.2381    2.3280    1.8497 H   0  0  0  0  0  0  0  0  0  0  0  0
    6.2357    3.4355    3.7784 H   0  0  0  0  0  0  0  0  0  0  0  0
    4.2064    2.5183    4.8378 H   0  0  0  0  0  0  0  0  0  0  0  0
    3.1736    0.4817    3.9205 H   0  0  0  0  0  0  0  0  0  0  0  0
   -1.0329    3.6957    1.3324 H   0  0  0  0  0  0  0  0  0  0  0  0
   -0.5133    5.8143    0.3061 H   0  0  0  0  0  0  0  0  0  0  0  0
  1  2  1  0
  2  3  1  0
  2  4  1  0
  2  5  1  0
  5  6  1  0
  6  7  2  0
  7  8  1  0
  8  9  2  0
  9 10  1  0
 10 11  1  0
 11 12  1  0
 12 13  1  0
 13 14  2  0
 13 15  1  0
 15 16  1  0
 16 17  1  0
 17 18  1  0
 18 19  2  0
 19 20  1  0
 20 21  2  0
 21 22  1  0
 22 23  2  0
 23 24  1  0
 24 25  2  0
 25 26  1  0
 26 27  2  0
 27 28  1  0
 28 29  2  0
 11 30  1  0
 30 31  2  0
 30 32  1  0
 32 33  1  0
 33 34  1  0
 34 35  2  0
 34 36  1  0
 36 37  1  0
 37 38  1  0
 38 39  2  0
 38 40  1  0
 40 41  1  0
 41 42  1  0
 42 43  2  0
 43 44  1  0
 44 45  2  0
 45 46  1  0
 46 47  2  0
 40 48  2  0
 48 49  1  0
 49 50  2  0
 50 51  1  0
 51 52  2  0
 52 53  1  0
 53 54  2  0
  9 55  1  0
 55 56  2  0
 56  6  1  0
 29 17  1  0
 54 37  1  0
 23 18  1  0
 29 24  1  0
 47 42  1  0
 54 49  1  0
  1 57  1  0
  1 58  1  0
  1 59  1  0
  3 60  1  0
  3 61  1  0
  3 62  1  0
  4 63  1  0
  4 64  1  0
  4 65  1  0
  7 66  1  0
  8 67  1  0
 10 68  1  0
 10 69  1  0
 11 70  1  0
 12 71  1  0
 16 72  1  0
 16 73  1  0
 17 74  1  0
 19 75  1  0
 20 76  1  0
 21 77  1  0
 22 78  1  0
 25 79  1  0
 26 80  1  0
 27 81  1  0
 28 82  1  0
 32 83  1  0
 33 84  1  0
 36 85  1  0
 36 86  1  0
 41 87  1  0
 41 88  1  0
 43 89  1  0
 44 90  1  0
 45 91  1  0
 46 92  1  0
 47 93  1  0
 50 94  1  0
 51 95  1  0
 52 96  1  0
 53 97  1  0
 55 98  1  0
 56 99  1  0
M  END
$$$$
