@<TRIPOS>MOLECULE
*****
 99 105 0 0 0
SMALL
GASTEIGER

@<TRIPOS>ATOM
      1 C          -1.7852    9.2216   -2.2605 C.3     1  UNL1       -0.0255
      2 C          -2.3020    8.2470   -1.1891 C.3     1  UNL1        0.1023
      3 C          -1.4890    8.6604    0.0668 C.3     1  UNL1       -0.0255
      4 C          -3.7410    8.4505   -0.8697 C.3     1  UNL1       -0.0255
      5 O          -1.9365    6.9722   -1.5968 O.3     1  UNL1       -0.4865
      6 C          -2.2065    5.7645   -1.0059 C.ar    1  UNL1        0.1213
      7 C          -3.3144    5.0262   -1.3954 C.ar    1  UNL1       -0.0197
      8 C          -3.5979    3.8127   -0.8147 C.ar    1  UNL1       -0.0550
      9 C          -2.7597    3.3019    0.1928 C.ar    1  UNL1       -0.0449
     10 C          -3.0735    1.9876    0.7874 C.3     1  UNL1       -0.0005
     11 C          -2.4244    0.8265    0.1185 C.3     1  UNL1        0.1078
     12 N          -2.8436   -0.4231    0.7785 N.am    1  UNL1       -0.2695
     13 C          -3.3152   -1.5092   -0.0004 C.2     1  UNL1        0.4009
     14 O          -3.3969   -1.3799   -1.2700 O.2     1  UNL1       -0.2265
     15 O          -3.6903   -2.7288    0.5272 O.3     1  UNL1       -0.4494
     16 C          -4.1556   -3.8029   -0.2544 C.3     1  UNL1        0.1048
     17 C          -4.2702   -5.0294    0.6667 C.3     1  UNL1        0.0446
     18 C          -2.9076   -5.2776    1.2210 C.ar    1  UNL1       -0.0290
     19 C          -2.2132   -4.5136    2.1341 C.ar    1  UNL1       -0.0573
     20 C          -0.9081   -4.9582    2.4231 C.ar    1  UNL1       -0.0614
     21 C          -0.3561   -6.0341    1.8719 C.ar    1  UNL1       -0.0612
     22 C          -1.0555   -6.8158    0.9461 C.ar    1  UNL1       -0.0537
     23 C          -2.3628   -6.3750    0.6539 C.ar    1  UNL1       -0.0137
     24 C          -3.3866   -6.9665   -0.2231 C.ar    1  UNL1       -0.0137
     25 C          -3.3861   -8.1030   -1.0107 C.ar    1  UNL1       -0.0537
     26 C          -4.4892   -8.4770   -1.7222 C.ar    1  UNL1       -0.0612
     27 C          -5.6266   -7.7205   -1.6643 C.ar    1  UNL1       -0.0614
     28 C          -5.6896   -6.5526   -0.8801 C.ar    1  UNL1       -0.0573
     29 C          -4.5212   -6.2426   -0.1886 C.ar    1  UNL1       -0.0290
     30 C          -0.9068    0.8631    0.2316 C.2     1  UNL1        0.2498
     31 O          -0.2735    1.7443   -0.3460 O.2     1  UNL1       -0.2722
     32 N          -0.2151   -0.1056    0.9939 N.am    1  UNL1       -0.2328
     33 N           1.1677   -0.1906    1.1754 N.am    1  UNL1       -0.2329
     34 C           1.6865   -1.1701    2.0202 C.2     1  UNL1        0.2490
     35 O           0.7947   -1.9434    2.5826 O.2     1  UNL1       -0.2723
     36 C           3.0363   -1.4948    2.4030 C.3     1  UNL1        0.1044
     37 N           4.1557   -0.8698    1.8447 N.ar    1  UNL1       -0.2963
     38 C           4.7663   -1.4703    0.7794 C.ar    1  UNL1        0.2739
     39 O           4.2686   -2.5313    0.3058 O.2     1  UNL1       -0.2657
     40 C           5.9016   -0.9710    0.1892 C.ar    1  UNL1        0.1105
     41 C           6.6221   -1.6418   -0.9429 C.3     1  UNL1        0.0201
     42 C           6.0547   -1.4606   -2.2551 C.ar    1  UNL1       -0.0414
     43 C           5.1488   -2.4031   -2.7836 C.ar    1  UNL1       -0.0582
     44 C           4.6412   -2.1905   -4.0310 C.ar    1  UNL1       -0.0615
     45 C           4.9634   -1.1045   -4.8032 C.ar    1  UNL1       -0.0617
     46 C           5.8678   -0.1746   -4.2587 C.ar    1  UNL1       -0.0615
     47 C           6.3847   -0.3652   -3.0222 C.ar    1  UNL1       -0.0582
     48 N           6.4145    0.1759    0.7092 N.ar    1  UNL1       -0.2444
     49 C           5.8063    0.7718    1.7676 C.ar    1  UNL1        0.0879
     50 C           6.3527    1.9377    2.3182 C.ar    1  UNL1       -0.0343
     51 C           5.7613    2.5544    3.4184 C.ar    1  UNL1       -0.0596
     52 C           4.6296    2.0096    3.9681 C.ar    1  UNL1       -0.0597
     53 C           4.0602    0.8627    3.4518 C.ar    1  UNL1       -0.0360
     54 C           4.6791    0.2722    2.3498 C.ar    1  UNL1        0.0708
     55 C          -1.6901    4.0716    0.5318 C.ar    1  UNL1       -0.0550
     56 C          -1.3739    5.2763   -0.0180 C.ar    1  UNL1       -0.0197
     57 H          -1.4949   10.1542   -1.7719 H       1  UNL1        0.0268
     58 H          -2.5614    9.3798   -3.0504 H       1  UNL1        0.0268
     59 H          -0.9276    8.7263   -2.7489 H       1  UNL1        0.0268
     60 H          -1.8013    9.7066    0.2788 H       1  UNL1        0.0268
     61 H          -1.7275    8.0460    0.9311 H       1  UNL1        0.0268
     62 H          -0.4077    8.7123   -0.2122 H       1  UNL1        0.0268
     63 H          -4.4197    7.6657   -1.3186 H       1  UNL1        0.0268
     64 H          -4.1072    9.4266   -1.2705 H       1  UNL1        0.0268
     65 H          -3.9023    8.4911    0.2330 H       1  UNL1        0.0268
     66 H          -3.9775    5.4019   -2.1645 H       1  UNL1        0.0654
     67 H          -4.4642    3.2460   -1.1304 H       1  UNL1        0.0621
     68 H          -4.1641    1.8475    0.7438 H       1  UNL1        0.0336
     69 H          -2.7933    2.0663    1.8701 H       1  UNL1        0.0336
     70 H          -2.7095    0.7552   -0.9367 H       1  UNL1        0.0599
     71 H          -2.8067   -0.5074    1.8097 H       1  UNL1        0.1528
     72 H          -3.4041   -4.0769   -1.0169 H       1  UNL1        0.0707
     73 H          -5.1578   -3.6257   -0.7057 H       1  UNL1        0.0707
     74 H          -5.0393   -4.9247    1.3885 H       1  UNL1        0.0431
     75 H          -2.6394   -3.6506    2.5851 H       1  UNL1        0.0621
     76 H          -0.3999   -4.3171    3.1595 H       1  UNL1        0.0618
     77 H           0.6637   -6.3430    2.1187 H       1  UNL1        0.0618
     78 H          -0.6447   -7.6849    0.4814 H       1  UNL1        0.0624
     79 H          -2.4434   -8.6757   -1.0269 H       1  UNL1        0.0624
     80 H          -4.4727   -9.3836   -2.3484 H       1  UNL1        0.0618
     81 H          -6.5514   -7.9678   -2.2198 H       1  UNL1        0.0618
     82 H          -6.5899   -5.9662   -0.8387 H       1  UNL1        0.0621
     83 H          -0.8535   -0.8227    1.4601 H       1  UNL1        0.1728
     84 H           1.8240    0.4487    0.7054 H       1  UNL1        0.1728
     85 H           3.1329   -1.4256    3.5335 H       1  UNL1        0.0589
     86 H           3.1382   -2.6382    2.2340 H       1  UNL1        0.0589
     87 H           7.6958   -1.3480   -0.8388 H       1  UNL1        0.0378
     88 H           6.6200   -2.7406   -0.6169 H       1  UNL1        0.0378
     89 H           4.8495   -3.2834   -2.2440 H       1  UNL1        0.0620
     90 H           3.9295   -2.9367   -4.4422 H       1  UNL1        0.0618
     91 H           4.5552   -0.9323   -5.8107 H       1  UNL1        0.0618
     92 H           6.1527    0.6934   -4.8218 H       1  UNL1        0.0618
     93 H           7.0919    0.3961   -2.6445 H       1  UNL1        0.0620
     94 H           7.2381    2.3280    1.8497 H       1  UNL1        0.0639
     95 H           6.2357    3.4355    3.7784 H       1  UNL1        0.0618
     96 H           4.2064    2.5183    4.8378 H       1  UNL1        0.0618
     97 H           3.1736    0.4817    3.9205 H       1  UNL1        0.0639
     98 H          -1.0329    3.6957    1.3324 H       1  UNL1        0.0621
     99 H          -0.5133    5.8143    0.3061 H       1  UNL1        0.0654
@<TRIPOS>BOND
     1     1     2    1
     2     2     3    1
     3     2     4    1
     4     2     5    1
     5     5     6    1
     6     6     7   ar
     7     7     8   ar
     8     8     9   ar
     9     9    10    1
    10    10    11    1
    11    11    12    1
    12    12    13   am
    13    13    14    2
    14    13    15    1
    15    15    16    1
    16    16    17    1
    17    17    18    1
    18    18    19   ar
    19    19    20   ar
    20    20    21   ar
    21    21    22   ar
    22    22    23   ar
    23    23    24    1
    24    24    25   ar
    25    25    26   ar
    26    26    27   ar
    27    27    28   ar
    28    28    29   ar
    29    11    30    1
    30    30    31    2
    31    30    32   am
    32    32    33    1
    33    33    34   am
    34    34    35    2
    35    34    36    1
    36    36    37    1
    37    37    38   ar
    38    38    39    2
    39    38    40   ar
    40    40    41    1
    41    41    42    1
    42    42    43   ar
    43    43    44   ar
    44    44    45   ar
    45    45    46   ar
    46    46    47   ar
    47    40    48   ar
    48    48    49   ar
    49    49    50   ar
    50    50    51   ar
    51    51    52   ar
    52    52    53   ar
    53    53    54   ar
    54     9    55   ar
    55    55    56   ar
    56    56     6   ar
    57    29    17    1
    58    54    37   ar
    59    23    18   ar
    60    29    24   ar
    61    47    42   ar
    62    54    49   ar
    63     1    57    1
    64     1    58    1
    65     1    59    1
    66     3    60    1
    67     3    61    1
    68     3    62    1
    69     4    63    1
    70     4    64    1
    71     4    65    1
    72     7    66    1
    73     8    67    1
    74    10    68    1
    75    10    69    1
    76    11    70    1
    77    12    71    1
    78    16    72    1
    79    16    73    1
    80    17    74    1
    81    19    75    1
    82    20    76    1
    83    21    77    1
    84    22    78    1
    85    25    79    1
    86    26    80    1
    87    27    81    1
    88    28    82    1
    89    32    83    1
    90    33    84    1
    91    36    85    1
    92    36    86    1
    93    41    87    1
    94    41    88    1
    95    43    89    1
    96    44    90    1
    97    45    91    1
    98    46    92    1
    99    47    93    1
   100    50    94    1
   101    51    95    1
   102    52    96    1
   103    53    97    1
   104    55    98    1
   105    56    99    1
