@<TRIPOS>MOLECULE
*****
 75 77 0 0 0
SMALL
GASTEIGER

@<TRIPOS>ATOM
      1 C           0.4243   -4.2418    1.8911 C.3     1  UNL1       -0.0626
      2 C          -0.2580   -3.2056    0.9837 C.3     1  UNL1       -0.0449
      3 C          -0.8760   -4.0229   -0.1638 C.3     1  UNL1       -0.0626
      4 C           0.7480   -2.2268    0.4573 C.3     1  UNL1       -0.0267
      5 C           1.3988   -1.4857    1.5600 C.3     1  UNL1        0.0856
      6 N           0.6244   -0.6448    2.3484 N.3     1  UNL1       -0.2917
      7 C           0.0255    0.5180    1.8708 C.3     1  UNL1        0.1298
      8 C          -1.1877    0.3532    1.0334 C.ar    1  UNL1       -0.0219
      9 C          -1.2841    0.9882   -0.2208 C.ar    1  UNL1       -0.0562
     10 C          -2.4327    0.8518   -0.9794 C.ar    1  UNL1       -0.0537
     11 C          -3.4866    0.1027   -0.5262 C.ar    1  UNL1       -0.0179
     12 C          -4.6954   -0.0679   -1.2972 C.ar    1  UNL1       -0.0178
     13 C          -5.8967   -0.2413   -0.6519 C.ar    1  UNL1       -0.0522
     14 C          -7.0808   -0.4249   -1.3498 C.ar    1  UNL1       -0.0363
     15 C          -7.0357   -0.4290   -2.7424 C.ar    1  UNL1        0.0879
     16 S          -8.5168   -0.6713   -3.6193 S.O2    1  UNL1       -0.0059
     17 C          -9.3445    0.8882   -3.8436 C.3     1  UNL1        0.0596
     18 O          -9.4201   -1.5878   -2.8377 O.2     1  UNL1       -0.1696
     19 O          -8.2380   -1.2436   -4.9830 O.2     1  UNL1       -0.1696
     20 C          -5.8477   -0.2569   -3.4130 C.ar    1  UNL1       -0.0363
     21 C          -4.6809   -0.0772   -2.6734 C.ar    1  UNL1       -0.0522
     22 C          -3.3893   -0.5140    0.6961 C.ar    1  UNL1       -0.0537
     23 C          -2.2337   -0.3848    1.4732 C.ar    1  UNL1       -0.0562
     24 C          -0.4236    1.3473    3.1052 C.3     1  UNL1        0.4089
     25 F          -1.0273    2.5085    2.6928 F       1  UNL1       -0.1686
     26 F           0.6387    1.5752    3.9472 F       1  UNL1       -0.1686
     27 F          -1.3311    0.5863    3.7900 F       1  UNL1       -0.1686
     28 C           2.7839   -1.0055    1.2273 C.2     1  UNL1        0.2307
     29 O           3.5381   -1.6808    0.4792 O.2     1  UNL1       -0.2741
     30 N           3.2459    0.2163    1.7620 N.am    1  UNL1       -0.3024
     31 C           4.5937    0.7135    1.4644 C.3     1  UNL1        0.1031
     32 C           4.4590    1.6705    0.2869 C.3     1  UNL1       -0.0007
     33 C           5.7636    2.2519   -0.1176 C.ar    1  UNL1       -0.0451
     34 C           6.2179    3.4707    0.3481 C.ar    1  UNL1       -0.0585
     35 C           7.4371    3.9999   -0.0207 C.ar    1  UNL1       -0.0615
     36 C           8.2531    3.3111   -0.8818 C.ar    1  UNL1       -0.0617
     37 C           7.8283    2.0943   -1.3628 C.ar    1  UNL1       -0.0615
     38 C           6.5953    1.5587   -0.9922 C.ar    1  UNL1       -0.0585
     39 C           5.2653    1.2682    2.6278 C.2     1  UNL1        0.2311
     40 N           6.5908    1.7723    2.6196 N.am    1  UNL1       -0.3278
     41 O           4.6332    1.3069    3.7143 O.2     1  UNL1       -0.2740
     42 H           0.4738   -3.9063    2.9390 H       1  UNL1        0.0232
     43 H          -0.2384   -5.1328    1.8798 H       1  UNL1        0.0232
     44 H           1.3838   -4.5328    1.4513 H       1  UNL1        0.0232
     45 H          -1.0947   -2.8143    1.5429 H       1  UNL1        0.0296
     46 H          -1.5596   -3.3995   -0.7778 H       1  UNL1        0.0232
     47 H          -0.0893   -4.4983   -0.7521 H       1  UNL1        0.0232
     48 H          -1.4695   -4.8165    0.3396 H       1  UNL1        0.0232
     49 H           0.1762   -1.5509   -0.2439 H       1  UNL1        0.0287
     50 H           1.4909   -2.7706   -0.1583 H       1  UNL1        0.0287
     51 H           1.6955   -2.3790    2.2980 H       1  UNL1        0.0557
     52 H           0.4191   -0.8585    3.3081 H       1  UNL1        0.1235
     53 H           0.6799    1.2293    1.3082 H       1  UNL1        0.0600
     54 H          -0.4779    1.5719   -0.5817 H       1  UNL1        0.0621
     55 H          -2.4984    1.3465   -1.9489 H       1  UNL1        0.0624
     56 H          -5.9256   -0.2357    0.4364 H       1  UNL1        0.0624
     57 H          -8.0384   -0.5589   -0.8484 H       1  UNL1        0.0637
     58 H          -9.3076    1.5218   -2.9371 H       1  UNL1        0.0468
     59 H          -8.8182    1.4290   -4.6512 H       1  UNL1        0.0468
     60 H         -10.4275    0.7221   -4.0586 H       1  UNL1        0.0468
     61 H          -5.8297   -0.2613   -4.4981 H       1  UNL1        0.0637
     62 H          -3.7411    0.0564   -3.1914 H       1  UNL1        0.0624
     63 H          -4.2060   -1.1128    1.0806 H       1  UNL1        0.0624
     64 H          -2.2554   -0.9240    2.4368 H       1  UNL1        0.0621
     65 H           2.6672    0.8056    2.3913 H       1  UNL1        0.1495
     66 H           5.1883   -0.1341    1.0616 H       1  UNL1        0.0598
     67 H           4.1096    1.0534   -0.5868 H       1  UNL1        0.0336
     68 H           3.7631    2.4910    0.5030 H       1  UNL1        0.0336
     69 H           5.5879    4.0237    1.0278 H       1  UNL1        0.0620
     70 H           7.7588    4.9643    0.3631 H       1  UNL1        0.0618
     71 H           9.2303    3.7158   -1.1912 H       1  UNL1        0.0618
     72 H           8.4720    1.5364   -2.0449 H       1  UNL1        0.0618
     73 H           6.2567    0.6077   -1.3680 H       1  UNL1        0.0620
     74 H           6.8951    2.6758    3.0276 H       1  UNL1        0.1450
     75 H           7.3511    1.1946    2.1690 H       1  UNL1        0.1450
@<TRIPOS>BOND
     1     1     2    1
     2     2     3    1
     3     2     4    1
     4     4     5    1
     5     5     6    1
     6     6     7    1
     7     7     8    1
     8     8     9   ar
     9     9    10   ar
    10    10    11   ar
    11    11    12    1
    12    12    13   ar
    13    13    14   ar
    14    14    15   ar
    15    15    16    1
    16    16    17    1
    17    16    18    2
    18    16    19    2
    19    15    20   ar
    20    20    21   ar
    21    11    22   ar
    22    22    23   ar
    23     7    24    1
    24    24    25    1
    25    24    26    1
    26    24    27    1
    27     5    28    1
    28    28    29    2
    29    28    30   am
    30    30    31    1
    31    31    32    1
    32    32    33    1
    33    33    34   ar
    34    34    35   ar
    35    35    36   ar
    36    36    37   ar
    37    37    38   ar
    38    31    39    1
    39    39    40   am
    40    39    41    2
    41    23     8   ar
    42    38    33   ar
    43    21    12   ar
    44     1    42    1
    45     1    43    1
    46     1    44    1
    47     2    45    1
    48     3    46    1
    49     3    47    1
    50     3    48    1
    51     4    49    1
    52     4    50    1
    53     5    51    1
    54     6    52    1
    55     7    53    1
    56     9    54    1
    57    10    55    1
    58    13    56    1
    59    14    57    1
    60    17    58    1
    61    17    59    1
    62    17    60    1
    63    20    61    1
    64    21    62    1
    65    22    63    1
    66    23    64    1
    67    30    65    1
    68    31    66    1
    69    32    67    1
    70    32    68    1
    71    34    69    1
    72    35    70    1
    73    36    71    1
    74    37    72    1
    75    38    73    1
    76    40    74    1
    77    40    75    1
