
     RDKit          3D

 45 48  0  0  0  0  0  0  0  0999 V2000
    3.7318    2.1911   -0.7740 N   0  0  0  0  0  0  0  0  0  0  0  0
    5.0504    1.7905   -0.4330 C   0  0  0  0  0  0  0  0  0  0  0  0
    6.1810    2.5477   -0.5259 N   0  0  0  0  0  0  0  0  0  0  0  0
    7.2005    1.8114   -0.1305 N   0  0  0  0  0  0  0  0  0  0  0  0
    6.7559    0.5752    0.2230 C   0  0  0  0  0  0  0  0  0  0  0  0
    7.4007   -0.5076    0.6711 N   0  0  0  0  0  0  0  0  0  0  0  0
    6.7313   -1.6430    0.9483 C   0  0  0  0  0  0  0  0  0  0  0  0
    5.3705   -1.7106    0.7764 C   0  0  0  0  0  0  0  0  0  0  0  0
    4.6948   -0.6008    0.3157 C   0  0  0  0  0  0  0  0  0  0  0  0
    3.2316   -0.6731    0.1696 C   0  0  0  0  0  0  0  0  0  0  0  0
    2.3593    0.1863    0.7816 C   0  0  0  0  0  0  0  0  0  0  0  0
    0.9751    0.0729    0.5818 C   0  0  0  0  0  0  0  0  0  0  0  0
    0.4654   -0.8916   -0.2224 C   0  0  0  0  0  0  0  0  0  0  0  0
   -0.8985   -1.1058   -0.5004 N   0  0  0  0  0  0  0  0  0  0  0  0
   -1.9865   -0.3652   -0.0005 C   0  0  0  0  0  0  0  0  0  0  0  0
   -1.7701    0.5731    0.7597 O   0  0  0  0  0  0  0  0  0  0  0  0
   -3.3305   -0.6533   -0.3354 N   0  0  0  0  0  0  0  0  0  0  0  0
   -4.4832    0.0225    0.1081 C   0  0  0  0  0  0  0  0  0  0  0  0
   -4.5352    1.0957    0.9535 C   0  0  0  0  0  0  0  0  0  0  0  0
   -5.7226    1.7083    1.3442 C   0  0  0  0  0  0  0  0  0  0  0  0
   -6.9111    1.2328    0.8734 C   0  0  0  0  0  0  0  0  0  0  0  0
   -6.9204    0.1476    0.0135 C   0  0  0  0  0  0  0  0  0  0  0  0
   -8.2261   -0.3622   -0.4939 C   0  0  0  0  0  0  0  0  0  0  0  0
   -8.3484   -0.1930   -1.8582 F   0  0  0  0  0  0  0  0  0  0  0  0
   -8.2255   -1.7354   -0.2158 F   0  0  0  0  0  0  0  0  0  0  0  0
   -9.2488    0.2028    0.2122 F   0  0  0  0  0  0  0  0  0  0  0  0
   -5.7366   -0.4219   -0.3434 C   0  0  0  0  0  0  0  0  0  0  0  0
    1.4046   -1.7543   -0.8309 C   0  0  0  0  0  0  0  0  0  0  0  0
    2.7428   -1.6666   -0.6556 C   0  0  0  0  0  0  0  0  0  0  0  0
    5.3979    0.5386    0.0407 C   0  0  0  0  0  0  0  0  0  0  0  0
    3.2458    2.8986   -0.1856 H   0  0  0  0  0  0  0  0  0  0  0  0
    3.2004    1.8185   -1.5926 H   0  0  0  0  0  0  0  0  0  0  0  0
    8.1971    2.1087   -0.0875 H   0  0  0  0  0  0  0  0  0  0  0  0
    7.2221   -2.5400    1.3128 H   0  0  0  0  0  0  0  0  0  0  0  0
    4.8312   -2.6226    0.9988 H   0  0  0  0  0  0  0  0  0  0  0  0
    2.7412    0.9487    1.4349 H   0  0  0  0  0  0  0  0  0  0  0  0
    0.3415    0.7698    1.0834 H   0  0  0  0  0  0  0  0  0  0  0  0
   -1.1514   -1.9096   -1.1570 H   0  0  0  0  0  0  0  0  0  0  0  0
   -3.4412   -1.4815   -1.0000 H   0  0  0  0  0  0  0  0  0  0  0  0
   -3.6517    1.5159    1.3564 H   0  0  0  0  0  0  0  0  0  0  0  0
   -5.7189    2.5498    2.0107 H   0  0  0  0  0  0  0  0  0  0  0  0
   -7.8525    1.6931    1.1630 H   0  0  0  0  0  0  0  0  0  0  0  0
   -5.7645   -1.2644   -1.0126 H   0  0  0  0  0  0  0  0  0  0  0  0
    1.0277   -2.5442   -1.4860 H   0  0  0  0  0  0  0  0  0  0  0  0
    3.4227   -2.3528   -1.1449 H   0  0  0  0  0  0  0  0  0  0  0  0
  1  2  1  0
  2  3  2  0
  3  4  1  0
  4  5  1  0
  5  6  2  0
  6  7  1  0
  7  8  2  0
  8  9  1  0
  9 10  1  0
 10 11  2  0
 11 12  1  0
 12 13  2  0
 13 14  1  0
 14 15  1  0
 15 16  2  0
 15 17  1  0
 17 18  1  0
 18 19  2  0
 19 20  1  0
 20 21  2  0
 21 22  1  0
 22 23  1  0
 23 24  1  0
 23 25  1  0
 23 26  1  0
 22 27  2  0
 13 28  1  0
 28 29  2  0
  9 30  2  0
 30  2  1  0
 30  5  1  0
 29 10  1  0
 27 18  1  0
  1 31  1  0
  1 32  1  0
  4 33  1  0
  7 34  1  0
  8 35  1  0
 11 36  1  0
 12 37  1  0
 14 38  1  0
 17 39  1  0
 19 40  1  0
 20 41  1  0
 21 42  1  0
 27 43  1  0
 28 44  1  0
 29 45  1  0
M  END
$$$$
