@<TRIPOS>MOLECULE
*****
 45 48 0 0 0
SMALL
GASTEIGER

@<TRIPOS>ATOM
      1 N           3.7318    2.1911   -0.7740 N.pl3   1  UNL1       -0.3412
      2 C           5.0504    1.7905   -0.4330 C.ar    1  UNL1        0.1478
      3 N           6.1810    2.5477   -0.5259 N.ar    1  UNL1       -0.1567
      4 N           7.2005    1.8114   -0.1305 N.ar    1  UNL1       -0.2584
      5 C           6.7559    0.5752    0.2230 C.ar    1  UNL1        0.1581
      6 N           7.4007   -0.5076    0.6711 N.ar    1  UNL1       -0.2360
      7 C           6.7313   -1.6430    0.9483 C.ar    1  UNL1        0.0306
      8 C           5.3705   -1.7106    0.7764 C.ar    1  UNL1       -0.0351
      9 C           4.6948   -0.6008    0.3157 C.ar    1  UNL1       -0.0024
     10 C           3.2316   -0.6731    0.1696 C.ar    1  UNL1       -0.0169
     11 C           2.3593    0.1863    0.7816 C.ar    1  UNL1       -0.0523
     12 C           0.9751    0.0729    0.5818 C.ar    1  UNL1       -0.0399
     13 C           0.4654   -0.8916   -0.2224 C.ar    1  UNL1        0.0348
     14 N          -0.8985   -1.1058   -0.5004 N.am    1  UNL1       -0.2692
     15 C          -1.9865   -0.3652   -0.0005 C.2     1  UNL1        0.3081
     16 O          -1.7701    0.5731    0.7597 O.2     1  UNL1       -0.2522
     17 N          -3.3305   -0.6533   -0.3354 N.am    1  UNL1       -0.2692
     18 C          -4.4832    0.0225    0.1081 C.ar    1  UNL1        0.0353
     19 C          -4.5352    1.0957    0.9535 C.ar    1  UNL1       -0.0404
     20 C          -5.7226    1.7083    1.3442 C.ar    1  UNL1       -0.0595
     21 C          -6.9111    1.2328    0.8734 C.ar    1  UNL1       -0.0500
     22 C          -6.9204    0.1476    0.0135 C.ar    1  UNL1        0.0566
     23 C          -8.2261   -0.3622   -0.4939 C.3     1  UNL1        0.4175
     24 F          -8.3484   -0.1930   -1.8582 F       1  UNL1       -0.1659
     25 F          -8.2255   -1.7354   -0.2158 F       1  UNL1       -0.1659
     26 F          -9.2488    0.2028    0.2122 F       1  UNL1       -0.1659
     27 C          -5.7366   -0.4219   -0.3434 C.ar    1  UNL1       -0.0288
     28 C           1.4046   -1.7543   -0.8309 C.ar    1  UNL1       -0.0399
     29 C           2.7428   -1.6666   -0.6556 C.ar    1  UNL1       -0.0523
     30 C           5.3979    0.5386    0.0407 C.ar    1  UNL1        0.0675
     31 H           3.2458    2.8986   -0.1856 H       1  UNL1        0.1438
     32 H           3.2004    1.8185   -1.5926 H       1  UNL1        0.1438
     33 H           8.1971    2.1087   -0.0875 H       1  UNL1        0.1906
     34 H           7.2221   -2.5400    1.3128 H       1  UNL1        0.0830
     35 H           4.8312   -2.6226    0.9988 H       1  UNL1        0.0639
     36 H           2.7412    0.9487    1.4349 H       1  UNL1        0.0624
     37 H           0.3415    0.7698    1.0834 H       1  UNL1        0.0636
     38 H          -1.1514   -1.9096   -1.1570 H       1  UNL1        0.1564
     39 H          -3.4412   -1.4815   -1.0000 H       1  UNL1        0.1564
     40 H          -3.6517    1.5159    1.3564 H       1  UNL1        0.0636
     41 H          -5.7189    2.5498    2.0107 H       1  UNL1        0.0618
     42 H          -7.8525    1.6931    1.1630 H       1  UNL1        0.0623
     43 H          -5.7645   -1.2644   -1.0126 H       1  UNL1        0.0642
     44 H           1.0277   -2.5442   -1.4860 H       1  UNL1        0.0636
     45 H           3.4227   -2.3528   -1.1449 H       1  UNL1        0.0624
@<TRIPOS>BOND
     1     1     2    1
     2     2     3   ar
     3     3     4   ar
     4     4     5   ar
     5     5     6   ar
     6     6     7   ar
     7     7     8   ar
     8     8     9   ar
     9     9    10    1
    10    10    11   ar
    11    11    12   ar
    12    12    13   ar
    13    13    14    1
    14    14    15   am
    15    15    16    2
    16    15    17   am
    17    17    18    1
    18    18    19   ar
    19    19    20   ar
    20    20    21   ar
    21    21    22   ar
    22    22    23    1
    23    23    24    1
    24    23    25    1
    25    23    26    1
    26    22    27   ar
    27    13    28   ar
    28    28    29   ar
    29     9    30   ar
    30    30     2   ar
    31    30     5   ar
    32    29    10   ar
    33    27    18   ar
    34     1    31    1
    35     1    32    1
    36     4    33    1
    37     7    34    1
    38     8    35    1
    39    11    36    1
    40    12    37    1
    41    14    38    1
    42    17    39    1
    43    19    40    1
    44    20    41    1
    45    21    42    1
    46    27    43    1
    47    28    44    1
    48    29    45    1
