@<TRIPOS>MOLECULE
*****
 25 24 0 0 0
SMALL
GASTEIGER

@<TRIPOS>ATOM
      1 N          -2.1309    1.0318   -1.4658 N.3     1  UNL1       -0.3184
      2 CA         -2.2449   -0.1984   -0.7413 C.3     1  UNL1        0.1033
      3 C          -1.1943   -0.2730    0.3718 C.3     1  UNL1       -0.0260
      4 C           0.1553   -0.1846   -0.3074 C.3     1  UNL1       -0.0354
      5 C           1.3153   -0.2426    0.6388 C.3     1  UNL1        0.0131
      6 N           2.5591   -0.1514   -0.0981 N.am    1  UNL1       -0.2996
      7 C           3.7113   -0.2017    0.7579 C.2     1  UNL1        0.2971
      8 N           5.0202   -0.1219    0.1667 N.am    1  UNL1       -0.3134
      9 O           3.6314   -0.3140    2.0202 O.2     1  UNL1       -0.2531
     10 C          -3.5643   -0.3321   -0.0725 C.2     1  UNL1        0.3217
     11 O          -4.8167   -0.3767    0.5173 O.3     1  UNL1       -0.4795
     12 OXT        -3.6136   -1.4324    0.5518 O.2     1  UNL1       -0.2493
     13 H1         -2.7557    1.7411   -1.0099 H       1  UNL1        0.1190
     14 H2         -2.4443    0.9513   -2.4582 H       1  UNL1        0.1190
     15 HA         -2.1423   -1.0254   -1.4483 H       1  UNL1        0.0574
     16 H          -1.3063   -1.1918    0.9618 H       1  UNL1        0.0286
     17 H          -1.3569    0.5915    1.0465 H       1  UNL1        0.0286
     18 H           0.1794    0.8139   -0.8119 H       1  UNL1        0.0281
     19 H           0.2842   -0.9467   -1.0830 H       1  UNL1        0.0281
     20 H           1.2949   -1.1430    1.2863 H       1  UNL1        0.0462
     21 H           1.2864    0.6284    1.3557 H       1  UNL1        0.0462
     22 H           2.7238   -0.0577   -1.1287 H       1  UNL1        0.1502
     23 H           5.1595   -1.0034   -0.3928 H       1  UNL1        0.1465
     24 H           5.4816    0.7931    0.4531 H       1  UNL1        0.1465
     25 H          -5.2324    0.4840    0.8899 H       1  UNL1        0.2951
@<TRIPOS>BOND
     1     1     2    1
     2     2     3    1
     3     3     4    1
     4     4     5    1
     5     5     6    1
     6     6     7   am
     7     7     8   am
     8     7     9    2
     9     2    10    1
    10    10    11    1
    11    10    12    2
    12     1    13    1
    13     1    14    1
    14     2    15    1
    15     3    16    1
    16     3    17    1
    17     4    18    1
    18     4    19    1
    19     5    20    1
    20     5    21    1
    21     6    22    1
    22     8    23    1
    23     8    24    1
    24    11    25    1
