@<TRIPOS>MOLECULE
*****
 51 55 0 0 0
SMALL
GASTEIGER

@<TRIPOS>ATOM
      1 C          -4.8131   -1.8141   -0.2523 C.3     1  UNL1        0.0166
      2 N          -3.3741   -1.9766   -0.0826 N.ar    1  UNL1       -0.2957
      3 C          -2.8158   -3.1675   -0.3733 C.ar    1  UNL1        0.2544
      4 O          -3.5424   -4.1025   -0.7796 O.2     1  UNL1       -0.2676
      5 C          -1.4707   -3.3434   -0.2233 C.ar    1  UNL1        0.0249
      6 C          -0.7213   -2.2761    0.2280 C.ar    1  UNL1        0.0488
      7 N           0.6810   -2.4615    0.3802 N.pl3   1  UNL1       -0.3126
      8 C           1.6586   -1.7068   -0.3036 C.ar    1  UNL1        0.0506
      9 C           2.6143   -0.9563    0.3454 C.ar    1  UNL1       -0.0270
     10 C           3.5738   -0.2146   -0.3409 C.ar    1  UNL1        0.0385
     11 C           4.5591    0.5599    0.4026 C.2     1  UNL1        0.2443
     12 O           4.5581    0.5700    1.6584 O.2     1  UNL1       -0.2702
     13 N           5.5408    1.3189   -0.2765 N.am    1  UNL1       -0.3085
     14 C           6.5361    2.1008    0.4292 C.3     1  UNL1        0.0235
     15 C           7.9496    2.0961   -0.1921 C.3     1  UNL1       -0.0328
     16 C           7.0977    3.3351   -0.1419 C.3     1  UNL1       -0.0328
     17 C           3.5104   -0.2759   -1.7057 C.ar    1  UNL1       -0.0481
     18 C           2.5644   -1.0190   -2.3889 C.ar    1  UNL1       -0.0409
     19 C           1.6271   -1.7433   -1.6876 C.ar    1  UNL1        0.0621
     20 CL          0.4067   -2.6998   -2.5439 Cl      1  UNL1       -0.0816
     21 C          -1.2763   -1.0705    0.5240 C.ar    1  UNL1        0.0586
     22 C          -0.8211    0.1462    0.9795 C.ar    1  UNL1        0.0608
     23 N          -1.8654    0.9704    1.0807 N.ar    1  UNL1       -0.1722
     24 N          -2.9954    0.3397    0.7078 N.ar    1  UNL1       -0.2156
     25 C          -4.2888    0.9306    0.6959 C.ar    1  UNL1        0.0678
     26 C          -4.9748    1.1605    1.8874 C.ar    1  UNL1       -0.0335
     27 C          -6.2081    1.7419    1.9256 C.ar    1  UNL1       -0.0244
     28 C          -6.8100    2.1203    0.7587 C.ar    1  UNL1        0.1235
     29 F          -8.0433    2.7056    0.7467 F       1  UNL1       -0.2055
     30 C          -6.1580    1.9085   -0.4578 C.ar    1  UNL1       -0.0244
     31 C          -4.9032    1.3148   -0.4685 C.ar    1  UNL1       -0.0335
     32 C          -2.6607   -0.9105    0.3630 C.ar    1  UNL1        0.1485
     33 H          -5.2281   -2.8752   -0.2887 H       1  UNL1        0.0457
     34 H          -5.2964   -1.3333    0.5919 H       1  UNL1        0.0457
     35 H          -5.0789   -1.4174   -1.2557 H       1  UNL1        0.0457
     36 H          -0.9738   -4.3015   -0.4458 H       1  UNL1        0.0691
     37 H           0.9839   -3.2071    1.0437 H       1  UNL1        0.1522
     38 H           2.6309   -0.9338    1.4446 H       1  UNL1        0.0644
     39 H           5.6016    1.3572   -1.3204 H       1  UNL1        0.1493
     40 H           6.4712    2.0600    1.5368 H       1  UNL1        0.0498
     41 H           8.0567    1.5546   -1.1603 H       1  UNL1        0.0284
     42 H           8.7831    1.9509    0.5025 H       1  UNL1        0.0284
     43 H           7.4747    4.1138    0.5543 H       1  UNL1        0.0284
     44 H           6.7636    3.7526   -1.1086 H       1  UNL1        0.0284
     45 H           4.2263    0.2769   -2.2956 H       1  UNL1        0.0625
     46 H           2.5208   -1.0625   -3.4683 H       1  UNL1        0.0633
     47 H           0.2154    0.3427    1.2024 H       1  UNL1        0.0855
     48 H          -4.5068    0.8637    2.8273 H       1  UNL1        0.0640
     49 H          -6.7128    1.9049    2.8789 H       1  UNL1        0.0647
     50 H          -6.6712    2.2231   -1.3525 H       1  UNL1        0.0647
     51 H          -4.3954    1.1492   -1.4083 H       1  UNL1        0.0640
@<TRIPOS>BOND
     1     1     2    1
     2     2     3   ar
     3     3     4    2
     4     3     5   ar
     5     5     6   ar
     6     6     7    1
     7     7     8    1
     8     8     9   ar
     9     9    10   ar
    10    10    11    1
    11    11    12    2
    12    11    13   am
    13    13    14    1
    14    14    15    1
    15    15    16    1
    16    10    17   ar
    17    17    18   ar
    18    18    19   ar
    19    19    20    1
    20     6    21   ar
    21    21    22   ar
    22    22    23   ar
    23    23    24   ar
    24    24    25    1
    25    25    26   ar
    26    26    27   ar
    27    27    28   ar
    28    28    29    1
    29    28    30   ar
    30    30    31   ar
    31    24    32   ar
    32    32     2   ar
    33    19     8   ar
    34    32    21   ar
    35    16    14    1
    36    31    25   ar
    37     1    33    1
    38     1    34    1
    39     1    35    1
    40     5    36    1
    41     7    37    1
    42     9    38    1
    43    13    39    1
    44    14    40    1
    45    15    41    1
    46    15    42    1
    47    16    43    1
    48    16    44    1
    49    17    45    1
    50    18    46    1
    51    22    47    1
    52    26    48    1
    53    27    49    1
    54    30    50    1
    55    31    51    1
