
     RDKit          3D

 51 55  0  0  0  0  0  0  0  0999 V2000
   -4.8131   -1.8141   -0.2523 C   0  0  0  0  0  0  0  0  0  0  0  0
   -3.3741   -1.9766   -0.0826 N   0  0  0  0  0  0  0  0  0  0  0  0
   -2.8158   -3.1675   -0.3733 C   0  0  0  0  0  0  0  0  0  0  0  0
   -3.5424   -4.1025   -0.7796 O   0  0  0  0  0  0  0  0  0  0  0  0
   -1.4707   -3.3434   -0.2233 C   0  0  0  0  0  0  0  0  0  0  0  0
   -0.7213   -2.2761    0.2280 C   0  0  0  0  0  0  0  0  0  0  0  0
    0.6810   -2.4615    0.3802 N   0  0  0  0  0  0  0  0  0  0  0  0
    1.6586   -1.7068   -0.3036 C   0  0  0  0  0  0  0  0  0  0  0  0
    2.6143   -0.9563    0.3454 C   0  0  0  0  0  0  0  0  0  0  0  0
    3.5738   -0.2146   -0.3409 C   0  0  0  0  0  0  0  0  0  0  0  0
    4.5591    0.5599    0.4026 C   0  0  0  0  0  0  0  0  0  0  0  0
    4.5581    0.5700    1.6584 O   0  0  0  0  0  0  0  0  0  0  0  0
    5.5408    1.3189   -0.2765 N   0  0  0  0  0  0  0  0  0  0  0  0
    6.5361    2.1008    0.4292 C   0  0  0  0  0  0  0  0  0  0  0  0
    7.9496    2.0961   -0.1921 C   0  0  0  0  0  0  0  0  0  0  0  0
    7.0977    3.3351   -0.1419 C   0  0  0  0  0  0  0  0  0  0  0  0
    3.5104   -0.2759   -1.7057 C   0  0  0  0  0  0  0  0  0  0  0  0
    2.5644   -1.0190   -2.3889 C   0  0  0  0  0  0  0  0  0  0  0  0
    1.6271   -1.7433   -1.6876 C   0  0  0  0  0  0  0  0  0  0  0  0
    0.4067   -2.6998   -2.5439 Cl  0  0  0  0  0  0  0  0  0  0  0  0
   -1.2763   -1.0705    0.5240 C   0  0  0  0  0  0  0  0  0  0  0  0
   -0.8211    0.1462    0.9795 C   0  0  0  0  0  0  0  0  0  0  0  0
   -1.8654    0.9704    1.0807 N   0  0  0  0  0  0  0  0  0  0  0  0
   -2.9954    0.3397    0.7078 N   0  0  0  0  0  0  0  0  0  0  0  0
   -4.2888    0.9306    0.6959 C   0  0  0  0  0  0  0  0  0  0  0  0
   -4.9748    1.1605    1.8874 C   0  0  0  0  0  0  0  0  0  0  0  0
   -6.2081    1.7419    1.9256 C   0  0  0  0  0  0  0  0  0  0  0  0
   -6.8100    2.1203    0.7587 C   0  0  0  0  0  0  0  0  0  0  0  0
   -8.0433    2.7056    0.7467 F   0  0  0  0  0  0  0  0  0  0  0  0
   -6.1580    1.9085   -0.4578 C   0  0  0  0  0  0  0  0  0  0  0  0
   -4.9032    1.3148   -0.4685 C   0  0  0  0  0  0  0  0  0  0  0  0
   -2.6607   -0.9105    0.3630 C   0  0  0  0  0  0  0  0  0  0  0  0
   -5.2281   -2.8752   -0.2887 H   0  0  0  0  0  0  0  0  0  0  0  0
   -5.2964   -1.3333    0.5919 H   0  0  0  0  0  0  0  0  0  0  0  0
   -5.0789   -1.4174   -1.2557 H   0  0  0  0  0  0  0  0  0  0  0  0
   -0.9738   -4.3015   -0.4458 H   0  0  0  0  0  0  0  0  0  0  0  0
    0.9839   -3.2071    1.0437 H   0  0  0  0  0  0  0  0  0  0  0  0
    2.6309   -0.9338    1.4446 H   0  0  0  0  0  0  0  0  0  0  0  0
    5.6016    1.3572   -1.3204 H   0  0  0  0  0  0  0  0  0  0  0  0
    6.4712    2.0600    1.5368 H   0  0  0  0  0  0  0  0  0  0  0  0
    8.0567    1.5546   -1.1603 H   0  0  0  0  0  0  0  0  0  0  0  0
    8.7831    1.9509    0.5025 H   0  0  0  0  0  0  0  0  0  0  0  0
    7.4747    4.1138    0.5543 H   0  0  0  0  0  0  0  0  0  0  0  0
    6.7636    3.7526   -1.1086 H   0  0  0  0  0  0  0  0  0  0  0  0
    4.2263    0.2769   -2.2956 H   0  0  0  0  0  0  0  0  0  0  0  0
    2.5208   -1.0625   -3.4683 H   0  0  0  0  0  0  0  0  0  0  0  0
    0.2154    0.3427    1.2024 H   0  0  0  0  0  0  0  0  0  0  0  0
   -4.5068    0.8637    2.8273 H   0  0  0  0  0  0  0  0  0  0  0  0
   -6.7128    1.9049    2.8789 H   0  0  0  0  0  0  0  0  0  0  0  0
   -6.6712    2.2231   -1.3525 H   0  0  0  0  0  0  0  0  0  0  0  0
   -4.3954    1.1492   -1.4083 H   0  0  0  0  0  0  0  0  0  0  0  0
  1  2  1  0
  2  3  1  0
  3  4  2  0
  3  5  1  0
  5  6  2  0
  6  7  1  0
  7  8  1  0
  8  9  2  0
  9 10  1  0
 10 11  1  0
 11 12  2  0
 11 13  1  0
 13 14  1  0
 14 15  1  0
 15 16  1  0
 10 17  2  0
 17 18  1  0
 18 19  2  0
 19 20  1  0
  6 21  1  0
 21 22  1  0
 22 23  2  0
 23 24  1  0
 24 25  1  0
 25 26  2  0
 26 27  1  0
 27 28  2  0
 28 29  1  0
 28 30  1  0
 30 31  2  0
 24 32  1  0
 32  2  1  0
 19  8  1  0
 32 21  2  0
 16 14  1  0
 31 25  1  0
  1 33  1  0
  1 34  1  0
  1 35  1  0
  5 36  1  0
  7 37  1  0
  9 38  1  0
 13 39  1  0
 14 40  1  0
 15 41  1  0
 15 42  1  0
 16 43  1  0
 16 44  1  0
 17 45  1  0
 18 46  1  0
 22 47  1  0
 26 48  1  0
 27 49  1  0
 30 50  1  0
 31 51  1  0
M  END
$$$$
