@<TRIPOS>MOLECULE
*****
 75 76 0 0 0
SMALL
GASTEIGER

@<TRIPOS>ATOM
      1 C           4.1944   -0.7194   -0.9229 C.2     1  UNL1       -0.0333
      2 C           3.3339   -0.5728    0.0721 C.2     1  UNL1       -0.0304
      3 C           3.8704   -0.6899    1.4682 C.3     1  UNL1       -0.0400
      4 C           1.9057   -0.3091   -0.1677 C.3     1  UNL1        0.1276
      5 C           1.4229    0.9814    0.4376 C.3     1  UNL1        0.0067
      6 C           2.0000    2.2300   -0.0009 C.2     1  UNL1       -0.0812
      7 C           1.1201    3.0341   -0.6533 C.2     1  UNL1       -0.0764
      8 C           1.6641    4.3372   -1.1164 C.3     1  UNL1       -0.0438
      9 C          -0.2760    2.7685   -1.0405 C.3     1  UNL1       -0.0320
     10 C          -1.3310    3.6285   -0.4452 C.3     1  UNL1       -0.0491
     11 C          -2.6778    3.2796   -1.0162 C.3     1  UNL1       -0.0478
     12 C          -3.0885    1.8255   -0.9474 C.3     1  UNL1       -0.0171
     13 C          -4.4634    1.8556   -1.6677 C.3     1  UNL1       -0.0601
     14 C          -3.2221    1.3594    0.4201 C.3     1  UNL1        0.0670
     15 O          -2.0664    1.6313    1.1935 O.3     1  UNL1       -0.3908
     16 C          -3.6622   -0.0272    0.7413 C.3     1  UNL1        0.0415
     17 C          -5.1466   -0.2508    0.4537 C.3     1  UNL1       -0.0533
     18 C          -2.9767   -1.1125   -0.0393 C.2     1  UNL1        0.1466
     19 O          -2.4685   -0.8709   -1.1127 O.2     1  UNL1       -0.2964
     20 C          -2.8890   -2.5044    0.4494 C.3     1  UNL1        0.0501
     21 C          -4.1731   -3.0234    1.0804 C.3     1  UNL1       -0.0507
     22 C          -2.7662   -3.4488   -0.8010 C.3     1  UNL1       -0.0507
     23 C          -1.7420   -2.8594    1.3168 C.3     1  UNL1        0.0771
     24 O          -2.1310   -4.1452    1.8802 O.3     1  UNL1       -0.3903
     25 C          -0.4310   -3.1611    0.6759 C.3     1  UNL1        0.0718
     26 C           0.2782   -2.1800   -0.1141 C.2     1  UNL1        0.3102
     27 O           0.3187   -1.8822   -1.3312 O.2     1  UNL1       -0.2507
     28 O           1.1371   -1.3206    0.4918 O.3     1  UNL1       -0.4565
     29 C           5.6272   -0.9865   -0.7897 C.ar    1  UNL1        0.0714
     30 C           6.3586   -1.8235   -1.6544 C.ar    1  UNL1        0.0027
     31 S           8.0750   -1.7081   -0.9147 S.2     1  UNL1       -0.0802
     32 C           7.4445   -0.5370    0.4297 C.ar    1  UNL1        0.0759
     33 C           8.4243   -0.0355    1.4323 C.3     1  UNL1       -0.0159
     34 N           6.2755   -0.3982    0.2152 N.ar    1  UNL1       -0.2449
     35 H           3.7715   -0.6278   -1.9156 H       1  UNL1        0.0640
     36 H           3.0678   -0.7203    2.2158 H       1  UNL1        0.0276
     37 H           4.4658    0.2502    1.6309 H       1  UNL1        0.0276
     38 H           4.5819   -1.5341    1.5524 H       1  UNL1        0.0276
     39 H           1.7315   -0.3551   -1.2575 H       1  UNL1        0.0785
     40 H           0.3273    0.9815    0.5784 H       1  UNL1        0.0346
     41 H           1.7755    0.8805    1.5323 H       1  UNL1        0.0346
     42 H           3.0010    2.5498    0.1392 H       1  UNL1        0.0573
     43 H           1.5656    5.0688   -0.2871 H       1  UNL1        0.0274
     44 H           1.1650    4.7131   -2.0324 H       1  UNL1        0.0274
     45 H           2.7466    4.2356   -1.3303 H       1  UNL1        0.0274
     46 H          -0.2944    3.0247   -2.1573 H       1  UNL1        0.0310
     47 H          -0.5363    1.7138   -1.0393 H       1  UNL1        0.0310
     48 H          -1.3958    3.6480    0.6433 H       1  UNL1        0.0268
     49 H          -1.1516    4.7257   -0.7146 H       1  UNL1        0.0268
     50 H          -2.7455    3.5880   -2.1070 H       1  UNL1        0.0269
     51 H          -3.4989    3.8582   -0.5288 H       1  UNL1        0.0269
     52 H          -2.3603    1.3081   -1.6125 H       1  UNL1        0.0323
     53 H          -4.8832    0.8941   -1.8620 H       1  UNL1        0.0233
     54 H          -4.3559    2.4587   -2.6064 H       1  UNL1        0.0233
     55 H          -5.1197    2.4590   -1.0242 H       1  UNL1        0.0233
     56 H          -3.9981    2.0279    0.9212 H       1  UNL1        0.0603
     57 H          -2.1547    1.1987    2.0746 H       1  UNL1        0.2098
     58 H          -3.4948   -0.2217    1.8064 H       1  UNL1        0.0400
     59 H          -5.6260   -0.7695    1.3327 H       1  UNL1        0.0237
     60 H          -5.7193    0.6873    0.3543 H       1  UNL1        0.0237
     61 H          -5.3214   -0.8651   -0.4436 H       1  UNL1        0.0237
     62 H          -3.9417   -4.1230    1.2586 H       1  UNL1        0.0240
     63 H          -4.3701   -2.6346    2.0804 H       1  UNL1        0.0240
     64 H          -5.0170   -3.0488    0.3814 H       1  UNL1        0.0240
     65 H          -3.8047   -3.5234   -1.2186 H       1  UNL1        0.0240
     66 H          -2.1563   -2.9726   -1.5632 H       1  UNL1        0.0240
     67 H          -2.4538   -4.4320   -0.4720 H       1  UNL1        0.0240
     68 H          -1.6440   -2.1872    2.1692 H       1  UNL1        0.0608
     69 H          -1.7164   -4.8573    1.3651 H       1  UNL1        0.2098
     70 H          -0.5063   -4.0918    0.0201 H       1  UNL1        0.0403
     71 H           0.2277   -3.5607    1.5267 H       1  UNL1        0.0403
     72 H           5.8522   -2.3343   -2.5075 H       1  UNL1        0.0715
     73 H           9.3927   -0.5910    1.3827 H       1  UNL1        0.0298
     74 H           8.6653    1.0275    1.2599 H       1  UNL1        0.0298
     75 H           7.9900   -0.2135    2.4316 H       1  UNL1        0.0298
@<TRIPOS>BOND
     1     1     2    2
     2     2     3    1
     3     2     4    1
     4     4     5    1
     5     5     6    1
     6     6     7    2
     7     7     8    1
     8     7     9    1
     9     9    10    1
    10    10    11    1
    11    11    12    1
    12    12    13    1
    13    12    14    1
    14    14    15    1
    15    14    16    1
    16    16    17    1
    17    16    18    1
    18    18    19    2
    19    18    20    1
    20    20    21    1
    21    20    22    1
    22    20    23    1
    23    23    24    1
    24    23    25    1
    25    25    26    1
    26    26    27    2
    27    26    28    1
    28     1    29    1
    29    29    30   ar
    30    30    31   ar
    31    31    32   ar
    32    32    33    1
    33    32    34   ar
    34    28     4    1
    35    34    29   ar
    36     1    35    1
    37     3    36    1
    38     3    37    1
    39     3    38    1
    40     4    39    1
    41     5    40    1
    42     5    41    1
    43     6    42    1
    44     8    43    1
    45     8    44    1
    46     8    45    1
    47     9    46    1
    48     9    47    1
    49    10    48    1
    50    10    49    1
    51    11    50    1
    52    11    51    1
    53    12    52    1
    54    13    53    1
    55    13    54    1
    56    13    55    1
    57    14    56    1
    58    15    57    1
    59    16    58    1
    60    17    59    1
    61    17    60    1
    62    17    61    1
    63    21    62    1
    64    21    63    1
    65    21    64    1
    66    22    65    1
    67    22    66    1
    68    22    67    1
    69    23    68    1
    70    24    69    1
    71    25    70    1
    72    25    71    1
    73    30    72    1
    74    33    73    1
    75    33    74    1
    76    33    75    1
