
     RDKit          3D

 58 62  0  0  0  0  0  0  0  0999 V2000
    0.2711   -1.1416   -0.0779 C   0  0  0  0  0  0  0  0  0  0  0  0
    0.3197   -0.0706    1.0182 C   0  0  2  0  0  0  0  0  0  0  0  0
    0.9457    1.1283    0.4108 C   0  0  0  0  0  0  0  0  0  0  0  0
    1.2872    1.1611   -0.9497 C   0  0  0  0  0  0  0  0  0  0  0  0
    1.8554    2.2590   -1.5532 C   0  0  0  0  0  0  0  0  0  0  0  0
    2.2017    2.2905   -2.9417 C   0  0  0  0  0  0  0  0  0  0  0  0
    2.9915    1.4807   -3.5413 C   0  0  0  0  0  0  0  0  0  0  0  0
    3.1719    1.6927   -4.9200 F   0  0  0  0  0  0  0  0  0  0  0  0
    3.8082    0.4826   -2.8903 C   0  0  0  0  0  0  0  0  0  0  0  0
    4.1503    0.3870   -1.5914 C   0  0  0  0  0  0  0  0  0  0  0  0
    4.8932   -0.6890   -1.1171 C   0  0  0  0  0  0  0  0  0  0  0  0
    5.2842   -1.6710   -2.0095 C   0  0  0  0  0  0  0  0  0  0  0  0
    6.0647   -2.7538   -1.4535 C   0  0  0  0  0  0  0  0  0  0  0  0
    6.6662   -3.6215   -1.0174 N   0  0  0  0  0  0  0  0  0  0  0  0
    4.9376   -1.5719   -3.3269 C   0  0  0  0  0  0  0  0  0  0  0  0
    4.2258   -0.5263   -3.7323 N   0  0  0  0  0  0  0  0  0  0  0  0
    2.0958    3.3741   -0.7672 C   0  0  0  0  0  0  0  0  0  0  0  0
    1.7685    3.3646    0.5770 C   0  0  0  0  0  0  0  0  0  0  0  0
    1.1983    2.2474    1.1540 C   0  0  0  0  0  0  0  0  0  0  0  0
    0.9088    2.2981    2.4735 F   0  0  0  0  0  0  0  0  0  0  0  0
    1.0951   -0.5870    2.0638 N   0  0  0  0  0  0  0  0  0  0  0  0
    0.7628   -1.4771    2.9271 C   0  0  0  0  0  0  0  0  0  0  0  0
    1.5483   -1.9822    3.9657 N   0  0  0  0  0  0  0  0  0  0  0  0
   -0.9117   -2.1111    2.7360 S   0  0  0  0  0  0  0  0  0  0  0  0
   -1.8608   -0.6866    2.0951 C   0  0  1  0  0  0  0  0  0  0  0  0
   -3.2666   -1.0116    1.8751 C   0  0  0  0  0  0  0  0  0  0  0  0
   -3.8384   -1.7840    2.7629 O   0  0  0  0  0  0  0  0  0  0  0  0
   -4.0644   -0.5916    0.8259 N   0  0  0  0  0  0  0  0  0  0  0  0
   -3.7509    0.1829   -0.3434 C   0  0  0  0  0  0  0  0  0  0  0  0
   -4.9215    0.1029   -1.3454 C   0  0  0  0  0  0  0  0  0  0  0  0
   -6.1095    0.5356   -0.8146 O   0  0  0  0  0  0  0  0  0  0  0  0
   -6.2468    0.2935    0.5377 C   0  0  0  0  0  0  0  0  0  0  0  0
   -5.5096   -0.9688    0.8957 C   0  0  0  0  0  0  0  0  0  0  0  0
   -1.4823    0.6050    2.7536 C   0  0  0  0  0  0  0  0  0  0  0  0
   -1.1076    0.2441    1.3294 C   0  0  1  0  0  0  0  0  0  0  0  0
   -0.1845   -2.0920    0.3311 H   0  0  0  0  0  0  0  0  0  0  0  0
    1.3091   -1.3438   -0.3980 H   0  0  0  0  0  0  0  0  0  0  0  0
   -0.4132   -0.8176   -0.8845 H   0  0  0  0  0  0  0  0  0  0  0  0
    1.0962    0.2730   -1.5592 H   0  0  0  0  0  0  0  0  0  0  0  0
    1.7385    3.1046   -3.5739 H   0  0  0  0  0  0  0  0  0  0  0  0
    3.9034    1.1672   -0.8899 H   0  0  0  0  0  0  0  0  0  0  0  0
    5.1445   -0.7323   -0.0626 H   0  0  0  0  0  0  0  0  0  0  0  0
    5.2724   -2.3696   -3.9747 H   0  0  0  0  0  0  0  0  0  0  0  0
    2.5373    4.2792   -1.1565 H   0  0  0  0  0  0  0  0  0  0  0  0
    1.9626    4.2460    1.1742 H   0  0  0  0  0  0  0  0  0  0  0  0
    1.5668   -3.0124    4.1289 H   0  0  0  0  0  0  0  0  0  0  0  0
    2.1504   -1.4321    4.6318 H   0  0  0  0  0  0  0  0  0  0  0  0
   -2.8474   -0.1246   -0.8865 H   0  0  0  0  0  0  0  0  0  0  0  0
   -3.6968    1.2439   -0.0762 H   0  0  0  0  0  0  0  0  0  0  0  0
   -4.6703    0.6214   -2.2712 H   0  0  0  0  0  0  0  0  0  0  0  0
   -5.0303   -0.9805   -1.5815 H   0  0  0  0  0  0  0  0  0  0  0  0
   -7.3272    0.2149    0.7865 H   0  0  0  0  0  0  0  0  0  0  0  0
   -5.7766    1.1202    1.1081 H   0  0  0  0  0  0  0  0  0  0  0  0
   -5.7226   -1.7570    0.1574 H   0  0  0  0  0  0  0  0  0  0  0  0
   -5.7855   -1.2836    1.9083 H   0  0  0  0  0  0  0  0  0  0  0  0
   -2.3294    1.2957    2.9362 H   0  0  0  0  0  0  0  0  0  0  0  0
   -0.7344    0.5846    3.5378 H   0  0  0  0  0  0  0  0  0  0  0  0
   -1.5450    0.9429    0.6056 H   0  0  0  0  0  0  0  0  0  0  0  0
  2  1  1  6
  2  3  1  0
  3  4  2  0
  4  5  1  0
  5  6  1  0
  6  7  2  0
  7  8  1  0
  7  9  1  0
  9 10  2  0
 10 11  1  0
 11 12  2  0
 12 13  1  0
 13 14  3  0
 12 15  1  0
 15 16  2  0
  5 17  2  0
 17 18  1  0
 18 19  2  0
 19 20  1  0
  2 21  1  0
 21 22  2  0
 22 23  1  0
 22 24  1  0
 24 25  1  0
 25 26  1  6
 26 27  2  0
 26 28  1  0
 28 29  1  0
 29 30  1  0
 30 31  1  0
 31 32  1  0
 32 33  1  0
 25 34  1  0
 34 35  1  0
 35  2  1  0
 19  3  1  0
 35 25  1  0
 16  9  1  0
 33 28  1  0
  1 36  1  0
  1 37  1  0
  1 38  1  0
  4 39  1  0
  6 40  1  0
 10 41  1  0
 11 42  1  0
 15 43  1  0
 17 44  1  0
 18 45  1  0
 23 46  1  0
 23 47  1  0
 29 48  1  0
 29 49  1  0
 30 50  1  0
 30 51  1  0
 32 52  1  0
 32 53  1  0
 33 54  1  0
 33 55  1  0
 34 56  1  0
 34 57  1  0
 35 58  1  6
M  END
$$$$
