@<TRIPOS>MOLECULE
*****
 58 62 0 0 0
SMALL
GASTEIGER

@<TRIPOS>ATOM
      1 C           0.2711   -1.1416   -0.0779 C.3     1  UNL1       -0.0351
      2 C           0.3197   -0.0706    1.0182 C.3     1  UNL1        0.0935
      3 C           0.9457    1.1283    0.4108 C.ar    1  UNL1        0.0158
      4 C           1.2872    1.1611   -0.9497 C.ar    1  UNL1       -0.0463
      5 C           1.8554    2.2590   -1.5532 C.ar    1  UNL1       -0.0217
      6 C           2.2017    2.2905   -2.9417 C.2     1  UNL1       -0.0172
      7 C           2.9915    1.4807   -3.5413 C.2     1  UNL1        0.1492
      8 F           3.1719    1.6927   -4.9200 F       1  UNL1       -0.2032
      9 C           3.8082    0.4826   -2.8903 C.ar    1  UNL1        0.0990
     10 C           4.1503    0.3870   -1.5914 C.ar    1  UNL1       -0.0322
     11 C           4.8932   -0.6890   -1.1171 C.ar    1  UNL1       -0.0408
     12 C           5.2842   -1.6710   -2.0095 C.ar    1  UNL1        0.0699
     13 C           6.0647   -2.7538   -1.4535 C.1     1  UNL1        0.1007
     14 N           6.6662   -3.6215   -1.0174 N.1     1  UNL1       -0.1908
     15 C           4.9376   -1.5719   -3.3269 C.ar    1  UNL1        0.0457
     16 N           4.2258   -0.5263   -3.7323 N.ar    1  UNL1       -0.2514
     17 C           2.0958    3.3741   -0.7672 C.ar    1  UNL1       -0.0518
     18 C           1.7685    3.3646    0.5770 C.ar    1  UNL1       -0.0255
     19 C           1.1983    2.2474    1.1540 C.ar    1  UNL1        0.1289
     20 F           0.9088    2.2981    2.4735 F       1  UNL1       -0.2051
     21 N           1.0951   -0.5870    2.0638 N.2     1  UNL1       -0.2521
     22 C           0.7628   -1.4771    2.9271 C.2     1  UNL1        0.1485
     23 N           1.5483   -1.9822    3.9657 N.pl3   1  UNL1       -0.3380
     24 S          -0.9117   -2.1111    2.7360 S.3     1  UNL1       -0.0746
     25 C          -1.8608   -0.6866    2.0951 C.3     1  UNL1        0.1054
     26 C          -3.2666   -1.0116    1.8751 C.2     1  UNL1        0.2326
     27 O          -3.8384   -1.7840    2.7629 O.2     1  UNL1       -0.2741
     28 N          -4.0644   -0.5916    0.8259 N.am    1  UNL1       -0.2960
     29 C          -3.7509    0.1829   -0.3434 C.3     1  UNL1        0.0382
     30 C          -4.9215    0.1029   -1.3454 C.3     1  UNL1        0.0635
     31 O          -6.1095    0.5356   -0.8146 O.3     1  UNL1       -0.3767
     32 C          -6.2468    0.2935    0.5377 C.3     1  UNL1        0.0635
     33 C          -5.5096   -0.9688    0.8957 C.3     1  UNL1        0.0382
     34 C          -1.4823    0.6050    2.7536 C.3     1  UNL1       -0.0220
     35 C          -1.1076    0.2441    1.3294 C.3     1  UNL1        0.0134
     36 H          -0.1845   -2.0920    0.3311 H       1  UNL1        0.0256
     37 H           1.3091   -1.3438   -0.3980 H       1  UNL1        0.0256
     38 H          -0.4132   -0.8176   -0.8845 H       1  UNL1        0.0256
     39 H           1.0962    0.2730   -1.5592 H       1  UNL1        0.0628
     40 H           1.7385    3.1046   -3.5739 H       1  UNL1        0.0653
     41 H           3.9034    1.1672   -0.8899 H       1  UNL1        0.0640
     42 H           5.1445   -0.7323   -0.0626 H       1  UNL1        0.0631
     43 H           5.2724   -2.3696   -3.9747 H       1  UNL1        0.0843
     44 H           2.5373    4.2792   -1.1565 H       1  UNL1        0.0624
     45 H           1.9626    4.2460    1.1742 H       1  UNL1        0.0646
     46 H           1.5668   -3.0124    4.1289 H       1  UNL1        0.1442
     47 H           2.1504   -1.4321    4.6318 H       1  UNL1        0.1442
     48 H          -2.8474   -0.1246   -0.8865 H       1  UNL1        0.0487
     49 H          -3.6968    1.2439   -0.0762 H       1  UNL1        0.0487
     50 H          -4.6703    0.6214   -2.2712 H       1  UNL1        0.0575
     51 H          -5.0303   -0.9805   -1.5815 H       1  UNL1        0.0575
     52 H          -7.3272    0.2149    0.7865 H       1  UNL1        0.0575
     53 H          -5.7766    1.1202    1.1081 H       1  UNL1        0.0575
     54 H          -5.7226   -1.7570    0.1574 H       1  UNL1        0.0487
     55 H          -5.7855   -1.2836    1.9083 H       1  UNL1        0.0487
     56 H          -2.3294    1.2957    2.9362 H       1  UNL1        0.0287
     57 H          -0.7344    0.5846    3.5378 H       1  UNL1        0.0287
     58 H          -1.5450    0.9429    0.6056 H       1  UNL1        0.0346
@<TRIPOS>BOND
     1     2     1    1
     2     2     3    1
     3     3     4   ar
     4     4     5   ar
     5     5     6    1
     6     6     7    2
     7     7     8    1
     8     7     9    1
     9     9    10   ar
    10    10    11   ar
    11    11    12   ar
    12    12    13    1
    13    13    14    3
    14    12    15   ar
    15    15    16   ar
    16     5    17   ar
    17    17    18   ar
    18    18    19   ar
    19    19    20    1
    20     2    21    1
    21    21    22    2
    22    22    23    1
    23    22    24    1
    24    24    25    1
    25    25    26    1
    26    26    27    2
    27    26    28   am
    28    28    29    1
    29    29    30    1
    30    30    31    1
    31    31    32    1
    32    32    33    1
    33    25    34    1
    34    34    35    1
    35    35     2    1
    36    19     3   ar
    37    35    25    1
    38    16     9   ar
    39    33    28    1
    40     1    36    1
    41     1    37    1
    42     1    38    1
    43     4    39    1
    44     6    40    1
    45    10    41    1
    46    11    42    1
    47    15    43    1
    48    17    44    1
    49    18    45    1
    50    23    46    1
    51    23    47    1
    52    29    48    1
    53    29    49    1
    54    30    50    1
    55    30    51    1
    56    32    52    1
    57    32    53    1
    58    33    54    1
    59    33    55    1
    60    34    56    1
    61    34    57    1
    62    35    58    1
