@<TRIPOS>MOLECULE
*****
 42 44 0 0 0
SMALL
GASTEIGER

@<TRIPOS>ATOM
      1 N           6.5085   -0.3109   -0.6506 N.3     1  UNL1       -0.3274
      2 C           5.4607   -0.6707    0.2843 C.3     1  UNL1        0.0237
      3 C           4.1434   -0.3414   -0.3615 C.3     1  UNL1        0.0953
      4 O           3.9426   -1.0256   -1.5396 O.3     1  UNL1       -0.3857
      5 C           3.9701    1.1314   -0.6210 C.3     1  UNL1       -0.0055
      6 C           2.4720    1.1726   -0.9519 C.3     1  UNL1        0.0177
      7 N           1.9199    0.1690   -0.0737 N.pl3   1  UNL1       -0.2967
      8 C           0.5318   -0.0291    0.1654 C.ar    1  UNL1        0.2215
      9 N          -0.3957    0.7375   -0.4358 N.ar    1  UNL1       -0.1789
     10 C          -1.7157    0.6045   -0.2553 C.ar    1  UNL1        0.2254
     11 O          -2.6410    1.4307   -0.9071 O.3     1  UNL1       -0.4378
     12 C          -3.9901    1.2522   -0.6866 C.ar    1  UNL1        0.1331
     13 C          -4.6930    1.8914    0.3079 C.ar    1  UNL1       -0.0191
     14 C          -6.0366    1.6593    0.4622 C.ar    1  UNL1       -0.0556
     15 C          -6.7365    0.7933   -0.3523 C.ar    1  UNL1       -0.0262
     16 C          -6.0249    0.1501   -1.3543 C.ar    1  UNL1        0.1269
     17 F          -6.7201   -0.7008   -2.1523 F       1  UNL1       -0.2054
     18 C          -4.6713    0.3741   -1.5217 C.ar    1  UNL1        0.0160
     19 C          -2.1644   -0.3792    0.6004 C.ar    1  UNL1        0.0305
     20 C          -1.2318   -1.1716    1.2232 C.ar    1  UNL1        0.1522
     21 C          -1.6838   -2.2382    2.1493 C.3     1  UNL1        0.4345
     22 F          -2.7439   -2.9083    1.5755 F       1  UNL1       -0.1644
     23 F          -0.6677   -3.1229    2.3230 F       1  UNL1       -0.1644
     24 F          -2.1094   -1.6485    3.3334 F       1  UNL1       -0.1644
     25 N           0.0716   -0.9839    0.9973 N.ar    1  UNL1       -0.2101
     26 C           2.9654   -0.6237    0.5438 C.3     1  UNL1        0.0450
     27 H           7.1494   -1.1081   -0.8577 H       1  UNL1        0.1183
     28 H           6.1719    0.1830   -1.4873 H       1  UNL1        0.1183
     29 H           5.5371   -0.1520    1.2466 H       1  UNL1        0.0451
     30 H           5.5025   -1.7739    0.3965 H       1  UNL1        0.0451
     31 H           4.7753   -1.2486   -2.0005 H       1  UNL1        0.2103
     32 H           4.0851    1.7476    0.2982 H       1  UNL1        0.0309
     33 H           4.5818    1.5013   -1.4507 H       1  UNL1        0.0309
     34 H           2.0528    2.1680   -0.8173 H       1  UNL1        0.0465
     35 H           2.3635    0.7906   -1.9959 H       1  UNL1        0.0465
     36 H          -4.1340    2.5754    0.9492 H       1  UNL1        0.0654
     37 H          -6.5824    2.1593    1.2387 H       1  UNL1        0.0620
     38 H          -7.7998    0.6013   -0.2402 H       1  UNL1        0.0646
     39 H          -4.1843   -0.1613   -2.3218 H       1  UNL1        0.0683
     40 H          -3.2180   -0.5488    0.7983 H       1  UNL1        0.0692
     41 H           3.1962   -0.2414    1.5574 H       1  UNL1        0.0493
     42 H           2.7429   -1.7036    0.5188 H       1  UNL1        0.0493
@<TRIPOS>BOND
     1     1     2    1
     2     2     3    1
     3     3     4    1
     4     3     5    1
     5     5     6    1
     6     6     7    1
     7     7     8    1
     8     8     9   ar
     9     9    10   ar
    10    10    11    1
    11    11    12    1
    12    12    13   ar
    13    13    14   ar
    14    14    15   ar
    15    15    16   ar
    16    16    17    1
    17    16    18   ar
    18    10    19   ar
    19    19    20   ar
    20    20    21    1
    21    21    22    1
    22    21    23    1
    23    21    24    1
    24    20    25   ar
    25     7    26    1
    26    26     3    1
    27    25     8   ar
    28    18    12   ar
    29     1    27    1
    30     1    28    1
    31     2    29    1
    32     2    30    1
    33     4    31    1
    34     5    32    1
    35     5    33    1
    36     6    34    1
    37     6    35    1
    38    13    36    1
    39    14    37    1
    40    15    38    1
    41    18    39    1
    42    19    40    1
    43    26    41    1
    44    26    42    1
