
     RDKit          3D

 42 44  0  0  0  0  0  0  0  0999 V2000
    6.5085   -0.3109   -0.6506 N   0  0  0  0  0  0  0  0  0  0  0  0
    5.4607   -0.6707    0.2843 C   0  0  0  0  0  0  0  0  0  0  0  0
    4.1434   -0.3414   -0.3615 C   0  0  0  0  0  0  0  0  0  0  0  0
    3.9426   -1.0256   -1.5396 O   0  0  0  0  0  0  0  0  0  0  0  0
    3.9701    1.1314   -0.6210 C   0  0  0  0  0  0  0  0  0  0  0  0
    2.4720    1.1726   -0.9519 C   0  0  0  0  0  0  0  0  0  0  0  0
    1.9199    0.1690   -0.0737 N   0  0  0  0  0  0  0  0  0  0  0  0
    0.5318   -0.0291    0.1654 C   0  0  0  0  0  0  0  0  0  0  0  0
   -0.3957    0.7375   -0.4358 N   0  0  0  0  0  0  0  0  0  0  0  0
   -1.7157    0.6045   -0.2553 C   0  0  0  0  0  0  0  0  0  0  0  0
   -2.6410    1.4307   -0.9071 O   0  0  0  0  0  0  0  0  0  0  0  0
   -3.9901    1.2522   -0.6866 C   0  0  0  0  0  0  0  0  0  0  0  0
   -4.6930    1.8914    0.3079 C   0  0  0  0  0  0  0  0  0  0  0  0
   -6.0366    1.6593    0.4622 C   0  0  0  0  0  0  0  0  0  0  0  0
   -6.7365    0.7933   -0.3523 C   0  0  0  0  0  0  0  0  0  0  0  0
   -6.0249    0.1501   -1.3543 C   0  0  0  0  0  0  0  0  0  0  0  0
   -6.7201   -0.7008   -2.1523 F   0  0  0  0  0  0  0  0  0  0  0  0
   -4.6713    0.3741   -1.5217 C   0  0  0  0  0  0  0  0  0  0  0  0
   -2.1644   -0.3792    0.6004 C   0  0  0  0  0  0  0  0  0  0  0  0
   -1.2318   -1.1716    1.2232 C   0  0  0  0  0  0  0  0  0  0  0  0
   -1.6838   -2.2382    2.1493 C   0  0  0  0  0  0  0  0  0  0  0  0
   -2.7439   -2.9083    1.5755 F   0  0  0  0  0  0  0  0  0  0  0  0
   -0.6677   -3.1229    2.3230 F   0  0  0  0  0  0  0  0  0  0  0  0
   -2.1094   -1.6485    3.3334 F   0  0  0  0  0  0  0  0  0  0  0  0
    0.0716   -0.9839    0.9973 N   0  0  0  0  0  0  0  0  0  0  0  0
    2.9654   -0.6237    0.5438 C   0  0  0  0  0  0  0  0  0  0  0  0
    7.1494   -1.1081   -0.8577 H   0  0  0  0  0  0  0  0  0  0  0  0
    6.1719    0.1830   -1.4873 H   0  0  0  0  0  0  0  0  0  0  0  0
    5.5371   -0.1520    1.2466 H   0  0  0  0  0  0  0  0  0  0  0  0
    5.5025   -1.7739    0.3965 H   0  0  0  0  0  0  0  0  0  0  0  0
    4.7753   -1.2486   -2.0005 H   0  0  0  0  0  0  0  0  0  0  0  0
    4.0851    1.7476    0.2982 H   0  0  0  0  0  0  0  0  0  0  0  0
    4.5818    1.5013   -1.4507 H   0  0  0  0  0  0  0  0  0  0  0  0
    2.0528    2.1680   -0.8173 H   0  0  0  0  0  0  0  0  0  0  0  0
    2.3635    0.7906   -1.9959 H   0  0  0  0  0  0  0  0  0  0  0  0
   -4.1340    2.5754    0.9492 H   0  0  0  0  0  0  0  0  0  0  0  0
   -6.5824    2.1593    1.2387 H   0  0  0  0  0  0  0  0  0  0  0  0
   -7.7998    0.6013   -0.2402 H   0  0  0  0  0  0  0  0  0  0  0  0
   -4.1843   -0.1613   -2.3218 H   0  0  0  0  0  0  0  0  0  0  0  0
   -3.2180   -0.5488    0.7983 H   0  0  0  0  0  0  0  0  0  0  0  0
    3.1962   -0.2414    1.5574 H   0  0  0  0  0  0  0  0  0  0  0  0
    2.7429   -1.7036    0.5188 H   0  0  0  0  0  0  0  0  0  0  0  0
  1  2  1  0
  2  3  1  0
  3  4  1  0
  3  5  1  0
  5  6  1  0
  6  7  1  0
  7  8  1  0
  8  9  2  0
  9 10  1  0
 10 11  1  0
 11 12  1  0
 12 13  2  0
 13 14  1  0
 14 15  2  0
 15 16  1  0
 16 17  1  0
 16 18  2  0
 10 19  2  0
 19 20  1  0
 20 21  1  0
 21 22  1  0
 21 23  1  0
 21 24  1  0
 20 25  2  0
  7 26  1  0
 26  3  1  0
 25  8  1  0
 18 12  1  0
  1 27  1  0
  1 28  1  0
  2 29  1  0
  2 30  1  0
  4 31  1  0
  5 32  1  0
  5 33  1  0
  6 34  1  0
  6 35  1  0
 13 36  1  0
 14 37  1  0
 15 38  1  0
 18 39  1  0
 19 40  1  0
 26 41  1  0
 26 42  1  0
M  END
$$$$
