@<TRIPOS>MOLECULE
*****
 78 82 0 0 0
SMALL
GASTEIGER

@<TRIPOS>ATOM
      1 O           5.6365   -0.7687   -1.2616 O.2     1  UNL1       -0.2668
      2 C           6.4956   -0.1283   -0.5934 C.2     1  UNL1        0.2795
      3 N           5.9924    0.8360    0.3047 N.am    1  UNL1       -0.3088
      4 C           4.5689    1.0774    0.4511 C.3     1  UNL1        0.0120
      5 C           3.9041    1.5205   -0.8059 C.3     1  UNL1       -0.0374
      6 C           2.4325    1.7453   -0.5219 C.3     1  UNL1       -0.0516
      7 C           1.7205    0.5210   -0.0356 C.3     1  UNL1       -0.0530
      8 C           0.2703    0.8584    0.1962 C.3     1  UNL1       -0.0531
      9 C           0.0370    1.9316    1.2063 C.3     1  UNL1       -0.0531
     10 C          -1.4367    2.1849    1.3568 C.3     1  UNL1       -0.0530
     11 C          -2.2362    1.0099    1.8131 C.3     1  UNL1       -0.0516
     12 C          -3.6994    1.4692    1.9103 C.3     1  UNL1       -0.0375
     13 C          -4.5822    0.3596    2.3333 C.3     1  UNL1        0.0091
     14 N          -4.7159   -0.7639    1.4491 N.pl3   1  UNL1       -0.3431
     15 C          -5.6940   -0.7353    0.4257 C.ar    1  UNL1        0.0413
     16 C          -6.9535   -1.1884    0.8171 C.ar    1  UNL1       -0.0047
     17 C          -7.9949   -1.2190   -0.0761 C.ar    1  UNL1        0.0469
     18 N          -7.7985   -0.8098   -1.3352 N.ar    1  UNL1       -0.2512
     19 C          -6.6090   -0.3649   -1.7680 C.ar    1  UNL1        0.0744
     20 C          -6.3856    0.0501   -3.0586 C.ar    1  UNL1       -0.0173
     21 C          -5.1556    0.4974   -3.5006 C.ar    1  UNL1        0.0430
     22 CL         -4.9460    1.0115   -5.1622 Cl      1  UNL1       -0.0835
     23 C          -4.1075    0.5216   -2.5839 C.ar    1  UNL1       -0.0426
     24 C          -4.3010    0.1125   -1.2846 C.ar    1  UNL1       -0.0494
     25 C          -5.5373   -0.3280   -0.8692 C.ar    1  UNL1        0.0216
     26 C          -9.3466   -1.6957    0.3033 C.3     1  UNL1       -0.0101
     27 C          -9.6337   -1.6652    1.7613 C.3     1  UNL1       -0.0473
     28 C          -8.5418   -1.0559    2.6069 C.3     1  UNL1       -0.0486
     29 C          -7.2075   -1.6442    2.1890 C.3     1  UNL1       -0.0242
     30 C           7.9301   -0.3871   -0.7561 C.ar    1  UNL1        0.1934
     31 C           8.8562    0.3143   -0.0224 C.ar    1  UNL1        0.0333
     32 C          10.2120    0.0416   -0.2030 C.ar    1  UNL1        0.1932
     33 O          11.1071    0.6458    0.4349 O.2     1  UNL1       -0.2870
     34 C          10.5969   -0.9184   -1.1066 C.ar    1  UNL1        0.0640
     35 C          11.9185   -1.2345   -1.3312 C.ar    1  UNL1       -0.0474
     36 C          12.3278   -2.1952   -2.2340 C.ar    1  UNL1       -0.0609
     37 C          11.3162   -2.8403   -2.9186 C.ar    1  UNL1       -0.0582
     38 C           9.9893   -2.5487   -2.7179 C.ar    1  UNL1       -0.0186
     39 C           9.6260   -1.5836   -1.8081 C.ar    1  UNL1        0.1395
     40 O           8.3517   -1.2889   -1.6012 O.2     1  UNL1       -0.4500
     41 H           6.6170    1.4008    0.8862 H       1  UNL1        0.1491
     42 H           4.3293    1.7582    1.2638 H       1  UNL1        0.0462
     43 H           4.1250    0.0741    0.7151 H       1  UNL1        0.0462
     44 H           3.9433    0.7866   -1.6343 H       1  UNL1        0.0280
     45 H           4.2885    2.5197   -1.1591 H       1  UNL1        0.0280
     46 H           1.9278    2.1122   -1.4291 H       1  UNL1        0.0266
     47 H           2.3806    2.5375    0.2750 H       1  UNL1        0.0266
     48 H           1.7829   -0.2449   -0.8158 H       1  UNL1        0.0265
     49 H           2.1223    0.1414    0.9353 H       1  UNL1        0.0265
     50 H          -0.2700   -0.0718    0.5407 H       1  UNL1        0.0265
     51 H          -0.1881    1.0981   -0.7838 H       1  UNL1        0.0265
     52 H           0.5052    2.9114    0.8942 H       1  UNL1        0.0265
     53 H           0.4602    1.6560    2.1980 H       1  UNL1        0.0265
     54 H          -1.8936    2.5332    0.3917 H       1  UNL1        0.0265
     55 H          -1.6386    3.0167    2.0864 H       1  UNL1        0.0265
     56 H          -1.9378    0.7189    2.8772 H       1  UNL1        0.0266
     57 H          -2.1328    0.0876    1.2499 H       1  UNL1        0.0266
     58 H          -4.0075    1.9316    0.9414 H       1  UNL1        0.0280
     59 H          -3.6800    2.3144    2.6356 H       1  UNL1        0.0280
     60 H          -4.2150    0.0320    3.3562 H       1  UNL1        0.0461
     61 H          -5.5869    0.8088    2.5769 H       1  UNL1        0.0461
     62 H          -4.0708   -1.5702    1.6044 H       1  UNL1        0.1461
     63 H          -7.2358    0.0177   -3.7571 H       1  UNL1        0.0653
     64 H          -3.1609    0.8771   -2.9666 H       1  UNL1        0.0632
     65 H          -3.4849    0.1260   -0.5961 H       1  UNL1        0.0625
     66 H         -10.0640   -1.0098   -0.2312 H       1  UNL1        0.0328
     67 H          -9.5027   -2.7421   -0.0697 H       1  UNL1        0.0328
     68 H          -9.8529   -2.6630    2.1951 H       1  UNL1        0.0269
     69 H         -10.5450   -1.0595    1.9378 H       1  UNL1        0.0269
     70 H          -8.4990    0.0321    2.5424 H       1  UNL1        0.0269
     71 H          -8.7194   -1.3611    3.6534 H       1  UNL1        0.0269
     72 H          -6.4109   -1.4208    2.9041 H       1  UNL1        0.0314
     73 H          -7.3078   -2.7634    2.1501 H       1  UNL1        0.0314
     74 H           8.5830    1.0757    0.6962 H       1  UNL1        0.0695
     75 H          12.6727   -0.6814   -0.7512 H       1  UNL1        0.0626
     76 H          13.3751   -2.4203   -2.3875 H       1  UNL1        0.0618
     77 H          11.6336   -3.6028   -3.6355 H       1  UNL1        0.0619
     78 H           9.2509   -3.0982   -3.2935 H       1  UNL1        0.0654
@<TRIPOS>BOND
     1     1     2    2
     2     2     3   am
     3     3     4    1
     4     4     5    1
     5     5     6    1
     6     6     7    1
     7     7     8    1
     8     8     9    1
     9     9    10    1
    10    10    11    1
    11    11    12    1
    12    12    13    1
    13    13    14    1
    14    14    15    1
    15    15    16   ar
    16    16    17   ar
    17    17    18   ar
    18    18    19   ar
    19    19    20   ar
    20    20    21   ar
    21    21    22    1
    22    21    23   ar
    23    23    24   ar
    24    24    25   ar
    25    17    26    1
    26    26    27    1
    27    27    28    1
    28    28    29    1
    29     2    30    1
    30    30    31   ar
    31    31    32   ar
    32    32    33    2
    33    32    34   ar
    34    34    35   ar
    35    35    36   ar
    36    36    37   ar
    37    37    38   ar
    38    38    39   ar
    39    39    40   ar
    40    25    15   ar
    41    40    30   ar
    42    29    16    1
    43    39    34   ar
    44    25    19   ar
    45     3    41    1
    46     4    42    1
    47     4    43    1
    48     5    44    1
    49     5    45    1
    50     6    46    1
    51     6    47    1
    52     7    48    1
    53     7    49    1
    54     8    50    1
    55     8    51    1
    56     9    52    1
    57     9    53    1
    58    10    54    1
    59    10    55    1
    60    11    56    1
    61    11    57    1
    62    12    58    1
    63    12    59    1
    64    13    60    1
    65    13    61    1
    66    14    62    1
    67    20    63    1
    68    23    64    1
    69    24    65    1
    70    26    66    1
    71    26    67    1
    72    27    68    1
    73    27    69    1
    74    28    70    1
    75    28    71    1
    76    29    72    1
    77    29    73    1
    78    31    74    1
    79    35    75    1
    80    36    76    1
    81    37    77    1
    82    38    78    1
