@<TRIPOS>MOLECULE
*****
 62 64 0 0 0
SMALL
GASTEIGER

@<TRIPOS>ATOM
      1 C          -0.4007   -2.7204    0.1321 C.2     1  UNL1       -0.0950
      2 C           0.1963   -1.8343   -0.6330 C.2     1  UNL1       -0.0453
      3 C           0.4785   -2.2793   -2.0480 C.3     1  UNL1       -0.0395
      4 C           0.4383   -0.4548   -0.2497 C.ar    1  UNL1        0.0387
      5 C           1.4641    0.2316   -0.8439 C.ar    1  UNL1        0.0442
      6 N           2.5168   -0.2167   -1.6147 N.pl3   1  UNL1       -0.3132
      7 C           3.5011   -1.2063   -1.5407 C.ar    1  UNL1        0.0484
      8 C           3.6177   -2.0565   -2.6602 C.ar    1  UNL1       -0.0216
      9 C           4.5183   -3.0692   -2.7489 C.ar    1  UNL1        0.0294
     10 N           5.3447   -3.2664   -1.7029 N.ar    1  UNL1       -0.2623
     11 C           5.2648   -2.4827   -0.6262 C.ar    1  UNL1        0.0433
     12 C           4.3375   -1.4181   -0.5005 C.ar    1  UNL1        0.0981
     13 C           4.3315   -0.6409    0.7043 C.2     1  UNL1        0.3422
     14 O           5.2008   -0.9691    1.6044 O.2     1  UNL1       -0.2448
     15 O           3.5499    0.4040    1.0679 O.3     1  UNL1       -0.4644
     16 C           3.6008    1.1175    2.2665 C.3     1  UNL1        0.0820
     17 C           1.5067    1.6333   -0.5565 C.ar    1  UNL1       -0.0137
     18 C           0.6146    2.2619    0.2444 C.ar    1  UNL1        0.0777
     19 C           0.6450    3.6842    0.5458 C.ar    1  UNL1        0.0370
     20 C          -0.3359    4.2307    1.3942 C.ar    1  UNL1       -0.0314
     21 C          -0.3946    5.5382    1.7352 C.ar    1  UNL1        0.0418
     22 CL         -1.6047    6.2195    2.7836 Cl      1  UNL1       -0.0835
     23 C           0.5605    6.4046    1.2275 C.ar    1  UNL1       -0.0406
     24 C           1.5338    5.9394    0.4031 C.ar    1  UNL1       -0.0244
     25 C           1.5597    4.5758    0.0736 C.ar    1  UNL1        0.1326
     26 F           2.5621    4.2047   -0.7510 F       1  UNL1       -0.2048
     27 N          -0.3759    1.5055    0.8024 N.ar    1  UNL1       -0.2309
     28 C          -0.4920    0.1862    0.5849 C.ar    1  UNL1        0.1373
     29 N          -1.5941   -0.5000    1.1890 N.am    1  UNL1       -0.2350
     30 C          -2.8125   -0.7792    0.5140 C.2     1  UNL1        0.4062
     31 O          -2.9036   -0.3926   -0.6776 O.2     1  UNL1       -0.2261
     32 O          -3.8811   -1.4352    1.0737 O.3     1  UNL1       -0.4444
     33 C          -5.0764   -1.6862    0.3475 C.3     1  UNL1        0.1068
     34 C          -6.0525   -2.4209    1.2380 C.3     1  UNL1       -0.0253
     35 C          -4.7107   -2.6479   -0.7856 C.3     1  UNL1       -0.0253
     36 C          -5.7204   -0.4347   -0.1635 C.3     1  UNL1       -0.0253
     37 H          -0.6778   -3.7210   -0.2452 H       1  UNL1        0.0538
     38 H          -0.6176   -2.5462    1.1470 H       1  UNL1        0.0538
     39 H          -0.5507   -2.5439   -2.4503 H       1  UNL1        0.0278
     40 H           0.8171   -1.4308   -2.6349 H       1  UNL1        0.0278
     41 H           1.1217   -3.1509   -1.9961 H       1  UNL1        0.0278
     42 H           2.5991    0.3753   -2.5617 H       1  UNL1        0.1522
     43 H           2.9606   -1.9142   -3.5244 H       1  UNL1        0.0651
     44 H           4.5687   -3.6960   -3.6321 H       1  UNL1        0.0830
     45 H           5.9330   -2.6544    0.2008 H       1  UNL1        0.0838
     46 H           4.3496    1.9348    2.2668 H       1  UNL1        0.0661
     47 H           2.6285    1.5373    2.5847 H       1  UNL1        0.0661
     48 H           3.9256    0.4125    3.0697 H       1  UNL1        0.0661
     49 H           2.3157    2.1677   -1.0325 H       1  UNL1        0.0658
     50 H          -1.0858    3.5632    1.7959 H       1  UNL1        0.0639
     51 H           0.5362    7.4625    1.4862 H       1  UNL1        0.0633
     52 H           2.2791    6.5992    0.0031 H       1  UNL1        0.0647
     53 H          -1.4941   -0.7751    2.1813 H       1  UNL1        0.1596
     54 H          -6.3117   -3.4288    0.8525 H       1  UNL1        0.0268
     55 H          -7.0180   -1.8580    1.3279 H       1  UNL1        0.0268
     56 H          -5.6470   -2.5005    2.2842 H       1  UNL1        0.0268
     57 H          -5.6117   -3.2069   -1.1297 H       1  UNL1        0.0268
     58 H          -3.9840   -3.3783   -0.3667 H       1  UNL1        0.0268
     59 H          -4.2399   -2.0706   -1.6067 H       1  UNL1        0.0268
     60 H          -5.6717    0.3389    0.6195 H       1  UNL1        0.0268
     61 H          -5.2996   -0.1035   -1.1356 H       1  UNL1        0.0268
     62 H          -6.8137   -0.6380   -0.3318 H       1  UNL1        0.0268
@<TRIPOS>BOND
     1     1     2    2
     2     2     3    1
     3     2     4    1
     4     4     5   ar
     5     5     6    1
     6     6     7    1
     7     7     8   ar
     8     8     9   ar
     9     9    10   ar
    10    10    11   ar
    11    11    12   ar
    12    12    13    1
    13    13    14    2
    14    13    15    1
    15    15    16    1
    16     5    17   ar
    17    17    18   ar
    18    18    19    1
    19    19    20   ar
    20    20    21   ar
    21    21    22    1
    22    21    23   ar
    23    23    24   ar
    24    24    25   ar
    25    25    26    1
    26    18    27   ar
    27    27    28   ar
    28    28    29    1
    29    29    30   am
    30    30    31    2
    31    30    32    1
    32    32    33    1
    33    33    34    1
    34    33    35    1
    35    33    36    1
    36    28     4   ar
    37    12     7   ar
    38    25    19   ar
    39     1    37    1
    40     1    38    1
    41     3    39    1
    42     3    40    1
    43     3    41    1
    44     6    42    1
    45     8    43    1
    46     9    44    1
    47    11    45    1
    48    16    46    1
    49    16    47    1
    50    16    48    1
    51    17    49    1
    52    20    50    1
    53    23    51    1
    54    24    52    1
    55    29    53    1
    56    34    54    1
    57    34    55    1
    58    34    56    1
    59    35    57    1
    60    35    58    1
    61    35    59    1
    62    36    60    1
    63    36    61    1
    64    36    62    1
