
     RDKit          3D

 62 64  0  0  0  0  0  0  0  0999 V2000
   -0.4007   -2.7204    0.1321 C   0  0  0  0  0  0  0  0  0  0  0  0
    0.1963   -1.8343   -0.6330 C   0  0  0  0  0  0  0  0  0  0  0  0
    0.4785   -2.2793   -2.0480 C   0  0  0  0  0  0  0  0  0  0  0  0
    0.4383   -0.4548   -0.2497 C   0  0  0  0  0  0  0  0  0  0  0  0
    1.4641    0.2316   -0.8439 C   0  0  0  0  0  0  0  0  0  0  0  0
    2.5168   -0.2167   -1.6147 N   0  0  0  0  0  0  0  0  0  0  0  0
    3.5011   -1.2063   -1.5407 C   0  0  0  0  0  0  0  0  0  0  0  0
    3.6177   -2.0565   -2.6602 C   0  0  0  0  0  0  0  0  0  0  0  0
    4.5183   -3.0692   -2.7489 C   0  0  0  0  0  0  0  0  0  0  0  0
    5.3447   -3.2664   -1.7029 N   0  0  0  0  0  0  0  0  0  0  0  0
    5.2648   -2.4827   -0.6262 C   0  0  0  0  0  0  0  0  0  0  0  0
    4.3375   -1.4181   -0.5005 C   0  0  0  0  0  0  0  0  0  0  0  0
    4.3315   -0.6409    0.7043 C   0  0  0  0  0  0  0  0  0  0  0  0
    5.2008   -0.9691    1.6044 O   0  0  0  0  0  0  0  0  0  0  0  0
    3.5499    0.4040    1.0679 O   0  0  0  0  0  0  0  0  0  0  0  0
    3.6008    1.1175    2.2665 C   0  0  0  0  0  0  0  0  0  0  0  0
    1.5067    1.6333   -0.5565 C   0  0  0  0  0  0  0  0  0  0  0  0
    0.6146    2.2619    0.2444 C   0  0  0  0  0  0  0  0  0  0  0  0
    0.6450    3.6842    0.5458 C   0  0  0  0  0  0  0  0  0  0  0  0
   -0.3359    4.2307    1.3942 C   0  0  0  0  0  0  0  0  0  0  0  0
   -0.3946    5.5382    1.7352 C   0  0  0  0  0  0  0  0  0  0  0  0
   -1.6047    6.2195    2.7836 Cl  0  0  0  0  0  0  0  0  0  0  0  0
    0.5605    6.4046    1.2275 C   0  0  0  0  0  0  0  0  0  0  0  0
    1.5338    5.9394    0.4031 C   0  0  0  0  0  0  0  0  0  0  0  0
    1.5597    4.5758    0.0736 C   0  0  0  0  0  0  0  0  0  0  0  0
    2.5621    4.2047   -0.7510 F   0  0  0  0  0  0  0  0  0  0  0  0
   -0.3759    1.5055    0.8024 N   0  0  0  0  0  0  0  0  0  0  0  0
   -0.4920    0.1862    0.5849 C   0  0  0  0  0  0  0  0  0  0  0  0
   -1.5941   -0.5000    1.1890 N   0  0  0  0  0  0  0  0  0  0  0  0
   -2.8125   -0.7792    0.5140 C   0  0  0  0  0  0  0  0  0  0  0  0
   -2.9036   -0.3926   -0.6776 O   0  0  0  0  0  0  0  0  0  0  0  0
   -3.8811   -1.4352    1.0737 O   0  0  0  0  0  0  0  0  0  0  0  0
   -5.0764   -1.6862    0.3475 C   0  0  0  0  0  0  0  0  0  0  0  0
   -6.0525   -2.4209    1.2380 C   0  0  0  0  0  0  0  0  0  0  0  0
   -4.7107   -2.6479   -0.7856 C   0  0  0  0  0  0  0  0  0  0  0  0
   -5.7204   -0.4347   -0.1635 C   0  0  0  0  0  0  0  0  0  0  0  0
   -0.6778   -3.7210   -0.2452 H   0  0  0  0  0  0  0  0  0  0  0  0
   -0.6176   -2.5462    1.1470 H   0  0  0  0  0  0  0  0  0  0  0  0
   -0.5507   -2.5439   -2.4503 H   0  0  0  0  0  0  0  0  0  0  0  0
    0.8171   -1.4308   -2.6349 H   0  0  0  0  0  0  0  0  0  0  0  0
    1.1217   -3.1509   -1.9961 H   0  0  0  0  0  0  0  0  0  0  0  0
    2.5991    0.3753   -2.5617 H   0  0  0  0  0  0  0  0  0  0  0  0
    2.9606   -1.9142   -3.5244 H   0  0  0  0  0  0  0  0  0  0  0  0
    4.5687   -3.6960   -3.6321 H   0  0  0  0  0  0  0  0  0  0  0  0
    5.9330   -2.6544    0.2008 H   0  0  0  0  0  0  0  0  0  0  0  0
    4.3496    1.9348    2.2668 H   0  0  0  0  0  0  0  0  0  0  0  0
    2.6285    1.5373    2.5847 H   0  0  0  0  0  0  0  0  0  0  0  0
    3.9256    0.4125    3.0697 H   0  0  0  0  0  0  0  0  0  0  0  0
    2.3157    2.1677   -1.0325 H   0  0  0  0  0  0  0  0  0  0  0  0
   -1.0858    3.5632    1.7959 H   0  0  0  0  0  0  0  0  0  0  0  0
    0.5362    7.4625    1.4862 H   0  0  0  0  0  0  0  0  0  0  0  0
    2.2791    6.5992    0.0031 H   0  0  0  0  0  0  0  0  0  0  0  0
   -1.4941   -0.7751    2.1813 H   0  0  0  0  0  0  0  0  0  0  0  0
   -6.3117   -3.4288    0.8525 H   0  0  0  0  0  0  0  0  0  0  0  0
   -7.0180   -1.8580    1.3279 H   0  0  0  0  0  0  0  0  0  0  0  0
   -5.6470   -2.5005    2.2842 H   0  0  0  0  0  0  0  0  0  0  0  0
   -5.6117   -3.2069   -1.1297 H   0  0  0  0  0  0  0  0  0  0  0  0
   -3.9840   -3.3783   -0.3667 H   0  0  0  0  0  0  0  0  0  0  0  0
   -4.2399   -2.0706   -1.6067 H   0  0  0  0  0  0  0  0  0  0  0  0
   -5.6717    0.3389    0.6195 H   0  0  0  0  0  0  0  0  0  0  0  0
   -5.2996   -0.1035   -1.1356 H   0  0  0  0  0  0  0  0  0  0  0  0
   -6.8137   -0.6380   -0.3318 H   0  0  0  0  0  0  0  0  0  0  0  0
  1  2  2  3
  2  3  1  0
  2  4  1  0
  4  5  2  0
  5  6  1  0
  6  7  1  0
  7  8  2  0
  8  9  1  0
  9 10  2  0
 10 11  1  0
 11 12  2  0
 12 13  1  0
 13 14  2  0
 13 15  1  0
 15 16  1  0
  5 17  1  0
 17 18  2  0
 18 19  1  0
 19 20  2  0
 20 21  1  0
 21 22  1  0
 21 23  2  0
 23 24  1  0
 24 25  2  0
 25 26  1  0
 18 27  1  0
 27 28  2  0
 28 29  1  0
 29 30  1  0
 30 31  2  0
 30 32  1  0
 32 33  1  0
 33 34  1  0
 33 35  1  0
 33 36  1  0
 28  4  1  0
 12  7  1  0
 25 19  1  0
  1 37  1  0
  1 38  1  0
  3 39  1  0
  3 40  1  0
  3 41  1  0
  6 42  1  0
  8 43  1  0
  9 44  1  0
 11 45  1  0
 16 46  1  0
 16 47  1  0
 16 48  1  0
 17 49  1  0
 20 50  1  0
 23 51  1  0
 24 52  1  0
 29 53  1  0
 34 54  1  0
 34 55  1  0
 34 56  1  0
 35 57  1  0
 35 58  1  0
 35 59  1  0
 36 60  1  0
 36 61  1  0
 36 62  1  0
M  END
$$$$
