
     RDKit          3D

 81 82  0  0  0  0  0  0  0  0999 V2000
    7.3975   -0.0587    0.8931 C   0  0  1  0  0  0  0  0  0  0  0  0
    7.8457   -0.3821   -0.3998 O   0  0  0  0  0  0  0  0  0  0  0  0
    7.2461    1.4313    0.9813 C   0  0  2  0  0  0  0  0  0  0  0  0
    8.4969    1.9520    1.3565 O   0  0  0  0  0  0  0  0  0  0  0  0
    6.3091    1.7134    2.1220 C   0  0  1  0  0  0  0  0  0  0  0  0
    6.1942    3.2169    2.2722 C   0  0  0  0  0  0  0  0  0  0  0  0
    5.4414    3.4892    3.3924 O   0  0  0  0  0  0  0  0  0  0  0  0
    5.0540    1.1722    1.9871 O   0  0  0  0  0  0  0  0  0  0  0  0
    4.9615    0.1119    1.1048 C   0  0  2  0  0  0  0  0  0  0  0  0
    3.7600   -0.5359    1.3864 O   0  0  0  0  0  0  0  0  0  0  0  0
    2.9239   -0.5788    0.3038 C   0  0  1  0  0  0  0  0  0  0  0  0
    2.5994   -1.9822   -0.1807 C   0  0  2  0  0  0  0  0  0  0  0  0
    3.7027   -2.6757   -0.6371 O   0  0  0  0  0  0  0  0  0  0  0  0
    1.7086   -1.7486   -1.4034 C   0  0  1  0  0  0  0  0  0  0  0  0
    1.5941   -2.9739   -2.0489 O   0  0  0  0  0  0  0  0  0  0  0  0
    0.3832   -1.2532   -0.8769 C   0  0  1  0  0  0  0  0  0  0  0  0
   -0.5700   -2.2525   -0.8522 O   0  0  0  0  0  0  0  0  0  0  0  0
   -1.6414   -1.9401   -1.7443 C   0  0  0  0  0  0  0  0  0  0  0  0
   -2.5866   -3.0662   -1.6337 C   0  0  0  0  0  0  0  0  0  0  0  0
   -3.7780   -3.2085   -2.4532 C   0  0  0  0  0  0  0  0  0  0  0  0
   -4.8075   -2.1193   -2.4321 C   0  0  0  0  0  0  0  0  0  0  0  0
   -4.3734   -0.8342   -3.0480 C   0  0  0  0  0  0  0  0  0  0  0  0
   -5.4341    0.2098   -3.0057 C   0  0  0  0  0  0  0  0  0  0  0  0
   -5.8027    0.7783   -1.7132 C   0  0  0  0  0  0  0  0  0  0  0  0
   -6.3001   -0.0329   -0.5832 C   0  0  0  0  0  0  0  0  0  0  0  0
   -6.7718    0.9239    0.5379 C   0  0  0  0  0  0  0  0  0  0  0  0
   -5.6180    1.7577    0.9800 C   0  0  0  0  0  0  0  0  0  0  0  0
   -6.0500    2.6843    2.1374 C   0  0  0  0  0  0  0  0  0  0  0  0
   -6.5139    1.7861    3.2458 C   0  0  0  0  0  0  0  0  0  0  0  0
    0.5017   -0.7179    0.3798 O   0  0  0  0  0  0  0  0  0  0  0  0
    1.6023    0.1202    0.5274 C   0  0  2  0  0  0  0  0  0  0  0  0
    1.4796    1.3924   -0.2892 C   0  0  0  0  0  0  0  0  0  0  0  0
    0.3152    2.0412    0.1820 O   0  0  0  0  0  0  0  0  0  0  0  0
    6.1504   -0.7903    1.2706 C   0  0  2  0  0  0  0  0  0  0  0  0
    6.2326   -1.2092    2.6020 O   0  0  0  0  0  0  0  0  0  0  0  0
    8.2259   -0.3901    1.5679 H   0  0  0  0  0  0  0  0  0  0  0  0
    8.4323    0.3225   -0.7540 H   0  0  0  0  0  0  0  0  0  0  0  0
    6.9275    1.8920    0.0323 H   0  0  0  0  0  0  0  0  0  0  0  0
    9.2378    1.4130    0.9726 H   0  0  0  0  0  0  0  0  0  0  0  0
    6.7967    1.3192    3.0392 H   0  0  0  0  0  0  0  0  0  0  0  0
    7.2387    3.5810    2.4697 H   0  0  0  0  0  0  0  0  0  0  0  0
    5.7506    3.7049    1.4043 H   0  0  0  0  0  0  0  0  0  0  0  0
    5.9289    4.0042    4.0827 H   0  0  0  0  0  0  0  0  0  0  0  0
    4.9214    0.4305    0.0473 H   0  0  0  0  0  0  0  0  0  0  0  0
    3.4200   -0.0718   -0.5626 H   0  0  0  0  0  0  0  0  0  0  0  0
    2.1079   -2.5839    0.5914 H   0  0  0  0  0  0  0  0  0  0  0  0
    3.7258   -3.5974   -0.2773 H   0  0  0  0  0  0  0  0  0  0  0  0
    2.2365   -1.0317   -2.0433 H   0  0  0  0  0  0  0  0  0  0  0  0
    1.5995   -3.6716   -1.3552 H   0  0  0  0  0  0  0  0  0  0  0  0
    0.0719   -0.4416   -1.5978 H   0  0  0  0  0  0  0  0  0  0  0  0
   -1.3195   -1.6104   -2.7137 H   0  0  0  0  0  0  0  0  0  0  0  0
   -2.0566   -1.0238   -1.1936 H   0  0  0  0  0  0  0  0  0  0  0  0
   -1.9866   -4.0604   -1.6521 H   0  0  0  0  0  0  0  0  0  0  0  0
   -2.8928   -3.0898   -0.5150 H   0  0  0  0  0  0  0  0  0  0  0  0
   -4.3556   -4.1302   -2.0750 H   0  0  0  0  0  0  0  0  0  0  0  0
   -3.5515   -3.4922   -3.5283 H   0  0  0  0  0  0  0  0  0  0  0  0
   -5.1413   -2.0628   -1.3811 H   0  0  0  0  0  0  0  0  0  0  0  0
   -5.7415   -2.5045   -2.9850 H   0  0  0  0  0  0  0  0  0  0  0  0
   -4.2137   -1.1273   -4.1708 H   0  0  0  0  0  0  0  0  0  0  0  0
   -3.4055   -0.4516   -2.6923 H   0  0  0  0  0  0  0  0  0  0  0  0
   -6.3690   -0.2789   -3.4436 H   0  0  0  0  0  0  0  0  0  0  0  0
   -5.2109    1.0234   -3.7744 H   0  0  0  0  0  0  0  0  0  0  0  0
   -6.5285    1.6438   -1.9215 H   0  0  0  0  0  0  0  0  0  0  0  0
   -4.8693    1.3275   -1.2873 H   0  0  0  0  0  0  0  0  0  0  0  0
   -5.4249   -0.5315   -0.0329 H   0  0  0  0  0  0  0  0  0  0  0  0
   -7.0557   -0.7832   -0.7832 H   0  0  0  0  0  0  0  0  0  0  0  0
   -7.2404    0.3518    1.3462 H   0  0  0  0  0  0  0  0  0  0  0  0
   -7.5036    1.6008    0.0246 H   0  0  0  0  0  0  0  0  0  0  0  0
   -5.3465    2.4592    0.1479 H   0  0  0  0  0  0  0  0  0  0  0  0
   -4.7651    1.1375    1.2363 H   0  0  0  0  0  0  0  0  0  0  0  0
   -6.8460    3.3377    1.7723 H   0  0  0  0  0  0  0  0  0  0  0  0
   -5.1771    3.2896    2.4416 H   0  0  0  0  0  0  0  0  0  0  0  0
   -6.2892    2.2756    4.2373 H   0  0  0  0  0  0  0  0  0  0  0  0
   -7.5722    1.5030    3.1498 H   0  0  0  0  0  0  0  0  0  0  0  0
   -5.9067    0.8517    3.2155 H   0  0  0  0  0  0  0  0  0  0  0  0
    1.5949    0.4579    1.5914 H   0  0  0  0  0  0  0  0  0  0  0  0
    2.3324    2.0348    0.0298 H   0  0  0  0  0  0  0  0  0  0  0  0
    1.4378    1.2166   -1.3637 H   0  0  0  0  0  0  0  0  0  0  0  0
    0.4850    2.3930    1.0907 H   0  0  0  0  0  0  0  0  0  0  0  0
    6.0901   -1.6850    0.6249 H   0  0  0  0  0  0  0  0  0  0  0  0
    6.5553   -2.1246    2.6267 H   0  0  0  0  0  0  0  0  0  0  0  0
  1  2  1  0
  1  3  1  0
  3  4  1  0
  3  5  1  0
  5  6  1  0
  6  7  1  0
  5  8  1  0
  8  9  1  0
  9 10  1  0
 10 11  1  0
 11 12  1  0
 12 13  1  0
 12 14  1  0
 14 15  1  0
 14 16  1  0
 16 17  1  0
 17 18  1  0
 18 19  1  0
 19 20  1  0
 20 21  1  0
 21 22  1  0
 22 23  1  0
 23 24  1  0
 24 25  1  0
 25 26  1  0
 26 27  1  0
 27 28  1  0
 28 29  1  0
 16 30  1  0
 30 31  1  0
 31 32  1  0
 32 33  1  0
  9 34  1  0
 34 35  1  0
 34  1  1  0
 31 11  1  0
  1 36  1  1
  2 37  1  0
  3 38  1  6
  4 39  1  0
  5 40  1  1
  6 41  1  0
  6 42  1  0
  7 43  1  0
  9 44  1  6
 11 45  1  6
 12 46  1  1
 13 47  1  0
 14 48  1  6
 15 49  1  0
 16 50  1  6
 18 51  1  0
 18 52  1  0
 19 53  1  0
 19 54  1  0
 20 55  1  0
 20 56  1  0
 21 57  1  0
 21 58  1  0
 22 59  1  0
 22 60  1  0
 23 61  1  0
 23 62  1  0
 24 63  1  0
 24 64  1  0
 25 65  1  0
 25 66  1  0
 26 67  1  0
 26 68  1  0
 27 69  1  0
 27 70  1  0
 28 71  1  0
 28 72  1  0
 29 73  1  0
 29 74  1  0
 29 75  1  0
 31 76  1  1
 32 77  1  0
 32 78  1  0
 33 79  1  0
 34 80  1  6
 35 81  1  0
M  END
$$$$
