@<TRIPOS>MOLECULE
*****
 44 46 0 0 0
SMALL
GASTEIGER

@<TRIPOS>ATOM
      1 C          -2.9570   -0.0817    1.5391 C.3     1  UNL1       -0.0352
      2 C          -2.4613    0.3934    0.1927 C.3     1  UNL1        0.0951
      3 C          -1.1737    1.0915    0.4079 C.ar    1  UNL1        0.0168
      4 C           0.0286    0.6852   -0.0843 C.ar    1  UNL1       -0.0323
      5 C           1.2188    1.3658    0.1505 C.ar    1  UNL1        0.0342
      6 N           2.4553    0.9150   -0.3778 N.am    1  UNL1       -0.2802
      7 C           3.2990    0.0202    0.3178 C.2     1  UNL1        0.2666
      8 O           2.8714   -0.3579    1.4610 O.2     1  UNL1       -0.2682
      9 C           4.5655   -0.4548   -0.1995 C.ar    1  UNL1        0.1257
     10 C           5.3538   -1.3182    0.4997 C.ar    1  UNL1       -0.0298
     11 C           6.5700   -1.7635   -0.0164 C.ar    1  UNL1       -0.0397
     12 C           6.9567   -1.3076   -1.2553 C.ar    1  UNL1        0.0591
     13 CL          8.4850   -1.8677   -1.9031 Cl      1  UNL1       -0.0820
     14 C           6.1463   -0.4413   -1.9358 C.ar    1  UNL1        0.0467
     15 N           4.9725   -0.0304   -1.4035 N.ar    1  UNL1       -0.2489
     16 C           1.1719    2.5083    0.9211 C.ar    1  UNL1       -0.0377
     17 C          -0.0125    2.9478    1.4319 C.ar    1  UNL1       -0.0243
     18 C          -1.1663    2.2385    1.1711 C.ar    1  UNL1        0.1290
     19 F          -2.3212    2.7428    1.7064 F       1  UNL1       -0.2051
     20 C          -2.2998   -0.8257   -0.6860 C.3     1  UNL1        0.0223
     21 C          -3.6296   -1.3519   -1.1546 C.3     1  UNL1        0.1997
     22 C          -3.9296   -2.7526   -0.6276 C.3     1  UNL1        0.4266
     23 F          -3.9711   -2.8411    0.7235 F       1  UNL1       -0.1669
     24 F          -5.1598   -3.1351   -1.1261 F       1  UNL1       -0.1669
     25 F          -2.9958   -3.6130   -1.1885 F       1  UNL1       -0.1669
     26 O          -4.7005   -0.4673   -0.8884 O.2     1  UNL1       -0.4534
     27 C          -4.4478    0.8960   -0.9817 C.2     1  UNL1        0.2765
     28 N          -5.3582    1.7994   -1.6323 N.pl3   1  UNL1       -0.3134
     29 N          -3.3530    1.3203   -0.4545 N.2     1  UNL1       -0.2257
     30 H          -2.4172   -0.9872    1.8800 H       1  UNL1        0.0256
     31 H          -4.0641   -0.2465    1.4403 H       1  UNL1        0.0256
     32 H          -2.8473    0.6531    2.3531 H       1  UNL1        0.0256
     33 H           0.0744   -0.2008   -0.6829 H       1  UNL1        0.0640
     34 H           2.7487    1.2569   -1.3104 H       1  UNL1        0.1552
     35 H           5.0036   -1.6468    1.4700 H       1  UNL1        0.0641
     36 H           7.1718   -2.4376    0.5441 H       1  UNL1        0.0633
     37 H           6.4804   -0.1014   -2.9090 H       1  UNL1        0.0844
     38 H           2.1241    3.0363    1.0981 H       1  UNL1        0.0637
     39 H          -0.0162    3.8450    2.0310 H       1  UNL1        0.0647
     40 H          -1.7376   -1.6015   -0.1271 H       1  UNL1        0.0330
     41 H          -1.6984   -0.6039   -1.5923 H       1  UNL1        0.0330
     42 H          -3.6300   -1.5076   -2.2798 H       1  UNL1        0.0826
     43 H          -5.2206    2.0333   -2.6253 H       1  UNL1        0.1466
     44 H          -6.1291    2.1944   -1.0930 H       1  UNL1        0.1466
@<TRIPOS>BOND
     1     2     1    1
     2     2     3    1
     3     3     4   ar
     4     4     5   ar
     5     5     6    1
     6     6     7   am
     7     7     8    2
     8     7     9    1
     9     9    10   ar
    10    10    11   ar
    11    11    12   ar
    12    12    13    1
    13    12    14   ar
    14    14    15   ar
    15     5    16   ar
    16    16    17   ar
    17    17    18   ar
    18    18    19    1
    19     2    20    1
    20    20    21    1
    21    21    22    1
    22    22    23    1
    23    22    24    1
    24    22    25    1
    25    21    26    1
    26    26    27    1
    27    27    28    1
    28    27    29    2
    29    29     2    1
    30    18     3   ar
    31    15     9   ar
    32     1    30    1
    33     1    31    1
    34     1    32    1
    35     4    33    1
    36     6    34    1
    37    10    35    1
    38    11    36    1
    39    14    37    1
    40    16    38    1
    41    17    39    1
    42    20    40    1
    43    20    41    1
    44    21    42    1
    45    28    43    1
    46    28    44    1
