@<TRIPOS>MOLECULE
*****
 50 53 0 0 0
SMALL
GASTEIGER

@<TRIPOS>ATOM
      1 C           1.8540   -0.0635    2.9536 C.3     1  UNL1       -0.0121
      2 N           1.0629   -0.6391    1.9511 N.3     1  UNL1       -0.2957
      3 C           0.7232   -2.0280    2.0720 C.3     1  UNL1        0.0010
      4 C          -0.6325   -2.1745    1.4103 C.3     1  UNL1       -0.0216
      5 C          -0.3856   -2.0718   -0.0679 C.3     1  UNL1        0.0276
      6 N          -1.6205   -2.0978   -0.8253 N.am    1  UNL1       -0.2962
      7 C          -2.5491   -1.0044   -0.8689 C.2     1  UNL1        0.3041
      8 O          -2.2939    0.0148   -0.2316 O.2     1  UNL1       -0.2525
      9 N          -3.7482   -1.0859   -1.6313 N.am    1  UNL1       -0.2695
     10 C          -4.6216    0.0562   -1.6380 C.ar    1  UNL1        0.0348
     11 C          -4.5281    1.0313   -2.5978 C.ar    1  UNL1       -0.0392
     12 C          -5.3504    2.1347   -2.6201 C.ar    1  UNL1       -0.0426
     13 C          -6.3260    2.3177   -1.6612 C.ar    1  UNL1        0.0519
     14 C          -7.1818    3.4677   -1.6876 C.1     1  UNL1        0.0992
     15 N          -7.8841    4.4080   -1.7151 N.1     1  UNL1       -0.1909
     16 C          -6.4281    1.3283   -0.6774 C.ar    1  UNL1       -0.0426
     17 C          -5.5923    0.2302   -0.6756 C.ar    1  UNL1       -0.0392
     18 C           0.4367   -0.8992   -0.4231 C.3     1  UNL1       -0.0117
     19 C           1.1175   -0.1435    0.6357 C.3     1  UNL1        0.0700
     20 C           2.5386    0.1772    0.2900 C.ar    1  UNL1        0.1255
     21 N           2.9662    1.1874   -0.5189 N.ar    1  UNL1       -0.2309
     22 C           4.3137    1.1817   -0.5786 C.ar    1  UNL1        0.0892
     23 C           5.2657    1.9528   -1.2213 C.ar    1  UNL1       -0.0342
     24 C           6.6066    1.7405   -1.1148 C.ar    1  UNL1       -0.0596
     25 C           7.0453    0.6906   -0.3147 C.ar    1  UNL1       -0.0597
     26 C           6.1068   -0.0944    0.3382 C.ar    1  UNL1       -0.0363
     27 C           4.7406    0.1666    0.1933 C.ar    1  UNL1        0.0662
     28 N           3.6534   -0.4380    0.7161 N.ar    1  UNL1       -0.3405
     29 H           2.4640    0.7728    2.5474 H       1  UNL1        0.0391
     30 H           2.5544   -0.8292    3.3731 H       1  UNL1        0.0391
     31 H           1.2051    0.3675    3.7469 H       1  UNL1        0.0391
     32 H           1.4338   -2.6417    1.4494 H       1  UNL1        0.0427
     33 H           0.7371   -2.3168    3.1202 H       1  UNL1        0.0427
     34 H          -1.2309   -1.2893    1.7837 H       1  UNL1        0.0295
     35 H          -1.1196   -3.1439    1.6597 H       1  UNL1        0.0295
     36 H           0.2066   -2.9887   -0.3602 H       1  UNL1        0.0500
     37 H          -1.8647   -2.9454   -1.3789 H       1  UNL1        0.1505
     38 H          -3.9765   -1.9602   -2.1712 H       1  UNL1        0.1564
     39 H          -3.7823    0.9457   -3.3778 H       1  UNL1        0.0636
     40 H          -5.2684    2.9119   -3.3933 H       1  UNL1        0.0631
     41 H          -7.1983    1.4872    0.0680 H       1  UNL1        0.0631
     42 H          -5.6864   -0.5414    0.1054 H       1  UNL1        0.0636
     43 H           1.2353   -1.2340   -1.1626 H       1  UNL1        0.0302
     44 H          -0.1900   -0.2173   -1.0806 H       1  UNL1        0.0302
     45 H           0.6254    0.8824    0.6752 H       1  UNL1        0.0543
     46 H           4.9330    2.7687   -1.8456 H       1  UNL1        0.0639
     47 H           7.3855    2.3132   -1.5949 H       1  UNL1        0.0618
     48 H           8.0990    0.4810   -0.1943 H       1  UNL1        0.0618
     49 H           6.4365   -0.9081    0.9629 H       1  UNL1        0.0639
     50 H           3.7124   -1.2598    1.3499 H       1  UNL1        0.1671
@<TRIPOS>BOND
     1     1     2    1
     2     2     3    1
     3     3     4    1
     4     4     5    1
     5     5     6    1
     6     6     7   am
     7     7     8    2
     8     7     9   am
     9     9    10    1
    10    10    11   ar
    11    11    12   ar
    12    12    13   ar
    13    13    14    1
    14    14    15    3
    15    13    16   ar
    16    16    17   ar
    17     5    18    1
    18    18    19    1
    19    19    20    1
    20    20    21   ar
    21    21    22   ar
    22    22    23   ar
    23    23    24   ar
    24    24    25   ar
    25    25    26   ar
    26    26    27   ar
    27    27    28   ar
    28    19     2    1
    29    28    20   ar
    30    17    10   ar
    31    27    22   ar
    32     1    29    1
    33     1    30    1
    34     1    31    1
    35     3    32    1
    36     3    33    1
    37     4    34    1
    38     4    35    1
    39     5    36    1
    40     6    37    1
    41     9    38    1
    42    11    39    1
    43    12    40    1
    44    16    41    1
    45    17    42    1
    46    18    43    1
    47    18    44    1
    48    19    45    1
    49    23    46    1
    50    24    47    1
    51    25    48    1
    52    26    49    1
    53    28    50    1
