
     RDKit          3D

 50 53  0  0  0  0  0  0  0  0999 V2000
    1.8540   -0.0635    2.9536 C   0  0  0  0  0  0  0  0  0  0  0  0
    1.0629   -0.6391    1.9511 N   0  0  0  0  0  0  0  0  0  0  0  0
    0.7232   -2.0280    2.0720 C   0  0  0  0  0  0  0  0  0  0  0  0
   -0.6325   -2.1745    1.4103 C   0  0  0  0  0  0  0  0  0  0  0  0
   -0.3856   -2.0718   -0.0679 C   0  0  1  0  0  0  0  0  0  0  0  0
   -1.6205   -2.0978   -0.8253 N   0  0  0  0  0  0  0  0  0  0  0  0
   -2.5491   -1.0044   -0.8689 C   0  0  0  0  0  0  0  0  0  0  0  0
   -2.2939    0.0148   -0.2316 O   0  0  0  0  0  0  0  0  0  0  0  0
   -3.7482   -1.0859   -1.6313 N   0  0  0  0  0  0  0  0  0  0  0  0
   -4.6216    0.0562   -1.6380 C   0  0  0  0  0  0  0  0  0  0  0  0
   -4.5281    1.0313   -2.5978 C   0  0  0  0  0  0  0  0  0  0  0  0
   -5.3504    2.1347   -2.6201 C   0  0  0  0  0  0  0  0  0  0  0  0
   -6.3260    2.3177   -1.6612 C   0  0  0  0  0  0  0  0  0  0  0  0
   -7.1818    3.4677   -1.6876 C   0  0  0  0  0  0  0  0  0  0  0  0
   -7.8841    4.4080   -1.7151 N   0  0  0  0  0  0  0  0  0  0  0  0
   -6.4281    1.3283   -0.6774 C   0  0  0  0  0  0  0  0  0  0  0  0
   -5.5923    0.2302   -0.6756 C   0  0  0  0  0  0  0  0  0  0  0  0
    0.4367   -0.8992   -0.4231 C   0  0  0  0  0  0  0  0  0  0  0  0
    1.1175   -0.1435    0.6357 C   0  0  2  0  0  0  0  0  0  0  0  0
    2.5386    0.1772    0.2900 C   0  0  0  0  0  0  0  0  0  0  0  0
    2.9662    1.1874   -0.5189 N   0  0  0  0  0  0  0  0  0  0  0  0
    4.3137    1.1817   -0.5786 C   0  0  0  0  0  0  0  0  0  0  0  0
    5.2657    1.9528   -1.2213 C   0  0  0  0  0  0  0  0  0  0  0  0
    6.6066    1.7405   -1.1148 C   0  0  0  0  0  0  0  0  0  0  0  0
    7.0453    0.6906   -0.3147 C   0  0  0  0  0  0  0  0  0  0  0  0
    6.1068   -0.0944    0.3382 C   0  0  0  0  0  0  0  0  0  0  0  0
    4.7406    0.1666    0.1933 C   0  0  0  0  0  0  0  0  0  0  0  0
    3.6534   -0.4380    0.7161 N   0  0  0  0  0  0  0  0  0  0  0  0
    2.4640    0.7728    2.5474 H   0  0  0  0  0  0  0  0  0  0  0  0
    2.5544   -0.8292    3.3731 H   0  0  0  0  0  0  0  0  0  0  0  0
    1.2051    0.3675    3.7469 H   0  0  0  0  0  0  0  0  0  0  0  0
    1.4338   -2.6417    1.4494 H   0  0  0  0  0  0  0  0  0  0  0  0
    0.7371   -2.3168    3.1202 H   0  0  0  0  0  0  0  0  0  0  0  0
   -1.2309   -1.2893    1.7837 H   0  0  0  0  0  0  0  0  0  0  0  0
   -1.1196   -3.1439    1.6597 H   0  0  0  0  0  0  0  0  0  0  0  0
    0.2066   -2.9887   -0.3602 H   0  0  0  0  0  0  0  0  0  0  0  0
   -1.8647   -2.9454   -1.3789 H   0  0  0  0  0  0  0  0  0  0  0  0
   -3.9765   -1.9602   -2.1712 H   0  0  0  0  0  0  0  0  0  0  0  0
   -3.7823    0.9457   -3.3778 H   0  0  0  0  0  0  0  0  0  0  0  0
   -5.2684    2.9119   -3.3933 H   0  0  0  0  0  0  0  0  0  0  0  0
   -7.1983    1.4872    0.0680 H   0  0  0  0  0  0  0  0  0  0  0  0
   -5.6864   -0.5414    0.1054 H   0  0  0  0  0  0  0  0  0  0  0  0
    1.2353   -1.2340   -1.1626 H   0  0  0  0  0  0  0  0  0  0  0  0
   -0.1900   -0.2173   -1.0806 H   0  0  0  0  0  0  0  0  0  0  0  0
    0.6254    0.8824    0.6752 H   0  0  0  0  0  0  0  0  0  0  0  0
    4.9330    2.7687   -1.8456 H   0  0  0  0  0  0  0  0  0  0  0  0
    7.3855    2.3132   -1.5949 H   0  0  0  0  0  0  0  0  0  0  0  0
    8.0990    0.4810   -0.1943 H   0  0  0  0  0  0  0  0  0  0  0  0
    6.4365   -0.9081    0.9629 H   0  0  0  0  0  0  0  0  0  0  0  0
    3.7124   -1.2598    1.3499 H   0  0  0  0  0  0  0  0  0  0  0  0
  1  2  1  0
  2  3  1  0
  3  4  1  0
  4  5  1  0
  5  6  1  0
  6  7  1  0
  7  8  2  0
  7  9  1  0
  9 10  1  0
 10 11  2  0
 11 12  1  0
 12 13  2  0
 13 14  1  0
 14 15  3  0
 13 16  1  0
 16 17  2  0
  5 18  1  0
 18 19  1  0
 19 20  1  0
 20 21  2  0
 21 22  1  0
 22 23  2  0
 23 24  1  0
 24 25  2  0
 25 26  1  0
 26 27  2  0
 27 28  1  0
 19  2  1  0
 28 20  1  0
 17 10  1  0
 27 22  1  0
  1 29  1  0
  1 30  1  0
  1 31  1  0
  3 32  1  0
  3 33  1  0
  4 34  1  0
  4 35  1  0
  5 36  1  6
  6 37  1  0
  9 38  1  0
 11 39  1  0
 12 40  1  0
 16 41  1  0
 17 42  1  0
 18 43  1  0
 18 44  1  0
 19 45  1  1
 23 46  1  0
 24 47  1  0
 25 48  1  0
 26 49  1  0
 28 50  1  0
M  END
$$$$
