@<TRIPOS>MOLECULE
*****
 51 54 0 0 0
SMALL
GASTEIGER

@<TRIPOS>ATOM
      1 O           3.4494   -2.1099   -2.6285 O.2     1  UNL1       -0.1498
      2 S           4.1905   -1.0573   -1.7568 S.O2    1  UNL1        0.0766
      3 O           4.7689   -0.0799   -2.8873 O.2     1  UNL1       -0.1498
      4 N           5.5365   -1.7295   -1.0488 N.pl3   1  UNL1       -0.1937
      5 C           6.6994   -1.1897   -0.4241 C.ar    1  UNL1        0.1774
      6 N           7.6509   -1.7380    0.1925 N.ar    1  UNL1       -0.2321
      7 C           8.7230   -1.0259    0.3883 C.ar    1  UNL1        0.0369
      8 C           8.9778    0.1709    0.0414 C.ar    1  UNL1       -0.0030
      9 S           7.2849    0.5162   -0.8028 S.2     1  UNL1       -0.0594
     10 C           3.0208   -0.1815   -0.9270 C.ar    1  UNL1        0.1450
     11 C           2.8068   -0.3071    0.5542 C.ar    1  UNL1       -0.0121
     12 C           1.6384    0.2394    0.7879 C.ar    1  UNL1        0.0638
     13 CL          1.7047    0.3140    2.8297 Cl      1  UNL1       -0.0816
     14 C           0.5377    0.8049    0.6617 C.ar    1  UNL1        0.0486
     15 N          -0.6579    1.4191    0.5246 N.pl3   1  UNL1       -0.3408
     16 C          -1.5613    0.9382    1.8056 C.3     1  UNL1        0.0287
     17 C          -2.1292   -0.2936    1.2760 C.3     1  UNL1        0.0487
     18 N          -2.8661   -1.2278    2.1021 N.3     1  UNL1       -0.3078
     19 C          -2.7323   -2.5147    1.3710 C.3     1  UNL1       -0.0001
     20 C          -2.3759   -2.2779   -0.0950 C.3     1  UNL1       -0.0215
     21 C          -3.2617   -1.1692   -0.5825 C.2     1  UNL1       -0.0775
     22 C          -3.1568   -0.0772    0.1580 C.2     1  UNL1       -0.0257
     23 C          -4.0869    1.0069    0.0100 C.ar    1  UNL1       -0.0204
     24 C          -5.3642    0.6868   -0.6862 C.ar    1  UNL1       -0.0516
     25 C          -6.3037    1.6201   -0.8307 C.ar    1  UNL1       -0.0259
     26 C          -6.1983    2.9013   -0.3890 C.ar    1  UNL1        0.1234
     27 F          -7.1660    3.8023   -0.5377 F       1  UNL1       -0.2055
     28 C          -4.9991    3.2622    0.2764 C.ar    1  UNL1       -0.0259
     29 C          -4.0283    2.2803    0.4196 C.ar    1  UNL1       -0.0516
     30 C           0.8410    0.9478   -1.0674 C.ar    1  UNL1       -0.0022
     31 C           1.9688    0.4437   -1.4824 C.ar    1  UNL1        0.1517
     32 F           2.1431    0.5013   -2.9329 F       1  UNL1       -0.2034
     33 H           5.5278   -2.8291   -0.9832 H       1  UNL1        0.1758
     34 H           9.5444   -1.6113    1.0075 H       1  UNL1        0.0835
     35 H           9.6697    1.0585    0.0013 H       1  UNL1        0.0710
     36 H           3.5749   -0.7808    1.0654 H       1  UNL1        0.0653
     37 H          -1.1840    1.9756   -0.0424 H       1  UNL1        0.1462
     38 H          -2.0868    1.7670    2.1395 H       1  UNL1        0.0480
     39 H          -0.7459    0.7009    2.5162 H       1  UNL1        0.0480
     40 H          -1.2566   -0.8518    0.8265 H       1  UNL1        0.0526
     41 H          -3.8427   -0.9407    2.1745 H       1  UNL1        0.1226
     42 H          -3.7403   -2.9717    1.4274 H       1  UNL1        0.0427
     43 H          -1.9487   -3.0732    1.9248 H       1  UNL1        0.0427
     44 H          -2.7848   -3.2010   -0.6260 H       1  UNL1        0.0320
     45 H          -1.3468   -2.2303   -0.3379 H       1  UNL1        0.0320
     46 H          -3.8666   -1.2355   -1.4335 H       1  UNL1        0.0576
     47 H          -5.4186   -0.3425   -0.9966 H       1  UNL1        0.0624
     48 H          -7.2375    1.3178   -1.3950 H       1  UNL1        0.0646
     49 H          -4.8847    4.2514    0.6838 H       1  UNL1        0.0646
     50 H          -3.1216    2.6747    0.8552 H       1  UNL1        0.0624
     51 H           0.0941    1.4453   -1.5055 H       1  UNL1        0.0666
@<TRIPOS>BOND
     1     1     2    2
     2     2     3    2
     3     2     4    1
     4     4     5    1
     5     5     6   ar
     6     6     7   ar
     7     7     8   ar
     8     8     9   ar
     9     2    10    1
    10    10    11   ar
    11    11    12   ar
    12    12    13    1
    13    12    14   ar
    14    14    15    1
    15    15    16    1
    16    16    17    1
    17    17    18    1
    18    18    19    1
    19    19    20    1
    20    20    21    1
    21    21    22    2
    22    22    23    1
    23    23    24   ar
    24    24    25   ar
    25    25    26   ar
    26    26    27    1
    27    26    28   ar
    28    28    29   ar
    29    14    30   ar
    30    30    31   ar
    31    31    32    1
    32     9     5   ar
    33    31    10   ar
    34    22    17    1
    35    29    23   ar
    36     4    33    1
    37     7    34    1
    38     8    35    1
    39    11    36    1
    40    15    37    1
    41    16    38    1
    42    16    39    1
    43    17    40    1
    44    18    41    1
    45    19    42    1
    46    19    43    1
    47    20    44    1
    48    20    45    1
    49    21    46    1
    50    24    47    1
    51    25    48    1
    52    28    49    1
    53    29    50    1
    54    30    51    1
