
     RDKit          3D

 16 15  0  0  0  0  0  0  0  0999 V2000
   -0.3871    1.0931   -1.4910 O   0  0  0  0  0  0  0  0  0  0  0  0
   -0.7366    0.0654   -0.6506 C   0  0  1  0  0  0  0  0  0  0  0  0
    0.4387   -0.7747   -0.2180 C   0  0  1  0  0  0  0  0  0  0  0  0
    1.0485   -1.3372   -1.3286 O   0  0  0  0  0  0  0  0  0  0  0  0
    1.3956   -0.0237    0.6253 C   0  0  0  0  0  0  0  0  0  0  0  0
    2.7491    0.0903    0.3170 O   0  0  0  0  0  0  0  0  0  0  0  0
    1.1357    0.5921    1.6937 O   0  0  0  0  0  0  0  0  0  0  0  0
   -1.4054    0.6293    0.5593 C   0  0  0  0  0  0  0  0  0  0  0  0
   -1.8755   -0.1630    1.5968 O   0  0  0  0  0  0  0  0  0  0  0  0
   -1.4944    1.8900    0.5338 O   0  0  0  0  0  0  0  0  0  0  0  0
   -1.1378    1.2613   -2.1058 H   0  0  0  0  0  0  0  0  0  0  0  0
   -1.4278   -0.6081   -1.1894 H   0  0  0  0  0  0  0  0  0  0  0  0
    0.0280   -1.6108    0.3951 H   0  0  0  0  0  0  0  0  0  0  0  0
    0.9803   -2.3177   -1.3376 H   0  0  0  0  0  0  0  0  0  0  0  0
    3.2656    0.9571    0.3741 H   0  0  0  0  0  0  0  0  0  0  0  0
   -2.5769    0.2567    2.2259 H   0  0  0  0  0  0  0  0  0  0  0  0
  1  2  1  0
  2  3  1  0
  3  4  1  0
  3  5  1  0
  5  6  1  0
  5  7  2  0
  2  8  1  0
  8  9  1  0
  8 10  2  0
  1 11  1  0
  2 12  1  6
  3 13  1  1
  4 14  1  0
  6 15  1  0
  9 16  1  0
M  END
$$$$
