@<TRIPOS>MOLECULE
*****
 16 15 0 0 0
SMALL
GASTEIGER

@<TRIPOS>ATOM
      1 O          -0.3871    1.0931   -1.4910 O.3     1  UNL1       -0.3780
      2 C          -0.7366    0.0654   -0.6506 C.3     1  UNL1        0.1878
      3 C           0.4387   -0.7747   -0.2180 C.3     1  UNL1        0.1878
      4 O           1.0485   -1.3372   -1.3286 O.3     1  UNL1       -0.3780
      5 C           1.3956   -0.0237    0.6253 C.2     1  UNL1        0.3368
      6 O           2.7491    0.0903    0.3170 O.3     1  UNL1       -0.4788
      7 O           1.1357    0.5921    1.6937 O.2     1  UNL1       -0.2480
      8 C          -1.4054    0.6293    0.5593 C.2     1  UNL1        0.3368
      9 O          -1.8755   -0.1630    1.5968 O.3     1  UNL1       -0.4788
     10 O          -1.4944    1.8900    0.5338 O.2     1  UNL1       -0.2480
     11 H          -1.1378    1.2613   -2.1058 H       1  UNL1        0.2106
     12 H          -1.4278   -0.6081   -1.1894 H       1  UNL1        0.0743
     13 H           0.0280   -1.6108    0.3951 H       1  UNL1        0.0743
     14 H           0.9803   -2.3177   -1.3376 H       1  UNL1        0.2106
     15 H           3.2656    0.9571    0.3741 H       1  UNL1        0.2951
     16 H          -2.5769    0.2567    2.2259 H       1  UNL1        0.2951
@<TRIPOS>BOND
     1     1     2    1
     2     2     3    1
     3     3     4    1
     4     3     5    1
     5     5     6    1
     6     5     7    2
     7     2     8    1
     8     8     9    1
     9     8    10    2
    10     1    11    1
    11     2    12    1
    12     3    13    1
    13     4    14    1
    14     6    15    1
    15     9    16    1
