@<TRIPOS>MOLECULE
*****
 33 34 0 0 0
SMALL
GASTEIGER

@<TRIPOS>ATOM
      1 C          -6.3838    0.2036    0.0007 C.3     1  UNL1       -0.0645
      2 C          -5.4483   -0.1851    1.1270 C.3     1  UNL1       -0.0465
      3 C          -4.0125    0.1832    0.8135 C.3     1  UNL1       -0.0019
      4 S          -3.4274   -0.6420   -0.6747 S.3     1  UNL1       -0.1251
      5 C          -1.7343   -0.1549   -0.9709 C.ar    1  UNL1        0.0100
      6 C          -0.7484   -0.9526   -0.3807 C.ar    1  UNL1       -0.0228
      7 C           0.5788   -0.6101   -0.5853 C.ar    1  UNL1        0.0685
      8 C           0.9090    0.4943   -1.3550 C.ar    1  UNL1        0.0908
      9 C          -0.0785    1.2775   -1.9349 C.ar    1  UNL1       -0.0331
     10 C          -1.4249    0.9489   -1.7408 C.ar    1  UNL1       -0.0462
     11 N           2.2683    0.5535   -1.3587 N.ar    1  UNL1       -0.2142
     12 C           2.7737   -0.4730   -0.6207 C.ar    1  UNL1        0.2029
     13 N           4.1859   -0.5893   -0.4993 N.am    1  UNL1       -0.2212
     14 C           5.0075   -0.0082    0.4963 C.2     1  UNL1        0.4065
     15 O           4.3788    0.6698    1.3353 O.2     1  UNL1       -0.2260
     16 O           6.3398   -0.3312    0.3067 O.3     1  UNL1       -0.4534
     17 C           7.3647    0.1390    1.1856 C.3     1  UNL1        0.0833
     18 N           1.7398   -1.1630   -0.1629 N.ar    1  UNL1       -0.3257
     19 H          -7.0398   -0.6790   -0.2444 H       1  UNL1        0.0230
     20 H          -7.0738    1.0251    0.2790 H       1  UNL1        0.0230
     21 H          -5.8240    0.5070   -0.9127 H       1  UNL1        0.0230
     22 H          -5.5109   -1.2585    1.3081 H       1  UNL1        0.0271
     23 H          -5.7095    0.4041    2.0422 H       1  UNL1        0.0271
     24 H          -3.4086   -0.1058    1.6941 H       1  UNL1        0.0380
     25 H          -3.9155    1.2773    0.6611 H       1  UNL1        0.0380
     26 H          -0.9901   -1.8192    0.2237 H       1  UNL1        0.0650
     27 H           0.1793    2.1339   -2.5318 H       1  UNL1        0.0640
     28 H          -2.2208    1.5458   -2.1840 H       1  UNL1        0.0629
     29 H           4.4764   -1.1985   -1.3090 H       1  UNL1        0.1610
     30 H           8.0368    0.7639    0.5488 H       1  UNL1        0.0661
     31 H           6.9174    0.7328    2.0091 H       1  UNL1        0.0661
     32 H           7.9299   -0.6902    1.6368 H       1  UNL1        0.0661
     33 H           1.8651   -1.9991    0.4303 H       1  UNL1        0.1686
@<TRIPOS>BOND
     1     1     2    1
     2     2     3    1
     3     3     4    1
     4     4     5    1
     5     5     6   ar
     6     6     7   ar
     7     7     8   ar
     8     8     9   ar
     9     9    10   ar
    10     8    11   ar
    11    11    12   ar
    12    12    13    1
    13    13    14   am
    14    14    15    2
    15    14    16    1
    16    16    17    1
    17    12    18   ar
    18    10     5   ar
    19    18     7   ar
    20     1    19    1
    21     1    20    1
    22     1    21    1
    23     2    22    1
    24     2    23    1
    25     3    24    1
    26     3    25    1
    27     6    26    1
    28     9    27    1
    29    10    28    1
    30    13    29    1
    31    17    30    1
    32    17    31    1
    33    17    32    1
    34    18    33    1
