@<TRIPOS>MOLECULE
*****
 45 46 0 0 0
SMALL
GASTEIGER

@<TRIPOS>ATOM
      1 C           5.2399    0.0779   -1.0277 C.3     1  UNL1       -0.0652
      2 C           4.9067    0.3312    0.4013 C.3     1  UNL1       -0.0545
      3 C           3.4500    0.1545    0.7540 C.3     1  UNL1       -0.0377
      4 C           2.5365    1.0528    0.0019 C.3     1  UNL1        0.0092
      5 N           1.1672    0.8117    0.3912 N.pl3   1  UNL1       -0.3409
      6 C           0.3366   -0.2981    0.1308 C.ar    1  UNL1        0.0728
      7 C          -0.9764   -0.3707    0.6091 C.ar    1  UNL1        0.1754
      8 O          -1.4291    0.6904    1.3726 O.3     1  UNL1       -0.4522
      9 C          -2.0277    1.8038    0.7996 C.ar    1  UNL1        0.1286
     10 C          -2.4005    2.7051    1.8037 C.ar    1  UNL1       -0.0193
     11 C          -3.0245    3.9094    1.4886 C.ar    1  UNL1       -0.0583
     12 C          -3.2782    4.2173    0.1694 C.ar    1  UNL1       -0.0615
     13 C          -2.9079    3.3264   -0.7982 C.ar    1  UNL1       -0.0583
     14 C          -2.2950    2.1388   -0.5191 C.ar    1  UNL1       -0.0193
     15 C          -1.7671   -1.4512    0.3263 C.ar    1  UNL1        0.1496
     16 C          -1.3330   -2.5107   -0.4288 C.ar    1  UNL1       -0.0176
     17 C          -0.0526   -2.4851   -0.9206 C.ar    1  UNL1        0.0627
     18 C           0.7285   -1.3916   -0.6269 C.ar    1  UNL1       -0.0232
     19 C           0.4354   -3.5980   -1.7264 C.2     1  UNL1        0.3369
     20 O          -0.3837   -4.6762   -1.9967 O.3     1  UNL1       -0.4771
     21 O           1.6174   -3.6122   -2.2013 O.2     1  UNL1       -0.2451
     22 S          -3.3964   -1.4799    0.9601 S.O2    1  UNL1        0.0595
     23 N          -4.1994   -2.9444    0.4781 N.3     1  UNL1       -0.2034
     24 O          -4.1698   -0.3643    0.3184 O.2     1  UNL1       -0.1531
     25 O          -3.3457   -1.3770    2.4508 O.2     1  UNL1       -0.1531
     26 H           4.3626   -0.0322   -1.6876 H       1  UNL1        0.0230
     27 H           5.8121   -0.8818   -1.1302 H       1  UNL1        0.0230
     28 H           5.9104    0.8441   -1.4907 H       1  UNL1        0.0230
     29 H           5.4788   -0.3905    1.0451 H       1  UNL1        0.0263
     30 H           5.2731    1.3390    0.6803 H       1  UNL1        0.0263
     31 H           3.3826    0.4905    1.8384 H       1  UNL1        0.0280
     32 H           3.1055   -0.8844    0.7185 H       1  UNL1        0.0280
     33 H           2.5590    0.8743   -1.1048 H       1  UNL1        0.0461
     34 H           2.8232    2.0890    0.2329 H       1  UNL1        0.0461
     35 H           0.7091    1.5850    0.9623 H       1  UNL1        0.1462
     36 H          -2.2662    2.5984    2.8714 H       1  UNL1        0.0654
     37 H          -3.3353    4.6436    2.2114 H       1  UNL1        0.0619
     38 H          -3.7600    5.1272   -0.2043 H       1  UNL1        0.0618
     39 H          -3.0550    3.4565   -1.8798 H       1  UNL1        0.0619
     40 H          -1.9542    1.3540   -1.1803 H       1  UNL1        0.0654
     41 H          -2.0059   -3.3351   -0.6170 H       1  UNL1        0.0646
     42 H           1.7162   -1.4384   -1.0582 H       1  UNL1        0.0645
     43 H          -0.2706   -5.2772   -2.8190 H       1  UNL1        0.2954
     44 H          -3.8128   -3.7889    0.9547 H       1  UNL1        0.1442
     45 H          -4.1038   -3.0332   -0.5532 H       1  UNL1        0.1442
@<TRIPOS>BOND
     1     1     2    1
     2     2     3    1
     3     3     4    1
     4     4     5    1
     5     5     6    1
     6     6     7   ar
     7     7     8    1
     8     8     9    1
     9     9    10   ar
    10    10    11   ar
    11    11    12   ar
    12    12    13   ar
    13    13    14   ar
    14     7    15   ar
    15    15    16   ar
    16    16    17   ar
    17    17    18   ar
    18    17    19    1
    19    19    20    1
    20    19    21    2
    21    15    22    1
    22    22    23    1
    23    22    24    2
    24    22    25    2
    25    18     6   ar
    26    14     9   ar
    27     1    26    1
    28     1    27    1
    29     1    28    1
    30     2    29    1
    31     2    30    1
    32     3    31    1
    33     3    32    1
    34     4    33    1
    35     4    34    1
    36     5    35    1
    37    10    36    1
    38    11    37    1
    39    12    38    1
    40    13    39    1
    41    14    40    1
    42    16    41    1
    43    18    42    1
    44    20    43    1
    45    23    44    1
    46    23    45    1
