
     RDKit          3D

 61 65  0  0  0  0  0  0  0  0999 V2000
    7.2534   -1.4167    1.7126 O   0  0  0  0  0  0  0  0  0  0  0  0
    6.4609   -2.0367    0.9592 C   0  0  0  0  0  0  0  0  0  0  0  0
    6.8731   -3.2656    0.4640 O   0  0  0  0  0  0  0  0  0  0  0  0
    5.1655   -1.4685    0.6319 C   0  0  0  0  0  0  0  0  0  0  0  0
    4.3181   -2.1692   -0.1952 C   0  0  0  0  0  0  0  0  0  0  0  0
    3.0657   -1.6578   -0.5332 C   0  0  0  0  0  0  0  0  0  0  0  0
    2.6949   -0.4487   -0.0282 C   0  0  0  0  0  0  0  0  0  0  0  0
    1.3926    0.0725   -0.3787 N   0  0  0  0  0  0  0  0  0  0  0  0
    0.2415   -0.1408    0.3736 C   0  0  0  0  0  0  0  0  0  0  0  0
    0.2675   -0.8020    1.4014 O   0  0  0  0  0  0  0  0  0  0  0  0
   -1.0713    0.4609   -0.0897 C   0  0  2  0  0  0  0  0  0  0  0  0
   -0.8946    1.8908   -0.0919 C   0  0  0  0  0  0  0  0  0  0  0  0
   -0.4969    2.6434    1.1194 C   0  0  0  0  0  0  0  0  0  0  0  0
    0.3333    3.8539    0.5986 C   0  0  0  0  0  0  0  0  0  0  0  0
   -0.5766    4.6925   -0.2889 C   0  0  0  0  0  0  0  0  0  0  0  0
   -1.1037    3.9143   -1.4747 C   0  0  0  0  0  0  0  0  0  0  0  0
   -1.8957    2.7321   -0.8800 C   0  0  0  0  0  0  0  0  0  0  0  0
   -2.1208   -0.3353    0.3725 N   0  0  0  0  0  0  0  0  0  0  0  0
   -2.1833   -1.6892    0.0496 C   0  0  0  0  0  0  0  0  0  0  0  0
   -1.2542   -2.4600   -0.7925 C   0  0  0  0  0  0  0  0  0  0  0  0
   -1.1341   -2.2965   -2.1530 C   0  0  0  0  0  0  0  0  0  0  0  0
   -0.2794   -3.0525   -2.9256 C   0  0  0  0  0  0  0  0  0  0  0  0
    0.5028   -4.0235   -2.3416 C   0  0  0  0  0  0  0  0  0  0  0  0
    1.5904   -4.9936   -3.2910 Cl  0  0  0  0  0  0  0  0  0  0  0  0
    0.4019   -4.2109   -0.9685 C   0  0  0  0  0  0  0  0  0  0  0  0
   -0.4587   -3.4419   -0.2230 C   0  0  0  0  0  0  0  0  0  0  0  0
   -3.2700   -2.1875    0.6278 N   0  0  0  0  0  0  0  0  0  0  0  0
   -3.8889   -1.2053    1.2953 C   0  0  0  0  0  0  0  0  0  0  0  0
   -5.0661   -1.2797    2.0381 C   0  0  0  0  0  0  0  0  0  0  0  0
   -5.5232   -0.1302    2.6355 C   0  0  0  0  0  0  0  0  0  0  0  0
   -6.6643   -0.1922    3.3586 F   0  0  0  0  0  0  0  0  0  0  0  0
   -4.8349    1.0517    2.4995 C   0  0  0  0  0  0  0  0  0  0  0  0
   -5.2688    2.1891    3.0782 F   0  0  0  0  0  0  0  0  0  0  0  0
   -3.6750    1.1047    1.7625 C   0  0  0  0  0  0  0  0  0  0  0  0
   -3.1886   -0.0293    1.1514 C   0  0  0  0  0  0  0  0  0  0  0  0
    3.5411    0.2609    0.8033 C   0  0  0  0  0  0  0  0  0  0  0  0
    3.1153    1.7991    1.4639 Cl  0  0  0  0  0  0  0  0  0  0  0  0
    4.7915   -0.2507    1.1400 C   0  0  0  0  0  0  0  0  0  0  0  0
    7.8753   -3.3816    0.3331 H   0  0  0  0  0  0  0  0  0  0  0  0
    4.5667   -3.1337   -0.6217 H   0  0  0  0  0  0  0  0  0  0  0  0
    2.4187   -2.1957   -1.1733 H   0  0  0  0  0  0  0  0  0  0  0  0
    1.3932    0.6324   -1.2687 H   0  0  0  0  0  0  0  0  0  0  0  0
   -1.0316    0.1897   -1.2550 H   0  0  0  0  0  0  0  0  0  0  0  0
    0.0539    2.0447   -0.7863 H   0  0  0  0  0  0  0  0  0  0  0  0
   -1.2696    3.1354    1.7132 H   0  0  0  0  0  0  0  0  0  0  0  0
    0.1674    2.0806    1.8073 H   0  0  0  0  0  0  0  0  0  0  0  0
    1.1619    3.4981   -0.0445 H   0  0  0  0  0  0  0  0  0  0  0  0
    0.6862    4.4791    1.4113 H   0  0  0  0  0  0  0  0  0  0  0  0
   -1.4635    5.0497    0.2738 H   0  0  0  0  0  0  0  0  0  0  0  0
   -0.0055    5.5788   -0.5968 H   0  0  0  0  0  0  0  0  0  0  0  0
   -1.7439    4.5652   -2.0629 H   0  0  0  0  0  0  0  0  0  0  0  0
   -0.2515    3.4921   -2.0771 H   0  0  0  0  0  0  0  0  0  0  0  0
   -2.3396    2.1401   -1.6928 H   0  0  0  0  0  0  0  0  0  0  0  0
   -2.6375    3.2476   -0.2451 H   0  0  0  0  0  0  0  0  0  0  0  0
   -1.7435   -1.5515   -2.6342 H   0  0  0  0  0  0  0  0  0  0  0  0
   -0.2492   -2.8572   -3.9802 H   0  0  0  0  0  0  0  0  0  0  0  0
    1.0337   -4.9864   -0.5384 H   0  0  0  0  0  0  0  0  0  0  0  0
   -0.5258   -3.5983    0.8407 H   0  0  0  0  0  0  0  0  0  0  0  0
   -5.5826   -2.2335    2.1223 H   0  0  0  0  0  0  0  0  0  0  0  0
   -3.1297    2.0183    1.6343 H   0  0  0  0  0  0  0  0  0  0  0  0
    5.4562    0.3045    1.7920 H   0  0  0  0  0  0  0  0  0  0  0  0
  1  2  2  0
  2  3  1  0
  2  4  1  0
  4  5  2  0
  5  6  1  0
  6  7  2  0
  7  8  1  0
  8  9  1  0
  9 10  2  0
  9 11  1  0
 11 12  1  0
 12 13  1  0
 13 14  1  0
 14 15  1  0
 15 16  1  0
 16 17  1  0
 11 18  1  0
 18 19  1  0
 19 20  1  0
 20 21  2  0
 21 22  1  0
 22 23  2  0
 23 24  1  0
 23 25  1  0
 25 26  2  0
 19 27  2  0
 27 28  1  0
 28 29  2  0
 29 30  1  0
 30 31  1  0
 30 32  2  0
 32 33  1  0
 32 34  1  0
 34 35  2  0
  7 36  1  0
 36 37  1  0
 36 38  2  0
 38  4  1  0
 17 12  1  0
 35 18  1  0
 26 20  1  0
 35 28  1  0
  3 39  1  0
  5 40  1  0
  6 41  1  0
  8 42  1  0
 11 43  1  6
 12 44  1  0
 13 45  1  0
 13 46  1  0
 14 47  1  0
 14 48  1  0
 15 49  1  0
 15 50  1  0
 16 51  1  0
 16 52  1  0
 17 53  1  0
 17 54  1  0
 21 55  1  0
 22 56  1  0
 25 57  1  0
 26 58  1  0
 29 59  1  0
 34 60  1  0
 38 61  1  0
M  END
$$$$
