@<TRIPOS>MOLECULE
*****
 61 65 0 0 0
SMALL
GASTEIGER

@<TRIPOS>ATOM
      1 O           7.2534   -1.4167    1.7126 O.2     1  UNL1       -0.2451
      2 C           6.4609   -2.0367    0.9592 C.2     1  UNL1        0.3368
      3 O           6.8731   -3.2656    0.4640 O.3     1  UNL1       -0.4771
      4 C           5.1655   -1.4685    0.6319 C.ar    1  UNL1        0.0603
      5 C           4.3181   -2.1692   -0.1952 C.ar    1  UNL1       -0.0459
      6 C           3.0657   -1.6578   -0.5332 C.ar    1  UNL1       -0.0383
      7 C           2.6949   -0.4487   -0.0282 C.ar    1  UNL1        0.0520
      8 N           1.3926    0.0725   -0.3787 N.am    1  UNL1       -0.2826
      9 C           0.2415   -0.1408    0.3736 C.2     1  UNL1        0.2405
     10 O           0.2675   -0.8020    1.4014 O.2     1  UNL1       -0.2732
     11 C          -1.0713    0.4609   -0.0897 C.3     1  UNL1        0.1154
     12 C          -0.8946    1.8908   -0.0919 C.3     1  UNL1       -0.0116
     13 C          -0.4969    2.6434    1.1194 C.3     1  UNL1       -0.0479
     14 C           0.3333    3.8539    0.5986 C.3     1  UNL1       -0.0527
     15 C          -0.5766    4.6925   -0.2889 C.3     1  UNL1       -0.0530
     16 C          -1.1037    3.9143   -1.4747 C.3     1  UNL1       -0.0527
     17 C          -1.8957    2.7321   -0.8800 C.3     1  UNL1       -0.0479
     18 N          -2.1208   -0.3353    0.3725 N.ar    1  UNL1       -0.3112
     19 C          -2.1833   -1.6892    0.0496 C.ar    1  UNL1        0.1425
     20 C          -1.2542   -2.4600   -0.7925 C.ar    1  UNL1        0.0176
     21 C          -1.1341   -2.2965   -2.1530 C.ar    1  UNL1       -0.0497
     22 C          -0.2794   -3.0525   -2.9256 C.ar    1  UNL1       -0.0427
     23 C           0.5028   -4.0235   -2.3416 C.ar    1  UNL1        0.0410
     24 CL          1.5904   -4.9936   -3.2910 Cl      1  UNL1       -0.0835
     25 C           0.4019   -4.2109   -0.9685 C.ar    1  UNL1       -0.0427
     26 C          -0.4587   -3.4419   -0.2230 C.ar    1  UNL1       -0.0497
     27 N          -3.2700   -2.1875    0.6278 N.ar    1  UNL1       -0.2274
     28 C          -3.8889   -1.2053    1.2953 C.ar    1  UNL1        0.0926
     29 C          -5.0661   -1.2797    2.0381 C.ar    1  UNL1        0.0039
     30 C          -5.5232   -0.1302    2.6355 C.ar    1  UNL1        0.1605
     31 F          -6.6643   -0.1922    3.3586 F       1  UNL1       -0.2024
     32 C          -4.8349    1.0517    2.4995 C.ar    1  UNL1        0.1605
     33 F          -5.2688    2.1891    3.0782 F       1  UNL1       -0.2024
     34 C          -3.6750    1.1047    1.7625 C.ar    1  UNL1        0.0021
     35 C          -3.1886   -0.0293    1.1514 C.ar    1  UNL1        0.0727
     36 C           3.5411    0.2609    0.8033 C.ar    1  UNL1        0.0629
     37 CL          3.1153    1.7991    1.4639 Cl      1  UNL1       -0.0816
     38 C           4.7915   -0.2507    1.1400 C.ar    1  UNL1       -0.0276
     39 H           7.8753   -3.3816    0.3331 H       1  UNL1        0.2954
     40 H           4.5667   -3.1337   -0.6217 H       1  UNL1        0.0626
     41 H           2.4187   -2.1957   -1.1733 H       1  UNL1        0.0637
     42 H           1.3932    0.6324   -1.2687 H       1  UNL1        0.1549
     43 H          -1.0316    0.1897   -1.2550 H       1  UNL1        0.0627
     44 H           0.0539    2.0447   -0.7863 H       1  UNL1        0.0325
     45 H          -1.2696    3.1354    1.7132 H       1  UNL1        0.0269
     46 H           0.1674    2.0806    1.8073 H       1  UNL1        0.0269
     47 H           1.1619    3.4981   -0.0445 H       1  UNL1        0.0265
     48 H           0.6862    4.4791    1.4113 H       1  UNL1        0.0265
     49 H          -1.4635    5.0497    0.2738 H       1  UNL1        0.0265
     50 H          -0.0055    5.5788   -0.5968 H       1  UNL1        0.0265
     51 H          -1.7439    4.5652   -2.0629 H       1  UNL1        0.0265
     52 H          -0.2515    3.4921   -2.0771 H       1  UNL1        0.0265
     53 H          -2.3396    2.1401   -1.6928 H       1  UNL1        0.0269
     54 H          -2.6375    3.2476   -0.2451 H       1  UNL1        0.0269
     55 H          -1.7435   -1.5515   -2.6342 H       1  UNL1        0.0625
     56 H          -0.2492   -2.8572   -3.9802 H       1  UNL1        0.0632
     57 H           1.0337   -4.9864   -0.5384 H       1  UNL1        0.0632
     58 H          -0.5258   -3.5983    0.8407 H       1  UNL1        0.0625
     59 H          -5.5826   -2.2335    2.1223 H       1  UNL1        0.0669
     60 H          -3.1297    2.0183    1.6343 H       1  UNL1        0.0668
     61 H           5.4562    0.3045    1.7920 H       1  UNL1        0.0641
@<TRIPOS>BOND
     1     1     2    2
     2     2     3    1
     3     2     4    1
     4     4     5   ar
     5     5     6   ar
     6     6     7   ar
     7     7     8    1
     8     8     9   am
     9     9    10    2
    10     9    11    1
    11    11    12    1
    12    12    13    1
    13    13    14    1
    14    14    15    1
    15    15    16    1
    16    16    17    1
    17    11    18    1
    18    18    19   ar
    19    19    20    1
    20    20    21   ar
    21    21    22   ar
    22    22    23   ar
    23    23    24    1
    24    23    25   ar
    25    25    26   ar
    26    19    27   ar
    27    27    28   ar
    28    28    29   ar
    29    29    30   ar
    30    30    31    1
    31    30    32   ar
    32    32    33    1
    33    32    34   ar
    34    34    35   ar
    35     7    36   ar
    36    36    37    1
    37    36    38   ar
    38    38     4   ar
    39    17    12    1
    40    35    18   ar
    41    26    20   ar
    42    35    28   ar
    43     3    39    1
    44     5    40    1
    45     6    41    1
    46     8    42    1
    47    11    43    1
    48    12    44    1
    49    13    45    1
    50    13    46    1
    51    14    47    1
    52    14    48    1
    53    15    49    1
    54    15    50    1
    55    16    51    1
    56    16    52    1
    57    17    53    1
    58    17    54    1
    59    21    55    1
    60    22    56    1
    61    25    57    1
    62    26    58    1
    63    29    59    1
    64    34    60    1
    65    38    61    1
