
     RDKit          3D

 96101  0  0  0  0  0  0  0  0999 V2000
    3.9295   -4.9169   -1.2851 C   0  0  0  0  0  0  0  0  0  0  0  0
    3.9661   -3.6096   -0.7701 O   0  0  0  0  0  0  0  0  0  0  0  0
    5.1291   -2.8720   -0.8637 C   0  0  0  0  0  0  0  0  0  0  0  0
    6.2499   -3.4273   -1.4635 C   0  0  0  0  0  0  0  0  0  0  0  0
    7.4074   -2.6870   -1.5540 C   0  0  0  0  0  0  0  0  0  0  0  0
    7.4572   -1.4274   -1.0639 C   0  0  0  0  0  0  0  0  0  0  0  0
    8.6449   -0.5644   -1.1177 C   0  0  0  0  0  0  0  0  0  0  0  0
    8.5311    0.6484   -0.8135 O   0  0  0  0  0  0  0  0  0  0  0  0
    9.8967   -1.0749   -1.5026 N   0  0  0  0  0  0  0  0  0  0  0  0
   11.1190   -0.3538   -1.5708 C   0  0  0  0  0  0  0  0  0  0  0  0
   11.8247    0.1153   -0.3858 C   0  0  0  0  0  0  0  0  0  0  0  0
   11.2566    0.9301    0.6052 N   0  0  0  0  0  0  0  0  0  0  0  0
   10.3555    0.3349    1.5345 C   0  0  0  0  0  0  0  0  0  0  0  0
   12.2221    1.7478    1.2907 C   0  0  0  0  0  0  0  0  0  0  0  0
    6.2950   -0.8912   -0.4574 C   0  0  0  0  0  0  0  0  0  0  0  0
    5.1347   -1.5890   -0.3484 C   0  0  0  0  0  0  0  0  0  0  0  0
    3.9679   -1.0759    0.2119 N   0  0  0  0  0  0  0  0  0  0  0  0
    3.8631    0.1390    0.9335 C   0  0  0  0  0  0  0  0  0  0  0  0
    4.8806    0.8949    1.3208 N   0  0  0  0  0  0  0  0  0  0  0  0
    4.7694    2.0428    2.0072 C   0  0  0  0  0  0  0  0  0  0  0  0
    3.5200    2.4897    2.3456 C   0  0  0  0  0  0  0  0  0  0  0  0
    2.4152    1.7352    1.9629 C   0  0  0  0  0  0  0  0  0  0  0  0
    1.1318    2.1434    2.2770 O   0  0  0  0  0  0  0  0  0  0  0  0
   -0.0465    1.5422    1.9181 C   0  0  0  0  0  0  0  0  0  0  0  0
   -0.9016    1.0054    2.8817 C   0  0  0  0  0  0  0  0  0  0  0  0
   -2.0914    0.3982    2.5622 C   0  0  0  0  0  0  0  0  0  0  0  0
   -2.4703    0.3074    1.2462 C   0  0  0  0  0  0  0  0  0  0  0  0
   -3.6971   -0.2940    0.8435 N   0  0  0  0  0  0  0  0  0  0  0  0
   -4.8865    0.5259    0.7657 C   0  0  0  0  0  0  0  0  0  0  0  0
   -4.7236    1.7279    1.0802 O   0  0  0  0  0  0  0  0  0  0  0  0
   -6.1362   -0.0062    0.3615 N   0  0  0  0  0  0  0  0  0  0  0  0
   -7.3003    0.7984    0.2914 C   0  0  0  0  0  0  0  0  0  0  0  0
   -7.4296    2.1285    0.6235 C   0  0  0  0  0  0  0  0  0  0  0  0
   -8.7432    2.4614    0.3746 C   0  0  0  0  0  0  0  0  0  0  0  0
   -9.4150    3.7928    0.5706 C   0  0  0  0  0  0  0  0  0  0  0  0
  -10.6504    3.6743    1.4108 C   0  0  0  0  0  0  0  0  0  0  0  0
   -9.8030    4.3784   -0.7721 C   0  0  0  0  0  0  0  0  0  0  0  0
   -9.3274    1.3701   -0.0775 N   0  0  0  0  0  0  0  0  0  0  0  0
   -8.4869    0.3268   -0.1459 N   0  0  0  0  0  0  0  0  0  0  0  0
   -8.8365   -0.9870   -0.6042 C   0  0  0  0  0  0  0  0  0  0  0  0
   -9.2018   -1.2119   -1.9133 C   0  0  0  0  0  0  0  0  0  0  0  0
   -9.5380   -2.4789   -2.3296 C   0  0  0  0  0  0  0  0  0  0  0  0
   -9.5287   -3.5753   -1.4760 C   0  0  0  0  0  0  0  0  0  0  0  0
   -9.9022   -4.9387   -1.9764 C   0  0  0  0  0  0  0  0  0  0  0  0
   -9.1632   -3.3481   -0.1678 C   0  0  0  0  0  0  0  0  0  0  0  0
   -8.8225   -2.0620    0.2525 C   0  0  0  0  0  0  0  0  0  0  0  0
   -1.6324    0.8352    0.2800 C   0  0  0  0  0  0  0  0  0  0  0  0
   -2.0315    0.7425   -1.0268 C   0  0  0  0  0  0  0  0  0  0  0  0
   -1.2146    1.2730   -2.0178 C   0  0  0  0  0  0  0  0  0  0  0  0
   -0.0174    1.8888   -1.7268 C   0  0  0  0  0  0  0  0  0  0  0  0
    0.3790    1.9790   -0.4132 C   0  0  0  0  0  0  0  0  0  0  0  0
   -0.4153    1.4589    0.5772 C   0  0  0  0  0  0  0  0  0  0  0  0
    2.6218    0.6054    1.2819 N   0  0  0  0  0  0  0  0  0  0  0  0
    4.3543   -4.9350   -2.3084 H   0  0  0  0  0  0  0  0  0  0  0  0
    2.9035   -5.3380   -1.3585 H   0  0  0  0  0  0  0  0  0  0  0  0
    4.5651   -5.6140   -0.6713 H   0  0  0  0  0  0  0  0  0  0  0  0
    6.2666   -4.4227   -1.8700 H   0  0  0  0  0  0  0  0  0  0  0  0
    8.2943   -3.1329   -2.0371 H   0  0  0  0  0  0  0  0  0  0  0  0
    9.8931   -2.1111   -1.7565 H   0  0  0  0  0  0  0  0  0  0  0  0
   11.8339   -1.0138   -2.1641 H   0  0  0  0  0  0  0  0  0  0  0  0
   10.9519    0.5595   -2.2374 H   0  0  0  0  0  0  0  0  0  0  0  0
   12.3514   -0.7843    0.1508 H   0  0  0  0  0  0  0  0  0  0  0  0
   12.7433    0.7066   -0.7853 H   0  0  0  0  0  0  0  0  0  0  0  0
    9.4518    0.9806    1.7037 H   0  0  0  0  0  0  0  0  0  0  0  0
   10.8417    0.3227    2.5670 H   0  0  0  0  0  0  0  0  0  0  0  0
   10.1185   -0.7184    1.3440 H   0  0  0  0  0  0  0  0  0  0  0  0
   11.8644    2.7904    1.2950 H   0  0  0  0  0  0  0  0  0  0  0  0
   12.3494    1.3983    2.3354 H   0  0  0  0  0  0  0  0  0  0  0  0
   13.1775    1.7381    0.7356 H   0  0  0  0  0  0  0  0  0  0  0  0
    6.3822    0.1249   -0.0875 H   0  0  0  0  0  0  0  0  0  0  0  0
    3.0454   -1.6534    0.0881 H   0  0  0  0  0  0  0  0  0  0  0  0
    5.6832    2.5732    2.2679 H   0  0  0  0  0  0  0  0  0  0  0  0
    3.3728    3.3986    2.8923 H   0  0  0  0  0  0  0  0  0  0  0  0
   -0.6062    1.0760    3.9176 H   0  0  0  0  0  0  0  0  0  0  0  0
   -2.7668   -0.0225    3.2984 H   0  0  0  0  0  0  0  0  0  0  0  0
   -3.7858   -1.2865    0.6007 H   0  0  0  0  0  0  0  0  0  0  0  0
   -6.1780   -1.0341    0.1145 H   0  0  0  0  0  0  0  0  0  0  0  0
   -6.6876    2.8248    1.0080 H   0  0  0  0  0  0  0  0  0  0  0  0
   -8.6973    4.4766    1.0479 H   0  0  0  0  0  0  0  0  0  0  0  0
  -10.7464    4.5457    2.1218 H   0  0  0  0  0  0  0  0  0  0  0  0
  -10.6360    2.7510    2.0508 H   0  0  0  0  0  0  0  0  0  0  0  0
  -11.5745    3.7060    0.7955 H   0  0  0  0  0  0  0  0  0  0  0  0
  -10.8731    4.7264   -0.7534 H   0  0  0  0  0  0  0  0  0  0  0  0
   -9.1940    5.2952   -0.9960 H   0  0  0  0  0  0  0  0  0  0  0  0
   -9.7423    3.6470   -1.5895 H   0  0  0  0  0  0  0  0  0  0  0  0
   -9.2201   -0.3868   -2.6035 H   0  0  0  0  0  0  0  0  0  0  0  0
   -9.8226   -2.6363   -3.3630 H   0  0  0  0  0  0  0  0  0  0  0  0
  -10.6406   -4.7400   -2.8017 H   0  0  0  0  0  0  0  0  0  0  0  0
  -10.4547   -5.5007   -1.1991 H   0  0  0  0  0  0  0  0  0  0  0  0
   -9.0209   -5.4487   -2.3683 H   0  0  0  0  0  0  0  0  0  0  0  0
   -9.1483   -4.1906    0.5216 H   0  0  0  0  0  0  0  0  0  0  0  0
   -8.5357   -1.9089    1.3003 H   0  0  0  0  0  0  0  0  0  0  0  0
   -2.9767    0.2582   -1.2790 H   0  0  0  0  0  0  0  0  0  0  0  0
   -1.5790    1.1715   -3.0247 H   0  0  0  0  0  0  0  0  0  0  0  0
    0.5872    2.2890   -2.5378 H   0  0  0  0  0  0  0  0  0  0  0  0
    1.3001    2.4676   -0.1806 H   0  0  0  0  0  0  0  0  0  0  0  0
  1  2  1  0
  2  3  1  0
  3  4  2  0
  4  5  1  0
  5  6  2  0
  6  7  1  0
  7  8  2  0
  7  9  1  0
  9 10  1  0
 10 11  1  0
 11 12  1  0
 12 13  1  0
 12 14  1  0
  6 15  1  0
 15 16  2  0
 16 17  1  0
 17 18  1  0
 18 19  2  0
 19 20  1  0
 20 21  2  0
 21 22  1  0
 22 23  1  0
 23 24  1  0
 24 25  2  0
 25 26  1  0
 26 27  2  0
 27 28  1  0
 28 29  1  0
 29 30  2  0
 29 31  1  0
 31 32  1  0
 32 33  2  0
 33 34  1  0
 34 35  1  0
 35 36  1  0
 35 37  1  0
 34 38  2  0
 38 39  1  0
 39 40  1  0
 40 41  2  0
 41 42  1  0
 42 43  2  0
 43 44  1  0
 43 45  1  0
 45 46  2  0
 27 47  1  0
 47 48  2  0
 48 49  1  0
 49 50  2  0
 50 51  1  0
 51 52  2  0
 22 53  2  0
 16  3  1  0
 53 18  1  0
 52 24  1  0
 39 32  1  0
 46 40  1  0
 52 47  1  0
  1 54  1  0
  1 55  1  0
  1 56  1  0
  4 57  1  0
  5 58  1  0
  9 59  1  0
 10 60  1  0
 10 61  1  0
 11 62  1  0
 11 63  1  0
 13 64  1  0
 13 65  1  0
 13 66  1  0
 14 67  1  0
 14 68  1  0
 14 69  1  0
 15 70  1  0
 17 71  1  0
 20 72  1  0
 21 73  1  0
 25 74  1  0
 26 75  1  0
 28 76  1  0
 31 77  1  0
 33 78  1  0
 35 79  1  0
 36 80  1  0
 36 81  1  0
 36 82  1  0
 37 83  1  0
 37 84  1  0
 37 85  1  0
 41 86  1  0
 42 87  1  0
 44 88  1  0
 44 89  1  0
 44 90  1  0
 45 91  1  0
 46 92  1  0
 48 93  1  0
 49 94  1  0
 50 95  1  0
 51 96  1  0
M  END
$$$$
