@<TRIPOS>MOLECULE
*****
 96 101 0 0 0
SMALL
GASTEIGER

@<TRIPOS>ATOM
      1 C           3.9295   -4.9169   -1.2851 C.3     1  UNL1        0.0789
      2 O           3.9661   -3.6096   -0.7701 O.3     1  UNL1       -0.4933
      3 C           5.1291   -2.8720   -0.8637 C.ar    1  UNL1        0.1412
      4 C           6.2499   -3.4273   -1.4635 C.ar    1  UNL1       -0.0174
      5 C           7.4074   -2.6870   -1.5540 C.ar    1  UNL1       -0.0461
      6 C           7.4572   -1.4274   -1.0639 C.ar    1  UNL1        0.0387
      7 C           8.6449   -0.5644   -1.1177 C.2     1  UNL1        0.2442
      8 O           8.5311    0.6484   -0.8135 O.2     1  UNL1       -0.2702
      9 N           9.8967   -1.0749   -1.5026 N.am    1  UNL1       -0.3101
     10 C          11.1190   -0.3538   -1.5708 C.3     1  UNL1        0.0246
     11 C          11.8247    0.1153   -0.3858 C.3     1  UNL1        0.0139
     12 N          11.2566    0.9301    0.6052 N.3     1  UNL1       -0.3069
     13 C          10.3555    0.3349    1.5345 C.3     1  UNL1       -0.0130
     14 C          12.2221    1.7478    1.2907 C.3     1  UNL1       -0.0130
     15 C           6.2950   -0.8912   -0.4574 C.ar    1  UNL1       -0.0248
     16 C           5.1347   -1.5890   -0.3484 C.ar    1  UNL1        0.0765
     17 N           3.9679   -1.0759    0.2119 N.pl3   1  UNL1       -0.2806
     18 C           3.8631    0.1390    0.9335 C.ar    1  UNL1        0.2226
     19 N           4.8806    0.8949    1.3208 N.ar    1  UNL1       -0.2225
     20 C           4.7694    2.0428    2.0072 C.ar    1  UNL1        0.0362
     21 C           3.5200    2.4897    2.3456 C.ar    1  UNL1        0.0186
     22 C           2.4152    1.7352    1.9629 C.ar    1  UNL1        0.2249
     23 O           1.1318    2.1434    2.2770 O.3     1  UNL1       -0.4373
     24 C          -0.0465    1.5422    1.9181 C.ar    1  UNL1        0.1381
     25 C          -0.9016    1.0054    2.8817 C.ar    1  UNL1       -0.0169
     26 C          -2.0914    0.3982    2.5622 C.ar    1  UNL1       -0.0363
     27 C          -2.4703    0.3074    1.2462 C.ar    1  UNL1        0.0427
     28 N          -3.6971   -0.2940    0.8435 N.am    1  UNL1       -0.2686
     29 C          -4.8865    0.5259    0.7657 C.2     1  UNL1        0.3092
     30 O          -4.7236    1.7279    1.0802 O.2     1  UNL1       -0.2521
     31 N          -6.1362   -0.0062    0.3615 N.am    1  UNL1       -0.2538
     32 C          -7.3003    0.7984    0.2914 C.ar    1  UNL1        0.1299
     33 C          -7.4296    2.1285    0.6235 C.ar    1  UNL1        0.0018
     34 C          -8.7432    2.4614    0.3746 C.ar    1  UNL1        0.0679
     35 C          -9.4150    3.7928    0.5706 C.3     1  UNL1       -0.0025
     36 C         -10.6504    3.6743    1.4108 C.3     1  UNL1       -0.0572
     37 C          -9.8030    4.3784   -0.7721 C.3     1  UNL1       -0.0572
     38 N          -9.3274    1.3701   -0.0775 N.ar    1  UNL1       -0.1694
     39 N          -8.4869    0.3268   -0.1459 N.ar    1  UNL1       -0.2181
     40 C          -8.8365   -0.9870   -0.6042 C.ar    1  UNL1        0.0674
     41 C          -9.2018   -1.2119   -1.9133 C.ar    1  UNL1       -0.0359
     42 C          -9.5380   -2.4789   -2.3296 C.ar    1  UNL1       -0.0568
     43 C          -9.5287   -3.5753   -1.4760 C.ar    1  UNL1       -0.0503
     44 C          -9.9022   -4.9387   -1.9764 C.3     1  UNL1       -0.0397
     45 C          -9.1632   -3.3481   -0.1678 C.ar    1  UNL1       -0.0568
     46 C          -8.8225   -2.0620    0.2525 C.ar    1  UNL1       -0.0359
     47 C          -1.6324    0.8352    0.2800 C.ar    1  UNL1        0.0069
     48 C          -2.0315    0.7425   -1.0268 C.ar    1  UNL1       -0.0521
     49 C          -1.2146    1.2730   -2.0178 C.ar    1  UNL1       -0.0611
     50 C          -0.0174    1.8888   -1.7268 C.ar    1  UNL1       -0.0611
     51 C           0.3790    1.9790   -0.4132 C.ar    1  UNL1       -0.0505
     52 C          -0.4153    1.4589    0.5772 C.ar    1  UNL1        0.0262
     53 N           2.6218    0.6054    1.2819 N.ar    1  UNL1       -0.1789
     54 H           4.3543   -4.9350   -2.3084 H       1  UNL1        0.0660
     55 H           2.9035   -5.3380   -1.3585 H       1  UNL1        0.0660
     56 H           4.5651   -5.6140   -0.6713 H       1  UNL1        0.0660
     57 H           6.2666   -4.4227   -1.8700 H       1  UNL1        0.0655
     58 H           8.2943   -3.1329   -2.0371 H       1  UNL1        0.0626
     59 H           9.8931   -2.1111   -1.7565 H       1  UNL1        0.1490
     60 H          11.8339   -1.0138   -2.1641 H       1  UNL1        0.0475
     61 H          10.9519    0.5595   -2.2374 H       1  UNL1        0.0475
     62 H          12.3514   -0.7843    0.1508 H       1  UNL1        0.0442
     63 H          12.7433    0.7066   -0.7853 H       1  UNL1        0.0442
     64 H           9.4518    0.9806    1.7037 H       1  UNL1        0.0391
     65 H          10.8417    0.3227    2.5670 H       1  UNL1        0.0391
     66 H          10.1185   -0.7184    1.3440 H       1  UNL1        0.0391
     67 H          11.8644    2.7904    1.2950 H       1  UNL1        0.0391
     68 H          12.3494    1.3983    2.3354 H       1  UNL1        0.0391
     69 H          13.1775    1.7381    0.7356 H       1  UNL1        0.0391
     70 H           6.3822    0.1249   -0.0875 H       1  UNL1        0.0645
     71 H           3.0454   -1.6534    0.0881 H       1  UNL1        0.1551
     72 H           5.6832    2.5732    2.2679 H       1  UNL1        0.0832
     73 H           3.3728    3.3986    2.8923 H       1  UNL1        0.0686
     74 H          -0.6062    1.0760    3.9176 H       1  UNL1        0.0655
     75 H          -2.7668   -0.0225    3.2984 H       1  UNL1        0.0637
     76 H          -3.7858   -1.2865    0.6007 H       1  UNL1        0.1564
     77 H          -6.1780   -1.0341    0.1145 H       1  UNL1        0.1578
     78 H          -6.6876    2.8248    1.0080 H       1  UNL1        0.0671
     79 H          -8.6973    4.4766    1.0479 H       1  UNL1        0.0359
     80 H         -10.7464    4.5457    2.1218 H       1  UNL1        0.0236
     81 H         -10.6360    2.7510    2.0508 H       1  UNL1        0.0236
     82 H         -11.5745    3.7060    0.7955 H       1  UNL1        0.0236
     83 H         -10.8731    4.7264   -0.7534 H       1  UNL1        0.0236
     84 H          -9.1940    5.2952   -0.9960 H       1  UNL1        0.0236
     85 H          -9.7423    3.6470   -1.5895 H       1  UNL1        0.0236
     86 H          -9.2201   -0.3868   -2.6035 H       1  UNL1        0.0639
     87 H          -9.8226   -2.6363   -3.3630 H       1  UNL1        0.0621
     88 H         -10.6406   -4.7400   -2.8017 H       1  UNL1        0.0278
     89 H         -10.4547   -5.5007   -1.1991 H       1  UNL1        0.0278
     90 H          -9.0209   -5.4487   -2.3683 H       1  UNL1        0.0278
     91 H          -9.1483   -4.1906    0.5216 H       1  UNL1        0.0621
     92 H          -8.5357   -1.9089    1.3003 H       1  UNL1        0.0639
     93 H          -2.9767    0.2582   -1.2790 H       1  UNL1        0.0624
     94 H          -1.5790    1.1715   -3.0247 H       1  UNL1        0.0618
     95 H           0.5872    2.2890   -2.5378 H       1  UNL1        0.0618
     96 H           1.3001    2.4676   -0.1806 H       1  UNL1        0.0625
@<TRIPOS>BOND
     1     1     2    1
     2     2     3    1
     3     3     4   ar
     4     4     5   ar
     5     5     6   ar
     6     6     7    1
     7     7     8    2
     8     7     9   am
     9     9    10    1
    10    10    11    1
    11    11    12    1
    12    12    13    1
    13    12    14    1
    14     6    15   ar
    15    15    16   ar
    16    16    17    1
    17    17    18    1
    18    18    19   ar
    19    19    20   ar
    20    20    21   ar
    21    21    22   ar
    22    22    23    1
    23    23    24    1
    24    24    25   ar
    25    25    26   ar
    26    26    27   ar
    27    27    28    1
    28    28    29   am
    29    29    30    2
    30    29    31   am
    31    31    32    1
    32    32    33   ar
    33    33    34   ar
    34    34    35    1
    35    35    36    1
    36    35    37    1
    37    34    38   ar
    38    38    39   ar
    39    39    40    1
    40    40    41   ar
    41    41    42   ar
    42    42    43   ar
    43    43    44    1
    44    43    45   ar
    45    45    46   ar
    46    27    47   ar
    47    47    48   ar
    48    48    49   ar
    49    49    50   ar
    50    50    51   ar
    51    51    52   ar
    52    22    53   ar
    53    16     3   ar
    54    53    18   ar
    55    52    24   ar
    56    39    32   ar
    57    46    40   ar
    58    52    47   ar
    59     1    54    1
    60     1    55    1
    61     1    56    1
    62     4    57    1
    63     5    58    1
    64     9    59    1
    65    10    60    1
    66    10    61    1
    67    11    62    1
    68    11    63    1
    69    13    64    1
    70    13    65    1
    71    13    66    1
    72    14    67    1
    73    14    68    1
    74    14    69    1
    75    15    70    1
    76    17    71    1
    77    20    72    1
    78    21    73    1
    79    25    74    1
    80    26    75    1
    81    28    76    1
    82    31    77    1
    83    33    78    1
    84    35    79    1
    85    36    80    1
    86    36    81    1
    87    36    82    1
    88    37    83    1
    89    37    84    1
    90    37    85    1
    91    41    86    1
    92    42    87    1
    93    44    88    1
    94    44    89    1
    95    44    90    1
    96    45    91    1
    97    46    92    1
    98    48    93    1
    99    49    94    1
   100    50    95    1
   101    51    96    1
