
     RDKit          3D

 71 71  0  0  0  0  0  0  0  0999 V2000
   -0.0057    0.3852   -0.0000 O   0  0  0  0  0  0  0  0  0  0  0  0
    0.6828    0.0000    0.0000 Cl  0  0  0  0  0  0  0  0  0  0  0  0
   -9.6227   -0.8174    0.6860 C   0  0  0  0  0  0  0  0  0  0  0  0
   -8.5600    0.1677    1.1295 C   0  0  0  0  0  0  0  0  0  0  0  0
   -7.2712   -0.1569    0.4872 C   0  0  0  0  0  0  0  0  0  0  0  0
   -7.3366   -1.2728   -0.0676 O   0  0  0  0  0  0  0  0  0  0  0  0
   -6.1508    0.6832    0.5104 N   0  0  0  0  0  0  0  0  0  0  0  0
   -4.8401    0.5840   -0.0112 C   0  0  0  0  0  0  0  0  0  0  0  0
   -4.6449    0.2297   -1.3285 C   0  0  0  0  0  0  0  0  0  0  0  0
   -5.7057   -0.0730   -2.3104 C   0  0  0  0  0  0  0  0  0  0  0  0
   -3.3002    0.1736   -1.7120 C   0  0  0  0  0  0  0  0  0  0  0  0
   -2.1846    0.4287   -0.9403 C   0  0  0  0  0  0  0  0  0  0  0  0
   -2.5076    0.7768    0.3607 C   0  0  0  0  0  0  0  0  0  0  0  0
   -3.7913    0.8593    0.8405 C   0  0  0  0  0  0  0  0  0  0  0  0
   -3.9892    1.2497    2.2625 C   0  0  0  0  0  0  0  0  0  0  0  0
   -0.8670    0.2993   -1.5405 C   0  0  0  0  0  0  0  0  0  0  0  0
   -0.8989    0.9580   -2.6188 O   0  0  0  0  0  0  0  0  0  0  0  0
    0.2821   -0.4181   -1.0595 N   0  0  0  0  0  0  0  0  0  0  0  0
    0.4211   -1.1741    0.1420 C   0  0  0  0  0  0  0  0  0  0  0  0
    1.7401   -0.9414    0.8393 C   0  0  0  0  0  0  0  0  0  0  0  0
    2.9095   -1.0245   -0.0612 C   0  0  0  0  0  0  0  0  0  0  0  0
    2.5961   -1.0810   -1.5102 C   0  0  0  0  0  0  0  0  0  0  0  0
    1.3934   -0.3366   -1.9591 C   0  0  0  0  0  0  0  0  0  0  0  0
    3.8998   -0.0418    0.2970 N   0  0  0  0  0  0  0  0  0  0  0  0
    3.4602    1.3114    0.1218 C   0  0  0  0  0  0  0  0  0  0  0  0
    4.4336   -0.2796    1.6250 C   0  0  0  0  0  0  0  0  0  0  0  0
    5.6245    0.6033    1.9290 C   0  0  0  0  0  0  0  0  0  0  0  0
    6.7332    0.3565    0.9666 C   0  0  0  0  0  0  0  0  0  0  0  0
    7.6458   -0.6673    1.2302 C   0  0  0  0  0  0  0  0  0  0  0  0
    8.7233   -1.0715    0.4853 C   0  0  0  0  0  0  0  0  0  0  0  0
    8.9006   -0.3439   -0.6824 C   0  0  0  0  0  0  0  0  0  0  0  0
    8.0402    0.6975   -1.0306 C   0  0  0  0  0  0  0  0  0  0  0  0
    6.9862    1.0240   -0.2080 C   0  0  0  0  0  0  0  0  0  0  0  0
   -0.7961   -0.1947   -0.0000 H   0  0  0  0  0  0  0  0  0  0  0  0
    0.8018   -0.1905    0.0000 H   0  0  0  0  0  0  0  0  0  0  0  0
   -0.6828    0.0000    0.0000 H   0  0  0  0  0  0  0  0  0  0  0  0
  -10.4247   -0.2495    0.1582 H   0  0  0  0  0  0  0  0  0  0  0  0
   -9.2298   -1.5994   -0.0086 H   0  0  0  0  0  0  0  0  0  0  0  0
  -10.0599   -1.3532    1.5663 H   0  0  0  0  0  0  0  0  0  0  0  0
   -8.8889    1.1940    0.9074 H   0  0  0  0  0  0  0  0  0  0  0  0
   -8.4694    0.0923    2.2616 H   0  0  0  0  0  0  0  0  0  0  0  0
   -6.3298    1.5856    1.0328 H   0  0  0  0  0  0  0  0  0  0  0  0
   -5.8161   -1.1842   -2.3381 H   0  0  0  0  0  0  0  0  0  0  0  0
   -5.3404    0.1813   -3.3462 H   0  0  0  0  0  0  0  0  0  0  0  0
   -6.6619    0.4117   -2.1090 H   0  0  0  0  0  0  0  0  0  0  0  0
   -3.1285   -0.1081   -2.7611 H   0  0  0  0  0  0  0  0  0  0  0  0
   -1.7026    0.9991    1.0182 H   0  0  0  0  0  0  0  0  0  0  0  0
   -3.0729    1.7287    2.6675 H   0  0  0  0  0  0  0  0  0  0  0  0
   -4.3196    0.3590    2.8328 H   0  0  0  0  0  0  0  0  0  0  0  0
   -4.8018    2.0146    2.3001 H   0  0  0  0  0  0  0  0  0  0  0  0
   -0.4318   -0.9518    0.8143 H   0  0  0  0  0  0  0  0  0  0  0  0
    0.3562   -2.2673   -0.0896 H   0  0  0  0  0  0  0  0  0  0  0  0
    1.8386   -1.6468    1.7228 H   0  0  0  0  0  0  0  0  0  0  0  0
    1.6961    0.0560    1.3181 H   0  0  0  0  0  0  0  0  0  0  0  0
    3.4208   -2.0091    0.1905 H   0  0  0  0  0  0  0  0  0  0  0  0
    3.5267   -0.7902   -2.0555 H   0  0  0  0  0  0  0  0  0  0  0  0
    2.4428   -2.1461   -1.7969 H   0  0  0  0  0  0  0  0  0  0  0  0
    1.6401    0.7032   -2.2610 H   0  0  0  0  0  0  0  0  0  0  0  0
    0.9968   -0.7762   -2.9350 H   0  0  0  0  0  0  0  0  0  0  0  0
    2.3570    1.2881   -0.0815 H   0  0  0  0  0  0  0  0  0  0  0  0
    3.5397    1.8400    1.0914 H   0  0  0  0  0  0  0  0  0  0  0  0
    3.9973    1.9043   -0.6238 H   0  0  0  0  0  0  0  0  0  0  0  0
    3.6131    0.0066    2.3151 H   0  0  0  0  0  0  0  0  0  0  0  0
    4.6341   -1.3430    1.8374 H   0  0  0  0  0  0  0  0  0  0  0  0
    5.3522    1.6734    1.9759 H   0  0  0  0  0  0  0  0  0  0  0  0
    6.0221    0.3387    2.9304 H   0  0  0  0  0  0  0  0  0  0  0  0
    7.4819   -1.2290    2.1638 H   0  0  0  0  0  0  0  0  0  0  0  0
    9.3468   -1.8772    0.8026 H   0  0  0  0  0  0  0  0  0  0  0  0
    9.7474   -0.6128   -1.3309 H   0  0  0  0  0  0  0  0  0  0  0  0
    8.2191    1.2385   -1.9495 H   0  0  0  0  0  0  0  0  0  0  0  0
    6.3302    1.8258   -0.4643 H   0  0  0  0  0  0  0  0  0  0  0  0
  3  4  1  0
  4  5  1  0
  5  6  2  0
  5  7  1  0
  7  8  1  0
  8  9  2  0
  9 10  1  0
  9 11  1  0
 11 12  2  0
 12 13  1  0
 13 14  2  0
 14 15  1  0
 12 16  1  0
 16 17  2  0
 16 18  1  0
 18 19  1  0
 19 20  1  0
 20 21  1  0
 21 22  1  0
 22 23  1  0
 21 24  1  0
 24 25  1  0
 24 26  1  0
 26 27  1  0
 27 28  1  0
 28 29  2  0
 29 30  1  0
 30 31  2  0
 31 32  1  0
 32 33  2  0
 14  8  1  0
 23 18  1  0
 33 28  1  0
  1 34  1  0
  1 35  1  0
  2 36  1  0
  3 37  1  0
  3 38  1  0
  3 39  1  0
  4 40  1  0
  4 41  1  0
  7 42  1  0
 10 43  1  0
 10 44  1  0
 10 45  1  0
 11 46  1  0
 13 47  1  0
 15 48  1  0
 15 49  1  0
 15 50  1  0
 19 51  1  0
 19 52  1  0
 20 53  1  0
 20 54  1  0
 21 55  1  0
 22 56  1  0
 22 57  1  0
 23 58  1  0
 23 59  1  0
 25 60  1  0
 25 61  1  0
 25 62  1  0
 26 63  1  0
 26 64  1  0
 27 65  1  0
 27 66  1  0
 29 67  1  0
 30 68  1  0
 31 69  1  0
 32 70  1  0
 33 71  1  0
M  END
$$$$
