@<TRIPOS>MOLECULE
*****
 71 71 0 0 0
SMALL
GASTEIGER

@<TRIPOS>ATOM
      1 O          -0.0057    0.3852   -0.0000 O.3     1  HOH1       -0.4105
      2 CL          0.6828    0.0000    0.0000 Cl      2  UNL2       -0.1454
      3 C          -9.6227   -0.8174    0.6860 C.3     3  UNL3       -0.0570
      4 C          -8.5600    0.1677    1.1295 C.3     3  UNL3        0.0215
      5 C          -7.2712   -0.1569    0.4872 C.2     3  UNL3        0.2169
      6 O          -7.3366   -1.2728   -0.0676 O.2     3  UNL3       -0.2755
      7 N          -6.1508    0.6832    0.5104 N.am    3  UNL3       -0.2850
      8 C          -4.8401    0.5840   -0.0112 C.ar    3  UNL3        0.0393
      9 C          -4.6449    0.2297   -1.3285 C.ar    3  UNL3       -0.0283
     10 C          -5.7057   -0.0730   -2.3104 C.3     3  UNL3       -0.0379
     11 C          -3.3002    0.1736   -1.7120 C.ar    3  UNL3       -0.0449
     12 C          -2.1846    0.4287   -0.9403 C.ar    3  UNL3        0.0375
     13 C          -2.5076    0.7768    0.3607 C.ar    3  UNL3       -0.0449
     14 C          -3.7913    0.8593    0.8405 C.ar    3  UNL3       -0.0283
     15 C          -3.9892    1.2497    2.2625 C.3     3  UNL3       -0.0379
     16 C          -0.8670    0.2993   -1.5405 C.2     3  UNL3        0.2466
     17 O          -0.8989    0.9580   -2.6188 O.2     3  UNL3       -0.2700
     18 N           0.2821   -0.4181   -1.0595 N.am    3  UNL3       -0.2974
     19 C           0.4211   -1.1741    0.1420 C.3     3  UNL3        0.0164
     20 C           1.7401   -0.9414    0.8393 C.3     3  UNL3       -0.0214
     21 C           2.9095   -1.0245   -0.0612 C.3     3  UNL3        0.0130
     22 C           2.5961   -1.0810   -1.5102 C.3     3  UNL3       -0.0214
     23 C           1.3934   -0.3366   -1.9591 C.3     3  UNL3        0.0164
     24 N           3.8998   -0.0418    0.2970 N.3     3  UNL3       -0.3020
     25 C           3.4602    1.3114    0.1218 C.3     3  UNL3       -0.0125
     26 C           4.4336   -0.2796    1.6250 C.3     3  UNL3        0.0029
     27 C           5.6245    0.6033    1.9290 C.3     3  UNL3       -0.0149
     28 C           6.7332    0.3565    0.9666 C.ar    3  UNL3       -0.0462
     29 C           7.6458   -0.6673    1.2302 C.ar    3  UNL3       -0.0585
     30 C           8.7233   -1.0715    0.4853 C.ar    3  UNL3       -0.0615
     31 C           8.9006   -0.3439   -0.6824 C.ar    3  UNL3       -0.0617
     32 C           8.0402    0.6975   -1.0306 C.ar    3  UNL3       -0.0615
     33 C           6.9862    1.0240   -0.2080 C.ar    3  UNL3       -0.0585
     34 H          -0.7961   -0.1947   -0.0000 H       0  HOH0        0.2052
     35 H           0.8018   -0.1905    0.0000 H       0  HOH0        0.2052
     36 H          -0.6828    0.0000    0.0000 H       1  HOH1        0.1454
     37 H         -10.4247   -0.2495    0.1582 H       3  UNL3        0.0234
     38 H          -9.2298   -1.5994   -0.0086 H       3  UNL3        0.0234
     39 H         -10.0599   -1.3532    1.5663 H       3  UNL3        0.0234
     40 H          -8.8889    1.1940    0.9074 H       3  UNL3        0.0356
     41 H          -8.4694    0.0923    2.2616 H       3  UNL3        0.0356
     42 H          -6.3298    1.5856    1.0328 H       3  UNL3        0.1548
     43 H          -5.8161   -1.1842   -2.3381 H       3  UNL3        0.0278
     44 H          -5.3404    0.1813   -3.3462 H       3  UNL3        0.0278
     45 H          -6.6619    0.4117   -2.1090 H       3  UNL3        0.0278
     46 H          -3.1285   -0.1081   -2.7611 H       3  UNL3        0.0628
     47 H          -1.7026    0.9991    1.0182 H       3  UNL3        0.0628
     48 H          -3.0729    1.7287    2.6675 H       3  UNL3        0.0278
     49 H          -4.3196    0.3590    2.8328 H       3  UNL3        0.0278
     50 H          -4.8018    2.0146    2.3001 H       3  UNL3        0.0278
     51 H          -0.4318   -0.9518    0.8143 H       3  UNL3        0.0465
     52 H           0.3562   -2.2673   -0.0896 H       3  UNL3        0.0465
     53 H           1.8386   -1.6468    1.7228 H       3  UNL3        0.0295
     54 H           1.6961    0.0560    1.3181 H       3  UNL3        0.0295
     55 H           3.4208   -2.0091    0.1905 H       3  UNL3        0.0463
     56 H           3.5267   -0.7902   -2.0555 H       3  UNL3        0.0295
     57 H           2.4428   -2.1461   -1.7969 H       3  UNL3        0.0295
     58 H           1.6401    0.7032   -2.2610 H       3  UNL3        0.0465
     59 H           0.9968   -0.7762   -2.9350 H       3  UNL3        0.0465
     60 H           2.3570    1.2881   -0.0815 H       3  UNL3        0.0391
     61 H           3.5397    1.8400    1.0914 H       3  UNL3        0.0391
     62 H           3.9973    1.9043   -0.6238 H       3  UNL3        0.0391
     63 H           3.6131    0.0066    2.3151 H       3  UNL3        0.0430
     64 H           4.6341   -1.3430    1.8374 H       3  UNL3        0.0430
     65 H           5.3522    1.6734    1.9759 H       3  UNL3        0.0326
     66 H           6.0221    0.3387    2.9304 H       3  UNL3        0.0326
     67 H           7.4819   -1.2290    2.1638 H       3  UNL3        0.0620
     68 H           9.3468   -1.8772    0.8026 H       3  UNL3        0.0618
     69 H           9.7474   -0.6128   -1.3309 H       3  UNL3        0.0618
     70 H           8.2191    1.2385   -1.9495 H       3  UNL3        0.0618
     71 H           6.3302    1.8258   -0.4643 H       3  UNL3        0.0620
@<TRIPOS>BOND
     1     3     4    1
     2     4     5    1
     3     5     6    2
     4     5     7   am
     5     7     8    1
     6     8     9   ar
     7     9    10    1
     8     9    11   ar
     9    11    12   ar
    10    12    13   ar
    11    13    14   ar
    12    14    15    1
    13    12    16    1
    14    16    17    2
    15    16    18   am
    16    18    19    1
    17    19    20    1
    18    20    21    1
    19    21    22    1
    20    22    23    1
    21    21    24    1
    22    24    25    1
    23    24    26    1
    24    26    27    1
    25    27    28    1
    26    28    29   ar
    27    29    30   ar
    28    30    31   ar
    29    31    32   ar
    30    32    33   ar
    31    14     8   ar
    32    23    18    1
    33    33    28   ar
    34     1    34    1
    35     1    35    1
    36     2    36    1
    37     3    37    1
    38     3    38    1
    39     3    39    1
    40     4    40    1
    41     4    41    1
    42     7    42    1
    43    10    43    1
    44    10    44    1
    45    10    45    1
    46    11    46    1
    47    13    47    1
    48    15    48    1
    49    15    49    1
    50    15    50    1
    51    19    51    1
    52    19    52    1
    53    20    53    1
    54    20    54    1
    55    21    55    1
    56    22    56    1
    57    22    57    1
    58    23    58    1
    59    23    59    1
    60    25    60    1
    61    25    61    1
    62    25    62    1
    63    26    63    1
    64    26    64    1
    65    27    65    1
    66    27    66    1
    67    29    67    1
    68    30    68    1
    69    31    69    1
    70    32    70    1
    71    33    71    1
