@<TRIPOS>MOLECULE
*****
 58 61 0 0 0
SMALL
GASTEIGER

@<TRIPOS>ATOM
      1 C          -5.1518    0.3943   -1.6674 C.3     1  UNL1       -0.0277
      2 C          -6.5292    0.7516   -1.4551 C.3     1  UNL1        0.1360
      3 C          -7.5158   -0.3614   -1.5608 C.3     1  UNL1       -0.0277
      4 O          -6.9553    1.7317   -2.4060 O.3     1  UNL1       -0.3799
      5 C          -6.8179    1.4338   -0.0112 C.2     1  UNL1        0.2468
      6 O          -7.1378    2.5240   -0.1346 O.2     1  UNL1       -0.2725
      7 N          -6.5623    0.4480    0.9654 N.am    1  UNL1       -0.2967
      8 C          -6.5398    0.5231    2.4180 C.3     1  UNL1        0.0299
      9 C          -5.4636   -0.4866    2.3911 C.3     1  UNL1        0.0524
     10 C          -4.1669   -0.0622    1.8856 C.1     1  UNL1       -0.0905
     11 C          -3.0673    0.2909    1.4796 C.1     1  UNL1       -0.0658
     12 C          -1.7730    0.7044    1.0281 C.ar    1  UNL1        0.0285
     13 C          -1.0498    1.7841    1.2758 C.ar    1  UNL1       -0.0454
     14 C           0.3867    1.7982    1.0436 C.ar    1  UNL1       -0.0462
     15 C           0.9200    0.6236    0.5635 C.ar    1  UNL1        0.0646
     16 C           2.3617    0.5680    0.3965 C.ar    1  UNL1        0.2001
     17 O           3.0755    1.5144    0.6054 O.2     1  UNL1       -0.2864
     18 C           2.8235   -0.6763   -0.0335 C.ar    1  UNL1        0.0643
     19 C           4.2771   -0.8714   -0.1592 C.ar    1  UNL1       -0.0112
     20 C           4.8909   -1.9733    0.3482 C.ar    1  UNL1       -0.0520
     21 C           6.2816   -2.1367    0.1933 C.ar    1  UNL1       -0.0388
     22 C           7.0044   -1.1528   -0.4875 C.ar    1  UNL1        0.0477
     23 N           8.4213   -1.3619   -0.6517 N.pl3   1  UNL1       -0.2209
     24 S           9.5276   -0.0817   -0.3781 S.O2    1  UNL1        0.0403
     25 C           9.3418    1.3011   -1.4123 C.3     1  UNL1        0.0736
     26 O           9.4130    0.3700    1.0904 O.2     1  UNL1       -0.1555
     27 O          10.9425   -0.5796   -0.5114 O.2     1  UNL1       -0.1555
     28 C           6.3829   -0.0719   -0.9801 C.ar    1  UNL1       -0.0388
     29 C           5.0051    0.0998   -0.8289 C.ar    1  UNL1       -0.0520
     30 C           2.0456   -1.7229   -0.2881 C.ar    1  UNL1        0.1038
     31 O           0.6904   -1.6441   -0.1274 O.2     1  UNL1       -0.4621
     32 C           0.2683   -0.4478    0.2977 C.ar    1  UNL1        0.1396
     33 C          -1.1334   -0.4923    0.5010 C.ar    1  UNL1       -0.0032
     34 C          -6.2779   -0.9485    1.1207 C.3     1  UNL1        0.0299
     35 H          -4.3968    0.3672   -0.8802 H       1  UNL1        0.0262
     36 H          -4.7511    0.9897   -2.5727 H       1  UNL1        0.0262
     37 H          -5.1260   -0.6781   -2.1528 H       1  UNL1        0.0262
     38 H          -8.3998   -0.0961   -0.8845 H       1  UNL1        0.0262
     39 H          -7.1620   -1.3405   -1.2354 H       1  UNL1        0.0262
     40 H          -7.8518   -0.4910   -2.6320 H       1  UNL1        0.0262
     41 H          -7.8771    2.0472   -2.1874 H       1  UNL1        0.2108
     42 H          -6.1270    1.5081    2.7791 H       1  UNL1        0.0477
     43 H          -7.4941    0.2072    2.8953 H       1  UNL1        0.0477
     44 H          -5.4119   -1.2452    3.1955 H       1  UNL1        0.0464
     45 H          -1.5224    2.6846    1.6545 H       1  UNL1        0.0630
     46 H           0.9538    2.6408    1.2373 H       1  UNL1        0.0626
     47 H           4.3381   -2.7410    0.8690 H       1  UNL1        0.0624
     48 H           6.7985   -2.9927    0.6033 H       1  UNL1        0.0637
     49 H           8.7449   -2.2884   -0.9318 H       1  UNL1        0.1733
     50 H           8.6977    2.0735   -0.9382 H       1  UNL1        0.0482
     51 H          10.3524    1.7558   -1.5856 H       1  UNL1        0.0482
     52 H           8.9326    1.1018   -2.4283 H       1  UNL1        0.0482
     53 H           6.8472    0.7322   -1.5404 H       1  UNL1        0.0637
     54 H           4.4588    0.9428   -1.2055 H       1  UNL1        0.0624
     55 H           2.3977   -2.6966   -0.6405 H       1  UNL1        0.1037
     56 H          -1.7428   -1.3113    0.2696 H       1  UNL1        0.0667
     57 H          -5.5187   -1.2911    0.3686 H       1  UNL1        0.0477
     58 H          -7.0584   -1.6684    1.3138 H       1  UNL1        0.0477
@<TRIPOS>BOND
     1     1     2    1
     2     2     3    1
     3     2     4    1
     4     2     5    1
     5     5     6    2
     6     5     7   am
     7     7     8    1
     8     8     9    1
     9     9    10    1
    10    10    11    3
    11    11    12    1
    12    12    13   ar
    13    13    14   ar
    14    14    15   ar
    15    15    16   ar
    16    16    17    2
    17    16    18   ar
    18    18    19    1
    19    19    20   ar
    20    20    21   ar
    21    21    22   ar
    22    22    23    1
    23    23    24    1
    24    24    25    1
    25    24    26    2
    26    24    27    2
    27    22    28   ar
    28    28    29   ar
    29    18    30   ar
    30    30    31   ar
    31    31    32   ar
    32    32    33   ar
    33     9    34    1
    34    34     7    1
    35    33    12   ar
    36    32    15   ar
    37    29    19   ar
    38     1    35    1
    39     1    36    1
    40     1    37    1
    41     3    38    1
    42     3    39    1
    43     3    40    1
    44     4    41    1
    45     8    42    1
    46     8    43    1
    47     9    44    1
    48    13    45    1
    49    14    46    1
    50    20    47    1
    51    21    48    1
    52    23    49    1
    53    25    50    1
    54    25    51    1
    55    25    52    1
    56    28    53    1
    57    29    54    1
    58    30    55    1
    59    33    56    1
    60    34    57    1
    61    34    58    1
