
     RDKit          3D

 58 61  0  0  0  0  0  0  0  0999 V2000
   -5.1518    0.3943   -1.6674 C   0  0  0  0  0  0  0  0  0  0  0  0
   -6.5292    0.7516   -1.4551 C   0  0  0  0  0  0  0  0  0  0  0  0
   -7.5158   -0.3614   -1.5608 C   0  0  0  0  0  0  0  0  0  0  0  0
   -6.9553    1.7317   -2.4060 O   0  0  0  0  0  0  0  0  0  0  0  0
   -6.8179    1.4338   -0.0112 C   0  0  0  0  0  0  0  0  0  0  0  0
   -7.1378    2.5240   -0.1346 O   0  0  0  0  0  0  0  0  0  0  0  0
   -6.5623    0.4480    0.9654 N   0  0  0  0  0  0  0  0  0  0  0  0
   -6.5398    0.5231    2.4180 C   0  0  0  0  0  0  0  0  0  0  0  0
   -5.4636   -0.4866    2.3911 C   0  0  0  0  0  0  0  0  0  0  0  0
   -4.1669   -0.0622    1.8856 C   0  0  0  0  0  0  0  0  0  0  0  0
   -3.0673    0.2909    1.4796 C   0  0  0  0  0  0  0  0  0  0  0  0
   -1.7730    0.7044    1.0281 C   0  0  0  0  0  0  0  0  0  0  0  0
   -1.0498    1.7841    1.2758 C   0  0  0  0  0  0  0  0  0  0  0  0
    0.3867    1.7982    1.0436 C   0  0  0  0  0  0  0  0  0  0  0  0
    0.9200    0.6236    0.5635 C   0  0  0  0  0  0  0  0  0  0  0  0
    2.3617    0.5680    0.3965 C   0  0  0  0  0  0  0  0  0  0  0  0
    3.0755    1.5144    0.6054 O   0  0  0  0  0  0  0  0  0  0  0  0
    2.8235   -0.6763   -0.0335 C   0  0  0  0  0  0  0  0  0  0  0  0
    4.2771   -0.8714   -0.1592 C   0  0  0  0  0  0  0  0  0  0  0  0
    4.8909   -1.9733    0.3482 C   0  0  0  0  0  0  0  0  0  0  0  0
    6.2816   -2.1367    0.1933 C   0  0  0  0  0  0  0  0  0  0  0  0
    7.0044   -1.1528   -0.4875 C   0  0  0  0  0  0  0  0  0  0  0  0
    8.4213   -1.3619   -0.6517 N   0  0  0  0  0  0  0  0  0  0  0  0
    9.5276   -0.0817   -0.3781 S   0  0  0  0  0  6  0  0  0  0  0  0
    9.3418    1.3011   -1.4123 C   0  0  0  0  0  0  0  0  0  0  0  0
    9.4130    0.3700    1.0904 O   0  0  0  0  0  0  0  0  0  0  0  0
   10.9425   -0.5796   -0.5114 O   0  0  0  0  0  0  0  0  0  0  0  0
    6.3829   -0.0719   -0.9801 C   0  0  0  0  0  0  0  0  0  0  0  0
    5.0051    0.0998   -0.8289 C   0  0  0  0  0  0  0  0  0  0  0  0
    2.0456   -1.7229   -0.2881 C   0  0  0  0  0  0  0  0  0  0  0  0
    0.6904   -1.6441   -0.1274 O   0  0  0  0  0  0  0  0  0  0  0  0
    0.2683   -0.4478    0.2977 C   0  0  0  0  0  0  0  0  0  0  0  0
   -1.1334   -0.4923    0.5010 C   0  0  0  0  0  0  0  0  0  0  0  0
   -6.2779   -0.9485    1.1207 C   0  0  0  0  0  0  0  0  0  0  0  0
   -4.3968    0.3672   -0.8802 H   0  0  0  0  0  0  0  0  0  0  0  0
   -4.7511    0.9897   -2.5727 H   0  0  0  0  0  0  0  0  0  0  0  0
   -5.1260   -0.6781   -2.1528 H   0  0  0  0  0  0  0  0  0  0  0  0
   -8.3998   -0.0961   -0.8845 H   0  0  0  0  0  0  0  0  0  0  0  0
   -7.1620   -1.3405   -1.2354 H   0  0  0  0  0  0  0  0  0  0  0  0
   -7.8518   -0.4910   -2.6320 H   0  0  0  0  0  0  0  0  0  0  0  0
   -7.8771    2.0472   -2.1874 H   0  0  0  0  0  0  0  0  0  0  0  0
   -6.1270    1.5081    2.7791 H   0  0  0  0  0  0  0  0  0  0  0  0
   -7.4941    0.2072    2.8953 H   0  0  0  0  0  0  0  0  0  0  0  0
   -5.4119   -1.2452    3.1955 H   0  0  0  0  0  0  0  0  0  0  0  0
   -1.5224    2.6846    1.6545 H   0  0  0  0  0  0  0  0  0  0  0  0
    0.9538    2.6408    1.2373 H   0  0  0  0  0  0  0  0  0  0  0  0
    4.3381   -2.7410    0.8690 H   0  0  0  0  0  0  0  0  0  0  0  0
    6.7985   -2.9927    0.6033 H   0  0  0  0  0  0  0  0  0  0  0  0
    8.7449   -2.2884   -0.9318 H   0  0  0  0  0  0  0  0  0  0  0  0
    8.6977    2.0735   -0.9382 H   0  0  0  0  0  0  0  0  0  0  0  0
   10.3524    1.7558   -1.5856 H   0  0  0  0  0  0  0  0  0  0  0  0
    8.9326    1.1018   -2.4283 H   0  0  0  0  0  0  0  0  0  0  0  0
    6.8472    0.7322   -1.5404 H   0  0  0  0  0  0  0  0  0  0  0  0
    4.4588    0.9428   -1.2055 H   0  0  0  0  0  0  0  0  0  0  0  0
    2.3977   -2.6966   -0.6405 H   0  0  0  0  0  0  0  0  0  0  0  0
   -1.7428   -1.3113    0.2696 H   0  0  0  0  0  0  0  0  0  0  0  0
   -5.5187   -1.2911    0.3686 H   0  0  0  0  0  0  0  0  0  0  0  0
   -7.0584   -1.6684    1.3138 H   0  0  0  0  0  0  0  0  0  0  0  0
  1  2  1  0
  2  3  1  0
  2  4  1  0
  2  5  1  0
  5  6  2  0
  5  7  1  0
  7  8  1  0
  8  9  1  0
  9 10  1  0
 10 11  3  0
 11 12  1  0
 12 13  2  0
 13 14  1  0
 14 15  2  0
 15 16  1  0
 16 17  2  0
 16 18  1  0
 18 19  1  0
 19 20  2  0
 20 21  1  0
 21 22  2  0
 22 23  1  0
 23 24  1  0
 24 25  1  0
 24 26  2  0
 24 27  2  0
 22 28  1  0
 28 29  2  0
 18 30  2  0
 30 31  1  0
 31 32  1  0
 32 33  2  0
  9 34  1  0
 34  7  1  0
 33 12  1  0
 32 15  1  0
 29 19  1  0
  1 35  1  0
  1 36  1  0
  1 37  1  0
  3 38  1  0
  3 39  1  0
  3 40  1  0
  4 41  1  0
  8 42  1  0
  8 43  1  0
  9 44  1  0
 13 45  1  0
 14 46  1  0
 20 47  1  0
 21 48  1  0
 23 49  1  0
 25 50  1  0
 25 51  1  0
 25 52  1  0
 28 53  1  0
 29 54  1  0
 30 55  1  0
 33 56  1  0
 34 57  1  0
 34 58  1  0
M  END
$$$$
