@<TRIPOS>MOLECULE
*****
 44 48 0 0 0
SMALL
GASTEIGER

@<TRIPOS>ATOM
      1 O           8.2636   -1.1503    1.4084 O.3     1  UNL1       -0.3904
      2 C           7.8642   -0.3608    0.3258 C.3     1  UNL1        0.0692
      3 C           6.3680   -0.3620    0.2239 C.ar    1  UNL1       -0.0221
      4 C           5.6318    0.5899    0.8901 C.ar    1  UNL1       -0.0558
      5 C           4.2404    0.6027    0.8059 C.ar    1  UNL1       -0.0537
      6 C           3.5587   -0.3300    0.0585 C.ar    1  UNL1       -0.0179
      7 C           2.1061   -0.3508   -0.0549 C.ar    1  UNL1       -0.0177
      8 C           1.4700   -0.8022   -1.1996 C.ar    1  UNL1       -0.0506
      9 C           0.0942   -0.7741   -1.1878 C.ar    1  UNL1       -0.0188
     10 C          -0.6500   -0.3307   -0.1207 C.ar    1  UNL1        0.1286
     11 O          -2.0328   -0.3069   -0.1197 O.3     1  UNL1       -0.4539
     12 C          -2.6759    0.8292   -0.5738 C.ar    1  UNL1        0.1546
     13 C          -1.9451    1.9011   -1.0128 C.ar    1  UNL1        0.0704
     14 N          -2.4385    3.0518   -1.4741 N.ar    1  UNL1       -0.2585
     15 C          -3.7722    3.1680   -1.5104 C.ar    1  UNL1        0.0421
     16 C          -4.5487    2.0996   -1.0725 C.ar    1  UNL1        0.0416
     17 S          -6.3331    1.8885   -0.9729 S.2     1  UNL1       -0.0835
     18 C          -6.3023    0.2641   -0.3166 C.ar    1  UNL1        0.0589
     19 C          -7.4693   -0.5636    0.0272 C.ar    1  UNL1        0.1860
     20 N          -8.7351   -0.1972   -0.1114 N.ar    1  UNL1       -0.1078
     21 N          -9.5015   -1.1767    0.2906 N.ar    1  UNL1       -0.0229
     22 N          -8.7354   -2.1818    0.6913 N.ar    1  UNL1       -0.0464
     23 N          -7.4794   -1.7998    0.5273 N.ar    1  UNL1       -0.2384
     24 C          -4.9556   -0.0207   -0.2122 C.ar    1  UNL1       -0.0325
     25 C          -4.0945    0.9268   -0.6020 C.ar    1  UNL1        0.0351
     26 C           0.0048    0.1106    0.9997 C.ar    1  UNL1       -0.0188
     27 C           1.3823    0.0946    1.0179 C.ar    1  UNL1       -0.0506
     28 C           4.3196   -1.2708   -0.5977 C.ar    1  UNL1       -0.0537
     29 C           5.6969   -1.2964   -0.5240 C.ar    1  UNL1       -0.0558
     30 H           7.6536   -1.9272    1.5317 H       1  UNL1        0.2098
     31 H           8.2080    0.6659    0.5302 H       1  UNL1        0.0607
     32 H           8.3226   -0.7809   -0.6071 H       1  UNL1        0.0607
     33 H           6.1494    1.3337    1.4844 H       1  UNL1        0.0621
     34 H           3.7001    1.3559    1.3359 H       1  UNL1        0.0624
     35 H           2.0616   -1.1433   -2.0195 H       1  UNL1        0.0625
     36 H          -0.4344   -1.1249   -2.0789 H       1  UNL1        0.0654
     37 H          -0.8523    1.8291   -0.9925 H       1  UNL1        0.0867
     38 H          -4.2647    4.0840   -1.8768 H       1  UNL1        0.0841
     39 H          -6.6230   -2.3665    0.7501 H       1  UNL1        0.1923
     40 H          -4.6952   -1.0291    0.1934 H       1  UNL1        0.0637
     41 H          -0.5426    0.4721    1.8723 H       1  UNL1        0.0654
     42 H           1.9164    0.4447    1.9075 H       1  UNL1        0.0625
     43 H           3.7823   -2.0155   -1.1940 H       1  UNL1        0.0624
     44 H           6.2870   -2.0496   -1.0506 H       1  UNL1        0.0621
@<TRIPOS>BOND
     1     1     2    1
     2     2     3    1
     3     3     4   ar
     4     4     5   ar
     5     5     6   ar
     6     6     7    1
     7     7     8   ar
     8     8     9   ar
     9     9    10   ar
    10    10    11    1
    11    11    12    1
    12    12    13   ar
    13    13    14   ar
    14    14    15   ar
    15    15    16   ar
    16    16    17   ar
    17    17    18   ar
    18    18    19    1
    19    19    20   ar
    20    20    21   ar
    21    21    22   ar
    22    22    23   ar
    23    18    24   ar
    24    24    25   ar
    25    10    26   ar
    26    26    27   ar
    27     6    28   ar
    28    28    29   ar
    29    29     3   ar
    30    27     7   ar
    31    25    12   ar
    32    25    16   ar
    33    23    19   ar
    34     1    30    1
    35     2    31    1
    36     2    32    1
    37     4    33    1
    38     5    34    1
    39     8    35    1
    40     9    36    1
    41    13    37    1
    42    15    38    1
    43    23    39    1
    44    24    40    1
    45    26    41    1
    46    27    42    1
    47    28    43    1
    48    29    44    1
