@<TRIPOS>MOLECULE
*****
 60 62 0 0 0
SMALL
GASTEIGER

@<TRIPOS>ATOM
      1 C           0.9202    1.6909    0.5742 C.3     1  UNL1       -0.0611
      2 C           0.7409    1.2495   -0.8872 C.3     1  UNL1       -0.0271
      3 C          -0.4123    0.3382   -0.8818 C.ar    1  UNL1       -0.0054
      4 C          -1.6413    0.8290   -1.3237 C.ar    1  UNL1       -0.0516
      5 C          -2.7807    0.0378   -1.3070 C.ar    1  UNL1       -0.0422
      6 C          -4.0188    0.6726   -1.8062 C.3     1  UNL1        0.0023
      7 C          -4.6336    1.4926   -0.7331 C.ar    1  UNL1        0.0146
      8 C          -4.4919    2.8864   -0.7522 C.ar    1  UNL1        0.0379
      9 N          -5.0302    3.6572    0.2075 N.ar    1  UNL1       -0.2227
     10 C          -5.7267    3.1333    1.2266 C.ar    1  UNL1        0.2142
     11 N          -6.2921    3.9751    2.2414 N.pl3   1  UNL1       -0.3274
     12 N          -5.8740    1.7988    1.2629 N.ar    1  UNL1       -0.1999
     13 C          -5.3483    0.9681    0.3142 C.ar    1  UNL1        0.1247
     14 N          -5.5404   -0.4294    0.4024 N.pl3   1  UNL1       -0.3428
     15 C          -2.6586   -1.2360   -0.8440 C.ar    1  UNL1       -0.0516
     16 C          -1.4582   -1.7687   -0.3945 C.ar    1  UNL1       -0.0054
     17 C          -1.4128   -3.1486    0.1066 C.3     1  UNL1       -0.0271
     18 C          -0.9220   -4.1774   -0.8503 C.3     1  UNL1       -0.0611
     19 C          -0.3245   -0.9441   -0.4252 C.ar    1  UNL1        0.1269
     20 O           0.8579   -1.4666    0.0180 O.3     1  UNL1       -0.4891
     21 C           1.8011   -2.0912   -0.8028 C.3     1  UNL1        0.1129
     22 C           2.9617   -2.6542   -0.0140 C.3     1  UNL1        0.0821
     23 O           3.6972   -1.7768    0.7014 O.3     1  UNL1       -0.3718
     24 C           4.3709   -0.8065    0.0089 C.3     1  UNL1        0.0728
     25 C           5.1833    0.0567    0.9000 C.ar    1  UNL1       -0.0219
     26 C           4.6783    1.2008    1.4599 C.ar    1  UNL1       -0.0564
     27 C           5.4724    1.9923    2.2980 C.ar    1  UNL1       -0.0614
     28 C           6.7715    1.6154    2.5598 C.ar    1  UNL1       -0.0617
     29 C           7.2938    0.4747    2.0090 C.ar    1  UNL1       -0.0614
     30 C           6.4880   -0.2841    1.1881 C.ar    1  UNL1       -0.0564
     31 H           1.3773    0.8560    1.1213 H       1  UNL1        0.0233
     32 H           1.4520    2.6395    0.6533 H       1  UNL1        0.0233
     33 H          -0.1076    1.8304    0.9942 H       1  UNL1        0.0233
     34 H           1.6658    0.8242   -1.2271 H       1  UNL1        0.0312
     35 H           0.5167    2.1718   -1.5099 H       1  UNL1        0.0312
     36 H          -1.6814    1.8559   -1.6845 H       1  UNL1        0.0624
     37 H          -4.6908   -0.1413   -2.1467 H       1  UNL1        0.0363
     38 H          -3.7559    1.3041   -2.6794 H       1  UNL1        0.0363
     39 H          -3.9219    3.2916   -1.5900 H       1  UNL1        0.0834
     40 H          -6.9925    4.7103    2.0140 H       1  UNL1        0.1452
     41 H          -5.9635    3.8140    3.2322 H       1  UNL1        0.1452
     42 H          -5.4017   -0.9078    1.3212 H       1  UNL1        0.1437
     43 H          -5.8185   -1.0384   -0.4022 H       1  UNL1        0.1437
     44 H          -3.5240   -1.8688   -0.8258 H       1  UNL1        0.0624
     45 H          -0.9119   -3.2155    1.1071 H       1  UNL1        0.0312
     46 H          -2.4822   -3.4426    0.3503 H       1  UNL1        0.0312
     47 H           0.0617   -4.5526   -0.4558 H       1  UNL1        0.0233
     48 H          -0.8165   -3.6887   -1.8478 H       1  UNL1        0.0233
     49 H          -1.6327   -5.0510   -0.9553 H       1  UNL1        0.0233
     50 H           1.3945   -2.8573   -1.4851 H       1  UNL1        0.0720
     51 H           2.2947   -1.3508   -1.5201 H       1  UNL1        0.0720
     52 H           3.6701   -3.1619   -0.7364 H       1  UNL1        0.0594
     53 H           2.5623   -3.5060    0.5867 H       1  UNL1        0.0594
     54 H           5.0637   -1.2804   -0.7521 H       1  UNL1        0.0610
     55 H           3.6833   -0.1865   -0.5910 H       1  UNL1        0.0610
     56 H           3.6791    1.5140    1.2736 H       1  UNL1        0.0621
     57 H           5.0527    2.8897    2.7279 H       1  UNL1        0.0618
     58 H           7.3363    2.2717    3.2178 H       1  UNL1        0.0618
     59 H           8.3142    0.1878    2.2214 H       1  UNL1        0.0618
     60 H           6.9060   -1.1973    0.7465 H       1  UNL1        0.0621
@<TRIPOS>BOND
     1     1     2    1
     2     2     3    1
     3     3     4   ar
     4     4     5   ar
     5     5     6    1
     6     6     7    1
     7     7     8   ar
     8     8     9   ar
     9     9    10   ar
    10    10    11    1
    11    10    12   ar
    12    12    13   ar
    13    13    14    1
    14     5    15   ar
    15    15    16   ar
    16    16    17    1
    17    17    18    1
    18    16    19   ar
    19    19    20    1
    20    20    21    1
    21    21    22    1
    22    22    23    1
    23    23    24    1
    24    24    25    1
    25    25    26   ar
    26    26    27   ar
    27    27    28   ar
    28    28    29   ar
    29    29    30   ar
    30    19     3   ar
    31    30    25   ar
    32    13     7   ar
    33     1    31    1
    34     1    32    1
    35     1    33    1
    36     2    34    1
    37     2    35    1
    38     4    36    1
    39     6    37    1
    40     6    38    1
    41     8    39    1
    42    11    40    1
    43    11    41    1
    44    14    42    1
    45    14    43    1
    46    15    44    1
    47    17    45    1
    48    17    46    1
    49    18    47    1
    50    18    48    1
    51    18    49    1
    52    21    50    1
    53    21    51    1
    54    22    52    1
    55    22    53    1
    56    24    54    1
    57    24    55    1
    58    26    56    1
    59    27    57    1
    60    28    58    1
    61    29    59    1
    62    30    60    1
