@<TRIPOS>MOLECULE
*****
 48 48 0 0 0
SMALL
GASTEIGER

@<TRIPOS>ATOM
      1 C           6.5159    0.2958    1.3818 C.3     1  UNL1       -0.0653
      2 C           4.9869    0.2712    1.2745 C.3     1  UNL1       -0.0559
      3 C           4.6308    0.6708   -0.1250 C.3     1  UNL1       -0.0533
      4 C           3.1730    0.7119   -0.4226 C.3     1  UNL1       -0.0531
      5 C           2.4545   -0.6088   -0.2451 C.3     1  UNL1       -0.0530
      6 C           1.0078   -0.3382   -0.5926 C.3     1  UNL1       -0.0519
      7 C           0.1220   -1.5480   -0.4874 C.3     1  UNL1       -0.0402
      8 C          -1.2805   -1.0560   -0.8816 C.3     1  UNL1       -0.0006
      9 N          -1.6582   -0.0419    0.0459 N.3     1  UNL1       -0.2923
     10 C          -1.9239   -0.5221    1.3651 C.3     1  UNL1        0.0279
     11 C          -3.4214   -0.4609    1.6839 C.3     1  UNL1        0.0962
     12 O          -3.6637   -1.4314    2.6644 O.3     1  UNL1       -0.3879
     13 C          -4.2547   -0.7765    0.4750 C.3     1  UNL1        0.1095
     14 O          -5.5995   -0.6256    0.8894 O.3     1  UNL1       -0.3866
     15 C          -3.9973    0.1891   -0.6442 C.3     1  UNL1        0.1011
     16 O          -4.0304   -0.4680   -1.8732 O.3     1  UNL1       -0.3875
     17 C          -2.6711    0.8658   -0.3879 C.3     1  UNL1        0.0621
     18 C          -2.2298    1.7664   -1.5117 C.3     1  UNL1        0.0622
     19 O          -1.1251    2.5394   -1.0864 O.3     1  UNL1       -0.3934
     20 H           6.8180    1.1978    0.7732 H       1  UNL1        0.0230
     21 H           6.9506   -0.5725    0.8570 H       1  UNL1        0.0230
     22 H           6.8648    0.4356    2.4105 H       1  UNL1        0.0230
     23 H           4.5460    0.9183    2.0333 H       1  UNL1        0.0263
     24 H           4.6897   -0.8076    1.3841 H       1  UNL1        0.0263
     25 H           5.1226    0.0346   -0.8897 H       1  UNL1        0.0265
     26 H           5.0257    1.7076   -0.3080 H       1  UNL1        0.0265
     27 H           3.0727    0.9771   -1.5080 H       1  UNL1        0.0265
     28 H           2.6111    1.5001    0.1189 H       1  UNL1        0.0265
     29 H           2.9098   -1.4013   -0.8481 H       1  UNL1        0.0265
     30 H           2.5307   -0.9363    0.8319 H       1  UNL1        0.0265
     31 H           0.6406    0.4241    0.1130 H       1  UNL1        0.0266
     32 H           0.9900   -0.0024   -1.6427 H       1  UNL1        0.0266
     33 H           0.4738   -2.3531   -1.1428 H       1  UNL1        0.0278
     34 H           0.1399   -1.9337    0.5479 H       1  UNL1        0.0278
     35 H          -1.9395   -1.9581   -0.8206 H       1  UNL1        0.0427
     36 H          -1.2781   -0.7183   -1.9190 H       1  UNL1        0.0427
     37 H          -1.6197   -1.5723    1.5029 H       1  UNL1        0.0453
     38 H          -1.3582    0.1491    2.0678 H       1  UNL1        0.0453
     39 H          -3.6686    0.5344    2.0957 H       1  UNL1        0.0633
     40 H          -2.8827   -1.5748    3.2410 H       1  UNL1        0.2099
     41 H          -4.1402   -1.8315    0.1817 H       1  UNL1        0.0646
     42 H          -6.1666   -0.7494    0.0763 H       1  UNL1        0.2100
     43 H          -4.7821    0.9717   -0.6455 H       1  UNL1        0.0636
     44 H          -3.5004   -0.0107   -2.5771 H       1  UNL1        0.2100
     45 H          -2.8614    1.5450    0.4983 H       1  UNL1        0.0511
     46 H          -3.0314    2.4910   -1.7567 H       1  UNL1        0.0573
     47 H          -1.8728    1.1994   -2.4052 H       1  UNL1        0.0573
     48 H          -1.3199    2.9031   -0.1914 H       1  UNL1        0.2095
@<TRIPOS>BOND
     1     1     2    1
     2     2     3    1
     3     3     4    1
     4     4     5    1
     5     5     6    1
     6     6     7    1
     7     7     8    1
     8     8     9    1
     9     9    10    1
    10    10    11    1
    11    11    12    1
    12    11    13    1
    13    13    14    1
    14    13    15    1
    15    15    16    1
    16    15    17    1
    17    17    18    1
    18    18    19    1
    19    17     9    1
    20     1    20    1
    21     1    21    1
    22     1    22    1
    23     2    23    1
    24     2    24    1
    25     3    25    1
    26     3    26    1
    27     4    27    1
    28     4    28    1
    29     5    29    1
    30     5    30    1
    31     6    31    1
    32     6    32    1
    33     7    33    1
    34     7    34    1
    35     8    35    1
    36     8    36    1
    37    10    37    1
    38    10    38    1
    39    11    39    1
    40    12    40    1
    41    13    41    1
    42    14    42    1
    43    15    43    1
    44    16    44    1
    45    17    45    1
    46    18    46    1
    47    18    47    1
    48    19    48    1
