@<TRIPOS>MOLECULE
*****
 80 84 0 0 0
SMALL
GASTEIGER

@<TRIPOS>ATOM
      1 O           5.3982    2.1672   -1.3781 O.2     1  UNL1       -0.2668
      2 C           5.4789    0.9209   -1.1252 C.2     1  UNL1        0.2795
      3 N           4.4269    0.0973   -1.5677 N.am    1  UNL1       -0.3088
      4 C           3.2489    0.5232   -2.2859 C.3     1  UNL1        0.0120
      5 C           2.4448    1.4936   -1.4993 C.3     1  UNL1       -0.0374
      6 C           1.9692    1.1173   -0.1761 C.3     1  UNL1       -0.0516
      7 C           1.0332    0.0099    0.0865 C.3     1  UNL1       -0.0530
      8 C           1.3983   -1.3663   -0.2573 C.3     1  UNL1       -0.0531
      9 C           0.4768   -2.4796    0.0874 C.3     1  UNL1       -0.0531
     10 C          -0.8416   -2.6412   -0.5339 C.3     1  UNL1       -0.0530
     11 C          -1.8793   -1.5961   -0.4267 C.3     1  UNL1       -0.0516
     12 C          -3.1393   -2.2139   -1.1158 C.3     1  UNL1       -0.0375
     13 C          -4.2379   -1.2017   -1.0434 C.3     1  UNL1        0.0091
     14 N          -4.5955   -0.8373    0.3052 N.pl3   1  UNL1       -0.3431
     15 C          -5.6358    0.0954    0.4782 C.ar    1  UNL1        0.0413
     16 C          -6.9266   -0.3256    0.6038 C.ar    1  UNL1       -0.0047
     17 C          -7.9831    0.5675    0.7703 C.ar    1  UNL1        0.0469
     18 N          -7.6896    1.8725    0.8041 N.ar    1  UNL1       -0.2512
     19 C          -6.4292    2.3452    0.6847 C.ar    1  UNL1        0.0744
     20 C          -6.2287    3.7046    0.7317 C.ar    1  UNL1       -0.0173
     21 C          -4.9360    4.1630    0.6075 C.ar    1  UNL1        0.0430
     22 CL         -4.6276    5.8943    0.6607 Cl      1  UNL1       -0.0835
     23 C          -3.8708    3.3021    0.4417 C.ar    1  UNL1       -0.0426
     24 C          -4.0925    1.9531    0.3976 C.ar    1  UNL1       -0.0494
     25 C          -5.3716    1.4410    0.5174 C.ar    1  UNL1        0.0216
     26 C          -9.3672    0.0436    0.9007 C.3     1  UNL1       -0.0101
     27 C          -9.5296   -1.0097   -0.1748 C.3     1  UNL1       -0.0473
     28 C          -8.5298   -2.1149   -0.0889 C.3     1  UNL1       -0.0486
     29 C          -7.2402   -1.7647    0.5727 C.3     1  UNL1       -0.0242
     30 C           6.6508    0.4448   -0.3989 C.ar    1  UNL1        0.1934
     31 C           6.8497   -0.8614   -0.0804 C.ar    1  UNL1        0.0333
     32 C           7.9919   -1.2740    0.6192 C.ar    1  UNL1        0.1933
     33 O           8.1818   -2.4790    0.9168 O.2     1  UNL1       -0.2870
     34 C           8.9263   -0.3311    0.9876 C.ar    1  UNL1        0.0677
     35 C          10.0710   -0.6704    1.6770 C.ar    1  UNL1       -0.0022
     36 C          10.9831    0.2969    2.0291 C.ar    1  UNL1        0.1591
     37 O          12.1128   -0.0666    2.7139 O.3     1  UNL1       -0.5033
     38 C          10.7080    1.6094    1.6675 C.ar    1  UNL1        0.1618
     39 O          11.6246    2.5964    2.0191 O.3     1  UNL1       -0.5032
     40 C           9.5734    1.9537    0.9829 C.ar    1  UNL1        0.0265
     41 C           8.6615    0.9937    0.6296 C.ar    1  UNL1        0.1432
     42 O           7.5763    1.3023   -0.0218 O.2     1  UNL1       -0.4499
     43 H           4.5271   -0.9389   -1.3407 H       1  UNL1        0.1491
     44 H           3.5972    1.1114   -3.2218 H       1  UNL1        0.0462
     45 H           2.7599   -0.3325   -2.7312 H       1  UNL1        0.0462
     46 H           1.6254    1.9549   -2.1457 H       1  UNL1        0.0280
     47 H           3.1240    2.4053   -1.3634 H       1  UNL1        0.0280
     48 H           1.5043    2.0296    0.3620 H       1  UNL1        0.0266
     49 H           2.9047    0.9865    0.4971 H       1  UNL1        0.0266
     50 H           0.9220    0.0100    1.2450 H       1  UNL1        0.0265
     51 H          -0.0061    0.3217   -0.2034 H       1  UNL1        0.0265
     52 H           1.4811   -1.4102   -1.4025 H       1  UNL1        0.0265
     53 H           2.4289   -1.6588    0.0611 H       1  UNL1        0.0265
     54 H           0.3796   -2.4331    1.2425 H       1  UNL1        0.0265
     55 H           1.0268   -3.4785   -0.1087 H       1  UNL1        0.0265
     56 H          -1.3048   -3.5975   -0.0807 H       1  UNL1        0.0265
     57 H          -0.6956   -2.9332   -1.6355 H       1  UNL1        0.0265
     58 H          -2.1992   -1.2985    0.5699 H       1  UNL1        0.0266
     59 H          -1.6639   -0.6685   -1.0129 H       1  UNL1        0.0266
     60 H          -3.3506   -3.1362   -0.5394 H       1  UNL1        0.0280
     61 H          -2.8603   -2.3748   -2.1560 H       1  UNL1        0.0280
     62 H          -5.0991   -1.5789   -1.6364 H       1  UNL1        0.0461
     63 H          -3.8647   -0.2992   -1.6050 H       1  UNL1        0.0461
     64 H          -4.1294   -1.2258    1.1649 H       1  UNL1        0.1461
     65 H          -7.0092    4.4375    0.8584 H       1  UNL1        0.0653
     66 H          -2.8730    3.7056    0.3485 H       1  UNL1        0.0632
     67 H          -3.2458    1.2627    0.2652 H       1  UNL1        0.0625
     68 H          -9.5287   -0.3790    1.9143 H       1  UNL1        0.0328
     69 H         -10.1018    0.8468    0.6710 H       1  UNL1        0.0328
     70 H         -10.5538   -1.4359   -0.1435 H       1  UNL1        0.0269
     71 H          -9.3955   -0.4579   -1.1511 H       1  UNL1        0.0269
     72 H          -8.2977   -2.4438   -1.1284 H       1  UNL1        0.0269
     73 H          -9.0165   -2.9873    0.4169 H       1  UNL1        0.0269
     74 H          -6.4076   -2.3870    0.1908 H       1  UNL1        0.0314
     75 H          -7.3320   -2.0723    1.6579 H       1  UNL1        0.0314
     76 H           6.1354   -1.6253   -0.3552 H       1  UNL1        0.0695
     77 H          10.2732   -1.7156    1.9553 H       1  UNL1        0.0663
     78 H          12.9655   -0.3648    2.2650 H       1  UNL1        0.2923
     79 H          11.2501    3.5119    2.2318 H       1  UNL1        0.2923
     80 H           9.3960    2.9742    0.7231 H       1  UNL1        0.0692
@<TRIPOS>BOND
     1     1     2    2
     2     2     3   am
     3     3     4    1
     4     4     5    1
     5     5     6    1
     6     6     7    1
     7     7     8    1
     8     8     9    1
     9     9    10    1
    10    10    11    1
    11    11    12    1
    12    12    13    1
    13    13    14    1
    14    14    15    1
    15    15    16   ar
    16    16    17   ar
    17    17    18   ar
    18    18    19   ar
    19    19    20   ar
    20    20    21   ar
    21    21    22    1
    22    21    23   ar
    23    23    24   ar
    24    24    25   ar
    25    17    26    1
    26    26    27    1
    27    27    28    1
    28    28    29    1
    29     2    30    1
    30    30    31   ar
    31    31    32   ar
    32    32    33    2
    33    32    34   ar
    34    34    35   ar
    35    35    36   ar
    36    36    37    1
    37    36    38   ar
    38    38    39    1
    39    38    40   ar
    40    40    41   ar
    41    41    42   ar
    42    25    15   ar
    43    42    30   ar
    44    29    16    1
    45    41    34   ar
    46    25    19   ar
    47     3    43    1
    48     4    44    1
    49     4    45    1
    50     5    46    1
    51     5    47    1
    52     6    48    1
    53     6    49    1
    54     7    50    1
    55     7    51    1
    56     8    52    1
    57     8    53    1
    58     9    54    1
    59     9    55    1
    60    10    56    1
    61    10    57    1
    62    11    58    1
    63    11    59    1
    64    12    60    1
    65    12    61    1
    66    13    62    1
    67    13    63    1
    68    14    64    1
    69    20    65    1
    70    23    66    1
    71    24    67    1
    72    26    68    1
    73    26    69    1
    74    27    70    1
    75    27    71    1
    76    28    72    1
    77    28    73    1
    78    29    74    1
    79    29    75    1
    80    31    76    1
    81    35    77    1
    82    37    78    1
    83    39    79    1
    84    40    80    1
