@<TRIPOS>MOLECULE
*****
 43 45 0 0 0
SMALL
GASTEIGER

@<TRIPOS>ATOM
      1 C           0.9514   -2.2473    0.5050 C.3     1  UNL1       -0.0224
      2 C           0.1852   -3.3416    1.1547 C.3     1  UNL1       -0.0606
      3 C           1.4008   -1.1384    1.4004 C.3     1  UNL1       -0.0328
      4 C           2.4604   -0.3373    0.6913 C.3     1  UNL1        0.0151
      5 N           2.0285    0.1555   -0.5918 N.am    1  UNL1       -0.2989
      6 C           1.5592   -0.9247   -1.3944 C.3     1  UNL1        0.0335
      7 C           0.4031   -1.7000   -0.7592 C.3     1  UNL1        0.0429
      8 N          -0.7221   -0.8381   -0.7104 N.pl3   1  UNL1       -0.3128
      9 C          -0.9611   -0.3265   -2.0736 C.3     1  UNL1        0.0024
     10 C          -1.6127   -0.4790    0.3679 C.ar    1  UNL1        0.1338
     11 N          -1.9401   -1.3062    1.3729 N.ar    1  UNL1       -0.2200
     12 C          -2.7793   -1.0571    2.3661 C.ar    1  UNL1        0.1204
     13 N          -3.3872    0.1467    2.4025 N.ar    1  UNL1       -0.2178
     14 C          -3.1326    1.0620    1.4408 C.ar    1  UNL1        0.1432
     15 C          -2.2495    0.7387    0.4366 C.ar    1  UNL1        0.0585
     16 C          -2.2087    1.8678   -0.3493 C.ar    1  UNL1       -0.0318
     17 C          -3.0407    2.8404    0.1623 C.ar    1  UNL1        0.0042
     18 N          -3.5973    2.3127    1.2678 N.ar    1  UNL1       -0.3457
     19 C           2.0895    1.5521   -0.9476 C.2     1  UNL1        0.2295
     20 O           1.7936    2.2406   -1.9554 O.2     1  UNL1       -0.2745
     21 C           2.6173    2.4789    0.0602 C.3     1  UNL1        0.1112
     22 C           2.6029    3.8534   -0.4803 C.1     1  UNL1        0.0719
     23 N           2.5939    4.9408   -0.9265 N.1     1  UNL1       -0.1961
     24 H           1.9391   -2.7421    0.1835 H       1  UNL1        0.0317
     25 H          -0.6984   -3.6428    0.5506 H       1  UNL1        0.0233
     26 H          -0.0675   -3.1533    2.2366 H       1  UNL1        0.0233
     27 H           0.7860   -4.3006    1.2212 H       1  UNL1        0.0233
     28 H           0.6398   -0.5047    1.8316 H       1  UNL1        0.0284
     29 H           1.9088   -1.6417    2.2757 H       1  UNL1        0.0284
     30 H           3.3172   -1.0151    0.4976 H       1  UNL1        0.0465
     31 H           2.8240    0.4859    1.3401 H       1  UNL1        0.0465
     32 H           2.3986   -1.6800   -1.4641 H       1  UNL1        0.0483
     33 H           1.3441   -0.6719   -2.4502 H       1  UNL1        0.0483
     34 H           0.1750   -2.5011   -1.5128 H       1  UNL1        0.0518
     35 H          -2.0117   -0.0060   -2.2167 H       1  UNL1        0.0428
     36 H          -0.8477   -1.1782   -2.8171 H       1  UNL1        0.0428
     37 H          -0.3019    0.5022   -2.3412 H       1  UNL1        0.0428
     38 H          -2.9937   -1.7835    3.1472 H       1  UNL1        0.1048
     39 H          -1.6469    2.0648   -1.2312 H       1  UNL1        0.0640
     40 H          -3.2333    3.8345   -0.2175 H       1  UNL1        0.0807
     41 H          -4.2811    2.7978    1.8915 H       1  UNL1        0.1668
     42 H           3.6706    2.1908    0.2741 H       1  UNL1        0.0513
     43 H           2.0247    2.4517    1.0056 H       1  UNL1        0.0513
@<TRIPOS>BOND
     1     1     2    1
     2     1     3    1
     3     3     4    1
     4     4     5    1
     5     5     6    1
     6     6     7    1
     7     7     8    1
     8     8     9    1
     9     8    10    1
    10    10    11   ar
    11    11    12   ar
    12    12    13   ar
    13    13    14   ar
    14    14    15   ar
    15    15    16   ar
    16    16    17   ar
    17    17    18   ar
    18     5    19   am
    19    19    20    2
    20    19    21    1
    21    21    22    1
    22    22    23    3
    23     7     1    1
    24    15    10   ar
    25    18    14   ar
    26     1    24    1
    27     2    25    1
    28     2    26    1
    29     2    27    1
    30     3    28    1
    31     3    29    1
    32     4    30    1
    33     4    31    1
    34     6    32    1
    35     6    33    1
    36     7    34    1
    37     9    35    1
    38     9    36    1
    39     9    37    1
    40    12    38    1
    41    16    39    1
    42    17    40    1
    43    18    41    1
    44    21    42    1
    45    21    43    1
