
     RDKit          3D

 67 70  0  0  0  0  0  0  0  0999 V2000
   -5.0889   -0.6144   -1.9480 C   0  0  0  0  0  0  0  0  0  0  0  0
   -3.7106   -0.4671   -2.4374 N   0  0  0  0  0  0  0  0  0  0  0  0
   -3.7252   -0.6266   -3.9050 C   0  0  0  0  0  0  0  0  0  0  0  0
   -2.4388   -0.2105   -1.8347 C   0  0  0  0  0  0  0  0  0  0  0  0
   -1.4330   -0.1661   -2.6359 O   0  0  0  0  0  0  0  0  0  0  0  0
   -2.1521    0.0085   -0.3897 C   0  0  0  0  0  0  0  0  0  0  0  0
   -0.6368   -0.0394   -0.2457 C   0  0  0  0  0  0  0  0  0  0  0  0
   -0.1703    0.1670    1.1728 C   0  0  0  0  0  0  0  0  0  0  0  0
    1.2469    0.1318    1.1838 N   0  0  0  0  0  0  0  0  0  0  0  0
    1.9621    1.1870    0.5730 C   0  0  0  0  0  0  0  0  0  0  0  0
    3.3247    1.2548    1.2893 C   0  0  0  0  0  0  0  0  0  0  0  0
    4.0882    0.0120    0.9884 C   0  0  0  0  0  0  0  0  0  0  0  0
    4.6344   -0.4252    2.2206 O   0  0  0  0  0  0  0  0  0  0  0  0
    3.1672   -1.1333    0.5574 C   0  0  0  0  0  0  0  0  0  0  0  0
    1.9124   -1.0739    1.4190 C   0  0  0  0  0  0  0  0  0  0  0  0
    5.2093    0.1508    0.0614 C   0  0  0  0  0  0  0  0  0  0  0  0
    5.8492   -1.0626   -0.1965 C   0  0  0  0  0  0  0  0  0  0  0  0
    6.9454   -1.0809   -1.0669 C   0  0  0  0  0  0  0  0  0  0  0  0
    7.4130    0.0690   -1.6785 C   0  0  0  0  0  0  0  0  0  0  0  0
    8.7758    0.0890   -2.7696 Cl  0  0  0  0  0  0  0  0  0  0  0  0
    6.7920    1.2783   -1.4350 C   0  0  0  0  0  0  0  0  0  0  0  0
    5.7192    1.2490   -0.5733 C   0  0  0  0  0  0  0  0  0  0  0  0
   -2.6499   -1.1364    0.4316 C   0  0  0  0  0  0  0  0  0  0  0  0
   -2.8777   -2.4308    0.0094 C   0  0  0  0  0  0  0  0  0  0  0  0
   -3.3454   -3.3951    0.8746 C   0  0  0  0  0  0  0  0  0  0  0  0
   -3.6084   -3.1180    2.1986 C   0  0  0  0  0  0  0  0  0  0  0  0
   -3.3901   -1.8343    2.6466 C   0  0  0  0  0  0  0  0  0  0  0  0
   -2.9226   -0.8907    1.7621 C   0  0  0  0  0  0  0  0  0  0  0  0
   -2.6886    1.3123    0.0479 C   0  0  0  0  0  0  0  0  0  0  0  0
   -1.7950    2.3786   -0.1151 C   0  0  0  0  0  0  0  0  0  0  0  0
   -2.1116    3.6701    0.2485 C   0  0  0  0  0  0  0  0  0  0  0  0
   -3.3479    3.9638    0.7981 C   0  0  0  0  0  0  0  0  0  0  0  0
   -4.2560    2.9226    0.9714 C   0  0  0  0  0  0  0  0  0  0  0  0
   -3.8960    1.6501    0.5937 C   0  0  0  0  0  0  0  0  0  0  0  0
   -5.5179   -1.5146   -2.4716 H   0  0  0  0  0  0  0  0  0  0  0  0
   -5.7006    0.2711   -2.1296 H   0  0  0  0  0  0  0  0  0  0  0  0
   -5.1227   -0.8354   -0.8561 H   0  0  0  0  0  0  0  0  0  0  0  0
   -2.7157   -0.5296   -4.3396 H   0  0  0  0  0  0  0  0  0  0  0  0
   -4.4314    0.1229   -4.3115 H   0  0  0  0  0  0  0  0  0  0  0  0
   -4.1886   -1.6183   -4.1417 H   0  0  0  0  0  0  0  0  0  0  0  0
   -0.3791   -1.1207   -0.4722 H   0  0  0  0  0  0  0  0  0  0  0  0
   -0.0982    0.5324   -0.9982 H   0  0  0  0  0  0  0  0  0  0  0  0
   -0.6211    1.0337    1.6671 H   0  0  0  0  0  0  0  0  0  0  0  0
   -0.5154   -0.7322    1.7630 H   0  0  0  0  0  0  0  0  0  0  0  0
    2.1910    0.9188   -0.4769 H   0  0  0  0  0  0  0  0  0  0  0  0
    1.4471    2.1472    0.6702 H   0  0  0  0  0  0  0  0  0  0  0  0
    3.8557    2.1827    1.1098 H   0  0  0  0  0  0  0  0  0  0  0  0
    3.0341    1.2899    2.3827 H   0  0  0  0  0  0  0  0  0  0  0  0
    4.8350   -1.3785    2.2271 H   0  0  0  0  0  0  0  0  0  0  0  0
    3.6639   -2.1250    0.7226 H   0  0  0  0  0  0  0  0  0  0  0  0
    2.8906   -0.9845   -0.5055 H   0  0  0  0  0  0  0  0  0  0  0  0
    2.1929   -1.2965    2.4745 H   0  0  0  0  0  0  0  0  0  0  0  0
    1.2367   -1.9136    1.1121 H   0  0  0  0  0  0  0  0  0  0  0  0
    5.6382   -2.0752    0.1818 H   0  0  0  0  0  0  0  0  0  0  0  0
    7.5071   -1.9872   -1.3278 H   0  0  0  0  0  0  0  0  0  0  0  0
    7.0777    2.2441   -1.8620 H   0  0  0  0  0  0  0  0  0  0  0  0
    5.2088    2.1747   -0.3596 H   0  0  0  0  0  0  0  0  0  0  0  0
   -2.6645   -2.6186   -1.0333 H   0  0  0  0  0  0  0  0  0  0  0  0
   -3.5131   -4.3992    0.5101 H   0  0  0  0  0  0  0  0  0  0  0  0
   -3.9772   -3.8377    2.9238 H   0  0  0  0  0  0  0  0  0  0  0  0
   -3.5855   -1.5683    3.6935 H   0  0  0  0  0  0  0  0  0  0  0  0
   -2.7716    0.1018    2.1743 H   0  0  0  0  0  0  0  0  0  0  0  0
   -0.7809    2.3725   -0.5247 H   0  0  0  0  0  0  0  0  0  0  0  0
   -1.4943    4.5443    0.1615 H   0  0  0  0  0  0  0  0  0  0  0  0
   -3.6780    4.9446    1.1105 H   0  0  0  0  0  0  0  0  0  0  0  0
   -5.2459    3.0413    1.3897 H   0  0  0  0  0  0  0  0  0  0  0  0
   -4.5711    0.8235    0.7187 H   0  0  0  0  0  0  0  0  0  0  0  0
  1  2  1  0
  2  3  1  0
  2  4  1  0
  4  5  2  0
  4  6  1  0
  6  7  1  0
  7  8  1  0
  8  9  1  0
  9 10  1  0
 10 11  1  0
 11 12  1  0
 12 13  1  0
 12 14  1  0
 14 15  1  0
 12 16  1  0
 16 17  2  0
 17 18  1  0
 18 19  2  0
 19 20  1  0
 19 21  1  0
 21 22  2  0
  6 23  1  0
 23 24  2  0
 24 25  1  0
 25 26  2  0
 26 27  1  0
 27 28  2  0
  6 29  1  0
 29 30  2  0
 30 31  1  0
 31 32  2  0
 32 33  1  0
 33 34  2  0
 15  9  1  0
 22 16  1  0
 28 23  1  0
 34 29  1  0
  1 35  1  0
  1 36  1  0
  1 37  1  0
  3 38  1  0
  3 39  1  0
  3 40  1  0
  7 41  1  0
  7 42  1  0
  8 43  1  0
  8 44  1  0
 10 45  1  0
 10 46  1  0
 11 47  1  0
 11 48  1  0
 13 49  1  0
 14 50  1  0
 14 51  1  0
 15 52  1  0
 15 53  1  0
 17 54  1  0
 18 55  1  0
 21 56  1  0
 22 57  1  0
 24 58  1  0
 25 59  1  0
 26 60  1  0
 27 61  1  0
 28 62  1  0
 30 63  1  0
 31 64  1  0
 32 65  1  0
 33 66  1  0
 34 67  1  0
M  END
$$$$
