
     RDKit          3D

 37 40  0  0  0  0  0  0  0  0999 V2000
   -0.4335   -1.1837   -0.1229 O   0  0  0  0  0  0  0  0  0  0  0  0
   -0.0259   -0.0704   -0.5342 C   0  0  0  0  0  0  0  0  0  0  0  0
   -1.0090    0.8295   -1.1895 C   0  0  0  0  0  0  0  0  0  0  0  0
   -2.3626    0.2225   -1.1952 C   0  0  0  0  0  0  0  0  0  0  0  0
   -2.9373   -0.3747   -2.3014 C   0  0  0  0  0  0  0  0  0  0  0  0
   -4.1956   -0.9318   -2.2813 C   0  0  0  0  0  0  0  0  0  0  0  0
   -4.9405   -0.9127   -1.1317 C   0  0  0  0  0  0  0  0  0  0  0  0
   -4.4072   -0.3253    0.0055 C   0  0  0  0  0  0  0  0  0  0  0  0
   -5.1839   -0.3220    1.1472 C   0  0  0  0  0  0  0  0  0  0  0  0
   -4.6639    0.2523    2.2584 N   0  0  0  0  0  0  0  0  0  0  0  0
   -3.4234    0.8022    2.2370 C   0  0  0  0  0  0  0  0  0  0  0  0
   -2.6482    0.8005    1.1029 C   0  0  0  0  0  0  0  0  0  0  0  0
   -3.1517    0.2250   -0.0335 C   0  0  0  0  0  0  0  0  0  0  0  0
    1.3437    0.3064   -0.3707 N   0  0  0  0  0  0  0  0  0  0  0  0
    2.2207   -0.6114    0.2596 C   0  0  0  0  0  0  0  0  0  0  0  0
    1.7042   -2.2508    0.8309 S   0  0  0  0  0  0  0  0  0  0  0  0
    3.2827   -2.7180    1.4467 C   0  0  0  0  0  0  0  0  0  0  0  0
    4.0972   -1.6241    1.1895 C   0  0  0  0  0  0  0  0  0  0  0  0
    5.8157   -1.7930    1.7110 Cl  0  0  0  0  0  0  0  0  0  0  0  0
    3.5433   -0.5695    0.5893 C   0  0  0  0  0  0  0  0  0  0  0  0
    4.3209    0.6758    0.2607 C   0  0  0  0  0  0  0  0  0  0  0  0
    3.8144    1.7736   -0.3405 N   0  0  0  0  0  0  0  0  0  0  0  0
    4.7669    2.6751   -0.4753 N   0  0  0  0  0  0  0  0  0  0  0  0
    5.9151    2.2033    0.0268 C   0  0  0  0  0  0  0  0  0  0  0  0
    5.6058    0.9470    0.4822 N   0  0  0  0  0  0  0  0  0  0  0  0
   -0.9995    1.8187   -0.7379 H   0  0  0  0  0  0  0  0  0  0  0  0
   -0.7128    0.9227   -2.2727 H   0  0  0  0  0  0  0  0  0  0  0  0
   -2.3335   -0.3862   -3.2237 H   0  0  0  0  0  0  0  0  0  0  0  0
   -4.5907   -1.3795   -3.1666 H   0  0  0  0  0  0  0  0  0  0  0  0
   -5.9378   -1.3399   -1.0707 H   0  0  0  0  0  0  0  0  0  0  0  0
   -6.1876   -0.7645    1.1711 H   0  0  0  0  0  0  0  0  0  0  0  0
   -3.0007    1.2683    3.1381 H   0  0  0  0  0  0  0  0  0  0  0  0
   -1.6534    1.2420    1.0909 H   0  0  0  0  0  0  0  0  0  0  0  0
    1.6052    1.2242   -0.7228 H   0  0  0  0  0  0  0  0  0  0  0  0
    3.5338   -3.6697    1.9220 H   0  0  0  0  0  0  0  0  0  0  0  0
    6.8895    2.6828    0.0793 H   0  0  0  0  0  0  0  0  0  0  0  0
    6.3396    0.3552    0.9281 H   0  0  0  0  0  0  0  0  0  0  0  0
  1  2  2  0
  2  3  1  0
  3  4  1  0
  4  5  2  0
  5  6  1  0
  6  7  2  0
  7  8  1  0
  8  9  2  0
  9 10  1  0
 10 11  2  0
 11 12  1  0
 12 13  2  0
  2 14  1  0
 14 15  1  0
 15 16  1  0
 16 17  1  0
 17 18  2  0
 18 19  1  0
 18 20  1  0
 20 21  1  0
 21 22  2  0
 22 23  1  0
 23 24  2  0
 24 25  1  0
 13  4  1  0
 20 15  2  0
 25 21  1  0
 13  8  1  0
  3 26  1  0
  3 27  1  0
  5 28  1  0
  6 29  1  0
  7 30  1  0
  9 31  1  0
 11 32  1  0
 12 33  1  0
 14 34  1  0
 17 35  1  0
 24 36  1  0
 25 37  1  0
M  END
$$$$
