@<TRIPOS>MOLECULE
*****
 37 40 0 0 0
SMALL
GASTEIGER

@<TRIPOS>ATOM
      1 O          -0.4335   -1.1837   -0.1229 O.2     1  UNL1       -0.2751
      2 C          -0.0259   -0.0704   -0.5342 C.2     1  UNL1        0.2219
      3 C          -1.0090    0.8295   -1.1895 C.3     1  UNL1        0.0500
      4 C          -2.3626    0.2225   -1.1952 C.ar    1  UNL1       -0.0308
      5 C          -2.9373   -0.3747   -2.3014 C.ar    1  UNL1       -0.0575
      6 C          -4.1956   -0.9318   -2.2813 C.ar    1  UNL1       -0.0609
      7 C          -4.9405   -0.9127   -1.1317 C.ar    1  UNL1       -0.0526
      8 C          -4.4072   -0.3253    0.0055 C.ar    1  UNL1        0.0005
      9 C          -5.1839   -0.3220    1.1472 C.ar    1  UNL1        0.0353
     10 N          -4.6639    0.2523    2.2584 N.ar    1  UNL1       -0.2626
     11 C          -3.4234    0.8022    2.2370 C.ar    1  UNL1        0.0282
     12 C          -2.6482    0.8005    1.1029 C.ar    1  UNL1       -0.0356
     13 C          -3.1517    0.2250   -0.0335 C.ar    1  UNL1       -0.0114
     14 N           1.3437    0.3064   -0.3707 N.am    1  UNL1       -0.2791
     15 C           2.2207   -0.6114    0.2596 C.ar    1  UNL1        0.0839
     16 S           1.7042   -2.2508    0.8309 S.2     1  UNL1       -0.0797
     17 C           3.2827   -2.7180    1.4467 C.ar    1  UNL1       -0.0035
     18 C           4.0972   -1.6241    1.1895 C.ar    1  UNL1        0.0605
     19 CL          5.8157   -1.7930    1.7110 Cl      1  UNL1       -0.0822
     20 C           3.5433   -0.5695    0.5893 C.ar    1  UNL1        0.0658
     21 C           4.3209    0.6758    0.2607 C.ar    1  UNL1        0.1652
     22 N           3.8144    1.7736   -0.3405 N.ar    1  UNL1       -0.1295
     23 N           4.7669    2.6751   -0.4753 N.ar    1  UNL1       -0.1377
     24 C           5.9151    2.2033    0.0268 C.ar    1  UNL1        0.1175
     25 N           5.6058    0.9470    0.4822 N.ar    1  UNL1       -0.3276
     26 H          -0.9995    1.8187   -0.7379 H       1  UNL1        0.0407
     27 H          -0.7128    0.9227   -2.2727 H       1  UNL1        0.0407
     28 H          -2.3335   -0.3862   -3.2237 H       1  UNL1        0.0621
     29 H          -4.5907   -1.3795   -3.1666 H       1  UNL1        0.0618
     30 H          -5.9378   -1.3399   -1.0707 H       1  UNL1        0.0624
     31 H          -6.1876   -0.7645    1.1711 H       1  UNL1        0.0836
     32 H          -3.0007    1.2683    3.1381 H       1  UNL1        0.0830
     33 H          -1.6534    1.2420    1.0909 H       1  UNL1        0.0639
     34 H           1.6052    1.2242   -0.7228 H       1  UNL1        0.1553
     35 H           3.5338   -3.6697    1.9220 H       1  UNL1        0.0709
     36 H           6.8895    2.6828    0.0793 H       1  UNL1        0.1046
     37 H           6.3396    0.3552    0.9281 H       1  UNL1        0.1683
@<TRIPOS>BOND
     1     1     2    2
     2     2     3    1
     3     3     4    1
     4     4     5   ar
     5     5     6   ar
     6     6     7   ar
     7     7     8   ar
     8     8     9   ar
     9     9    10   ar
    10    10    11   ar
    11    11    12   ar
    12    12    13   ar
    13     2    14   am
    14    14    15    1
    15    15    16   ar
    16    16    17   ar
    17    17    18   ar
    18    18    19    1
    19    18    20   ar
    20    20    21    1
    21    21    22   ar
    22    22    23   ar
    23    23    24   ar
    24    24    25   ar
    25    13     4   ar
    26    20    15   ar
    27    25    21   ar
    28    13     8   ar
    29     3    26    1
    30     3    27    1
    31     5    28    1
    32     6    29    1
    33     7    30    1
    34     9    31    1
    35    11    32    1
    36    12    33    1
    37    14    34    1
    38    17    35    1
    39    24    36    1
    40    25    37    1
