@<TRIPOS>MOLECULE
*****
 43 45 0 0 0
SMALL
GASTEIGER

@<TRIPOS>ATOM
      1 C           5.8202   -1.2095    0.4814 C.3     1  UNL1       -0.0395
      2 C           4.3456   -1.0815    0.3497 C.ar    1  UNL1       -0.0475
      3 C           3.5213   -1.5001    1.4002 C.ar    1  UNL1       -0.0575
      4 C           2.1443   -1.3792    1.2739 C.ar    1  UNL1       -0.0477
      5 C           1.6054   -0.8506    0.1206 C.ar    1  UNL1        0.0131
      6 S          -0.1719   -0.7190    0.0135 S.3     1  UNL1       -0.0876
      7 C          -0.6497    0.8793    0.6591 C.ar    1  UNL1        0.0337
      8 C           0.2953    1.7825    1.1359 C.ar    1  UNL1       -0.0462
      9 C          -0.0237    3.0120    1.6369 C.ar    1  UNL1       -0.0606
     10 C          -1.3515    3.3858    1.6757 C.ar    1  UNL1       -0.0599
     11 C          -2.3141    2.5105    1.2092 C.ar    1  UNL1       -0.0396
     12 C          -1.9787    1.2526    0.6975 C.ar    1  UNL1        0.0437
     13 N          -3.0132    0.3960    0.2326 N.pl3   1  UNL1       -0.3266
     14 C          -3.1815   -0.8934    0.8584 C.3     1  UNL1        0.0248
     15 C          -3.5848   -1.9257   -0.1870 C.3     1  UNL1        0.0117
     16 N          -4.7199   -1.5065   -0.9498 N.3     1  UNL1       -0.3130
     17 C          -5.1341   -0.1592   -0.6965 C.3     1  UNL1        0.0117
     18 C          -3.9152    0.7509   -0.8449 C.3     1  UNL1        0.0248
     19 C           2.4553   -0.4455   -0.9022 C.ar    1  UNL1       -0.0448
     20 C           3.8198   -0.5520   -0.8074 C.ar    1  UNL1       -0.0465
     21 C           4.7139   -0.1153   -1.9073 C.3     1  UNL1       -0.0394
     22 H           6.3004   -1.5898   -0.4457 H       1  UNL1        0.0278
     23 H           6.2542   -0.2427    0.7838 H       1  UNL1        0.0278
     24 H           6.0236   -1.9709    1.2628 H       1  UNL1        0.0278
     25 H           3.9494   -1.9140    2.3029 H       1  UNL1        0.0621
     26 H           1.5265   -1.7092    2.0987 H       1  UNL1        0.0629
     27 H           1.3517    1.4804    1.1030 H       1  UNL1        0.0629
     28 H           0.7712    3.6758    1.9966 H       1  UNL1        0.0618
     29 H          -1.6331    4.3653    2.0723 H       1  UNL1        0.0618
     30 H          -3.3541    2.7938    1.2355 H       1  UNL1        0.0636
     31 H          -2.2728   -1.2730    1.3481 H       1  UNL1        0.0476
     32 H          -4.0320   -0.8782    1.6005 H       1  UNL1        0.0476
     33 H          -2.7040   -2.1803   -0.8331 H       1  UNL1        0.0439
     34 H          -3.8318   -2.8494    0.3760 H       1  UNL1        0.0439
     35 H          -4.6396   -1.7189   -1.9633 H       1  UNL1        0.1220
     36 H          -5.5411   -0.0821    0.3390 H       1  UNL1        0.0439
     37 H          -5.9076    0.1257   -1.4277 H       1  UNL1        0.0439
     38 H          -4.2812    1.7888   -0.7404 H       1  UNL1        0.0476
     39 H          -3.4703    0.5466   -1.8402 H       1  UNL1        0.0476
     40 H           2.0128   -0.0365   -1.7919 H       1  UNL1        0.0631
     41 H           5.6778    0.2667   -1.5167 H       1  UNL1        0.0278
     42 H           4.2653    0.7175   -2.4893 H       1  UNL1        0.0278
     43 H           4.8522   -0.9480   -2.6439 H       1  UNL1        0.0278
@<TRIPOS>BOND
     1     1     2    1
     2     2     3   ar
     3     3     4   ar
     4     4     5   ar
     5     5     6    1
     6     6     7    1
     7     7     8   ar
     8     8     9   ar
     9     9    10   ar
    10    10    11   ar
    11    11    12   ar
    12    12    13    1
    13    13    14    1
    14    14    15    1
    15    15    16    1
    16    16    17    1
    17    17    18    1
    18     5    19   ar
    19    19    20   ar
    20    20    21    1
    21    20     2   ar
    22    12     7   ar
    23    18    13    1
    24     1    22    1
    25     1    23    1
    26     1    24    1
    27     3    25    1
    28     4    26    1
    29     8    27    1
    30     9    28    1
    31    10    29    1
    32    11    30    1
    33    14    31    1
    34    14    32    1
    35    15    33    1
    36    15    34    1
    37    16    35    1
    38    17    36    1
    39    17    37    1
    40    18    38    1
    41    18    39    1
    42    19    40    1
    43    21    41    1
    44    21    42    1
    45    21    43    1
