
     RDKit          3D

 43 45  0  0  0  0  0  0  0  0999 V2000
    5.8202   -1.2095    0.4814 C   0  0  0  0  0  0  0  0  0  0  0  0
    4.3456   -1.0815    0.3497 C   0  0  0  0  0  0  0  0  0  0  0  0
    3.5213   -1.5001    1.4002 C   0  0  0  0  0  0  0  0  0  0  0  0
    2.1443   -1.3792    1.2739 C   0  0  0  0  0  0  0  0  0  0  0  0
    1.6054   -0.8506    0.1206 C   0  0  0  0  0  0  0  0  0  0  0  0
   -0.1719   -0.7190    0.0135 S   0  0  0  0  0  0  0  0  0  0  0  0
   -0.6497    0.8793    0.6591 C   0  0  0  0  0  0  0  0  0  0  0  0
    0.2953    1.7825    1.1359 C   0  0  0  0  0  0  0  0  0  0  0  0
   -0.0237    3.0120    1.6369 C   0  0  0  0  0  0  0  0  0  0  0  0
   -1.3515    3.3858    1.6757 C   0  0  0  0  0  0  0  0  0  0  0  0
   -2.3141    2.5105    1.2092 C   0  0  0  0  0  0  0  0  0  0  0  0
   -1.9787    1.2526    0.6975 C   0  0  0  0  0  0  0  0  0  0  0  0
   -3.0132    0.3960    0.2326 N   0  0  0  0  0  0  0  0  0  0  0  0
   -3.1815   -0.8934    0.8584 C   0  0  0  0  0  0  0  0  0  0  0  0
   -3.5848   -1.9257   -0.1870 C   0  0  0  0  0  0  0  0  0  0  0  0
   -4.7199   -1.5065   -0.9498 N   0  0  0  0  0  0  0  0  0  0  0  0
   -5.1341   -0.1592   -0.6965 C   0  0  0  0  0  0  0  0  0  0  0  0
   -3.9152    0.7509   -0.8449 C   0  0  0  0  0  0  0  0  0  0  0  0
    2.4553   -0.4455   -0.9022 C   0  0  0  0  0  0  0  0  0  0  0  0
    3.8198   -0.5520   -0.8074 C   0  0  0  0  0  0  0  0  0  0  0  0
    4.7139   -0.1153   -1.9073 C   0  0  0  0  0  0  0  0  0  0  0  0
    6.3004   -1.5898   -0.4457 H   0  0  0  0  0  0  0  0  0  0  0  0
    6.2542   -0.2427    0.7838 H   0  0  0  0  0  0  0  0  0  0  0  0
    6.0236   -1.9709    1.2628 H   0  0  0  0  0  0  0  0  0  0  0  0
    3.9494   -1.9140    2.3029 H   0  0  0  0  0  0  0  0  0  0  0  0
    1.5265   -1.7092    2.0987 H   0  0  0  0  0  0  0  0  0  0  0  0
    1.3517    1.4804    1.1030 H   0  0  0  0  0  0  0  0  0  0  0  0
    0.7712    3.6758    1.9966 H   0  0  0  0  0  0  0  0  0  0  0  0
   -1.6331    4.3653    2.0723 H   0  0  0  0  0  0  0  0  0  0  0  0
   -3.3541    2.7938    1.2355 H   0  0  0  0  0  0  0  0  0  0  0  0
   -2.2728   -1.2730    1.3481 H   0  0  0  0  0  0  0  0  0  0  0  0
   -4.0320   -0.8782    1.6005 H   0  0  0  0  0  0  0  0  0  0  0  0
   -2.7040   -2.1803   -0.8331 H   0  0  0  0  0  0  0  0  0  0  0  0
   -3.8318   -2.8494    0.3760 H   0  0  0  0  0  0  0  0  0  0  0  0
   -4.6396   -1.7189   -1.9633 H   0  0  0  0  0  0  0  0  0  0  0  0
   -5.5411   -0.0821    0.3390 H   0  0  0  0  0  0  0  0  0  0  0  0
   -5.9076    0.1257   -1.4277 H   0  0  0  0  0  0  0  0  0  0  0  0
   -4.2812    1.7888   -0.7404 H   0  0  0  0  0  0  0  0  0  0  0  0
   -3.4703    0.5466   -1.8402 H   0  0  0  0  0  0  0  0  0  0  0  0
    2.0128   -0.0365   -1.7919 H   0  0  0  0  0  0  0  0  0  0  0  0
    5.6778    0.2667   -1.5167 H   0  0  0  0  0  0  0  0  0  0  0  0
    4.2653    0.7175   -2.4893 H   0  0  0  0  0  0  0  0  0  0  0  0
    4.8522   -0.9480   -2.6439 H   0  0  0  0  0  0  0  0  0  0  0  0
  1  2  1  0
  2  3  2  0
  3  4  1  0
  4  5  2  0
  5  6  1  0
  6  7  1  0
  7  8  2  0
  8  9  1  0
  9 10  2  0
 10 11  1  0
 11 12  2  0
 12 13  1  0
 13 14  1  0
 14 15  1  0
 15 16  1  0
 16 17  1  0
 17 18  1  0
  5 19  1  0
 19 20  2  0
 20 21  1  0
 20  2  1  0
 12  7  1  0
 18 13  1  0
  1 22  1  0
  1 23  1  0
  1 24  1  0
  3 25  1  0
  4 26  1  0
  8 27  1  0
  9 28  1  0
 10 29  1  0
 11 30  1  0
 14 31  1  0
 14 32  1  0
 15 33  1  0
 15 34  1  0
 16 35  1  0
 17 36  1  0
 17 37  1  0
 18 38  1  0
 18 39  1  0
 19 40  1  0
 21 41  1  0
 21 42  1  0
 21 43  1  0
M  END
$$$$
