@<TRIPOS>MOLECULE
*****
 73 78 0 0 0
SMALL
GASTEIGER

@<TRIPOS>ATOM
      1 C          -3.7205    7.1295    0.9588 C.3     1  UNL1        0.0804
      2 O          -2.9269    5.9797    1.0758 O.3     1  UNL1       -0.4795
      3 C          -2.6688    5.1068    0.0124 C.ar    1  UNL1        0.2191
      4 C          -1.8716    4.0236    0.2905 C.ar    1  UNL1        0.0404
      5 C          -1.5918    3.1358   -0.7330 C.ar    1  UNL1        0.1364
      6 N          -0.7926    1.9897   -0.5822 N.am    1  UNL1       -0.2240
      7 C           0.6352    1.9074   -0.7770 C.2     1  UNL1        0.3219
      8 O           1.2858    2.6936   -1.4904 O.2     1  UNL1       -0.2512
      9 N           1.1311    0.7930   -0.0211 N.am    1  UNL1       -0.1920
     10 C           2.4714    0.3361    0.0801 C.ar    1  UNL1        0.0455
     11 C           3.3421    0.8021    1.0395 C.ar    1  UNL1       -0.0392
     12 C           4.6370    0.3416    1.1269 C.ar    1  UNL1       -0.0522
     13 C           5.0951   -0.6214    0.2286 C.ar    1  UNL1       -0.0164
     14 C           6.4569   -1.1312    0.2993 C.ar    1  UNL1        0.0005
     15 C           6.9772   -1.4981    1.5442 C.ar    1  UNL1       -0.0519
     16 C           8.2603   -1.9858    1.6432 C.ar    1  UNL1       -0.0471
     17 C           9.0695   -2.1319    0.5543 C.ar    1  UNL1        0.0602
     18 C          10.4346   -2.6578    0.7128 C.2     1  UNL1        0.3368
     19 O          10.8464   -2.9696    1.8578 O.2     1  UNL1       -0.2451
     20 O          11.2737   -2.8149   -0.3830 O.3     1  UNL1       -0.4771
     21 C           8.5834   -1.7785   -0.6841 C.ar    1  UNL1       -0.0288
     22 C           7.2813   -1.2821   -0.7942 C.ar    1  UNL1        0.0494
     23 CL          6.6946   -0.8391   -2.3762 Cl      1  UNL1       -0.0829
     24 C           4.2427   -1.0909   -0.7264 C.ar    1  UNL1       -0.0522
     25 C           2.9504   -0.6149   -0.7945 C.ar    1  UNL1       -0.0392
     26 C          -0.0329    0.2255    0.6197 C.2     1  UNL1        0.2516
     27 O           0.0373   -0.4651    1.6650 O.2     1  UNL1       -0.2724
     28 C          -1.1697    0.6407   -0.2043 C.3     1  UNL1        0.1240
     29 C          -1.2357   -0.1921   -1.4631 C.3     1  UNL1       -0.0095
     30 C          -1.7182   -1.5659   -1.0669 C.3     1  UNL1        0.0017
     31 N          -3.0336   -1.4293   -0.4880 N.3     1  UNL1       -0.2965
     32 C          -3.6613   -2.7331   -0.3878 C.3     1  UNL1        0.0415
     33 C          -5.0005   -2.7160    0.1969 C.ar    1  UNL1        0.0581
     34 N          -5.1962   -3.1184    1.4659 N.ar    1  UNL1       -0.2583
     35 C          -6.4311   -3.1119    2.0312 C.ar    1  UNL1        0.0279
     36 C          -7.5485   -2.6950    1.3408 C.ar    1  UNL1       -0.0433
     37 C          -7.3743   -2.2774    0.0374 C.ar    1  UNL1       -0.0557
     38 C          -6.1001   -2.2944   -0.5154 C.ar    1  UNL1       -0.0279
     39 C          -5.9303   -1.8420   -1.9192 C.3     1  UNL1       -0.0380
     40 C          -3.0406   -0.7148    0.7514 C.3     1  UNL1        0.0017
     41 C          -2.4760    0.6731    0.5297 C.3     1  UNL1       -0.0095
     42 N          -2.1270    3.4033   -1.9358 N.ar    1  UNL1       -0.2200
     43 C          -2.8995    4.4616   -2.1864 C.ar    1  UNL1        0.1219
     44 N          -3.1763    5.3251   -1.2057 N.ar    1  UNL1       -0.2013
     45 H          -4.2213    7.1002   -0.0321 H       1  UNL1        0.0660
     46 H          -3.1264    8.0554    1.0651 H       1  UNL1        0.0660
     47 H          -4.5199    7.1236    1.7299 H       1  UNL1        0.0660
     48 H          -1.4661    3.8546    1.2761 H       1  UNL1        0.0705
     49 H           3.0288    1.5448    1.7512 H       1  UNL1        0.0636
     50 H           5.3453    0.6840    1.8640 H       1  UNL1        0.0624
     51 H           6.3364   -1.3815    2.3999 H       1  UNL1        0.0624
     52 H           8.6495   -2.2657    2.6115 H       1  UNL1        0.0626
     53 H          12.0897   -3.4290   -0.2528 H       1  UNL1        0.2954
     54 H           9.1991   -1.8811   -1.5721 H       1  UNL1        0.0640
     55 H           4.5582   -1.8394   -1.4416 H       1  UNL1        0.0624
     56 H           2.3111   -1.0193   -1.5717 H       1  UNL1        0.0636
     57 H          -1.9978    0.2645   -2.1238 H       1  UNL1        0.0303
     58 H          -0.2323   -0.2197   -1.9034 H       1  UNL1        0.0303
     59 H          -1.0082   -2.0874   -0.4034 H       1  UNL1        0.0427
     60 H          -1.8125   -2.1921   -1.9815 H       1  UNL1        0.0427
     61 H          -3.0208   -3.4239    0.2036 H       1  UNL1        0.0491
     62 H          -3.7106   -3.1437   -1.4201 H       1  UNL1        0.0491
     63 H          -6.5868   -3.4361    3.0539 H       1  UNL1        0.0829
     64 H          -8.5422   -2.6945    1.8076 H       1  UNL1        0.0633
     65 H          -8.2469   -1.9504   -0.5062 H       1  UNL1        0.0621
     66 H          -5.3962   -2.6676   -2.4613 H       1  UNL1        0.0278
     67 H          -6.9193   -1.7614   -2.4319 H       1  UNL1        0.0278
     68 H          -5.3640   -0.8991   -1.9665 H       1  UNL1        0.0278
     69 H          -2.4096   -1.1855    1.5343 H       1  UNL1        0.0427
     70 H          -4.0980   -0.5868    1.0605 H       1  UNL1        0.0427
     71 H          -2.3450    1.1580    1.4940 H       1  UNL1        0.0303
     72 H          -3.1872    1.2892   -0.0638 H       1  UNL1        0.0303
     73 H          -3.2887    4.5933   -3.2010 H       1  UNL1        0.1049
@<TRIPOS>BOND
     1     1     2    1
     2     2     3    1
     3     3     4   ar
     4     4     5   ar
     5     5     6    1
     6     6     7   am
     7     7     8    2
     8     7     9   am
     9     9    10    1
    10    10    11   ar
    11    11    12   ar
    12    12    13   ar
    13    13    14    1
    14    14    15   ar
    15    15    16   ar
    16    16    17   ar
    17    17    18    1
    18    18    19    2
    19    18    20    1
    20    17    21   ar
    21    21    22   ar
    22    22    23    1
    23    13    24   ar
    24    24    25   ar
    25     9    26   am
    26    26    27    2
    27    26    28    1
    28    28    29    1
    29    29    30    1
    30    30    31    1
    31    31    32    1
    32    32    33    1
    33    33    34   ar
    34    34    35   ar
    35    35    36   ar
    36    36    37   ar
    37    37    38   ar
    38    38    39    1
    39    31    40    1
    40    40    41    1
    41     5    42   ar
    42    42    43   ar
    43    43    44   ar
    44    44     3   ar
    45    28     6    1
    46    38    33   ar
    47    25    10   ar
    48    41    28    1
    49    22    14   ar
    50     1    45    1
    51     1    46    1
    52     1    47    1
    53     4    48    1
    54    11    49    1
    55    12    50    1
    56    15    51    1
    57    16    52    1
    58    20    53    1
    59    21    54    1
    60    24    55    1
    61    25    56    1
    62    29    57    1
    63    29    58    1
    64    30    59    1
    65    30    60    1
    66    32    61    1
    67    32    62    1
    68    35    63    1
    69    36    64    1
    70    37    65    1
    71    39    66    1
    72    39    67    1
    73    39    68    1
    74    40    69    1
    75    40    70    1
    76    41    71    1
    77    41    72    1
    78    43    73    1
