@<TRIPOS>MOLECULE
*****
 68 72 0 0 0
SMALL
GASTEIGER

@<TRIPOS>ATOM
      1 C           7.9813   -0.7349   -0.8059 C.3     1  UNL1       -0.0253
      2 C           7.2492   -0.1031    0.3739 C.3     1  UNL1        0.1068
      3 C           8.0422   -0.4105    1.6122 C.3     1  UNL1       -0.0253
      4 C           7.2454    1.4112    0.1936 C.3     1  UNL1       -0.0253
      5 O           5.9204   -0.5219    0.4678 O.3     1  UNL1       -0.4445
      6 C           5.0431   -0.2866   -0.5663 C.2     1  UNL1        0.4034
      7 O           5.4967    0.3202   -1.5918 O.2     1  UNL1       -0.2262
      8 N           3.7006   -0.6868   -0.5204 N.am    1  UNL1       -0.2673
      9 C           2.8163   -0.4192   -1.6278 C.3     1  UNL1        0.0197
     10 C           1.4988   -1.1037   -1.5157 C.3     1  UNL1       -0.0144
     11 C           0.8646   -0.9989   -0.1535 C.3     1  UNL1        0.0578
     12 N          -0.0339    0.1645   -0.1331 N.ar    1  UNL1       -0.2431
     13 N           0.2854    1.4274   -0.2779 N.ar    1  UNL1       -0.1768
     14 C          -0.8278    2.1941   -0.1972 C.ar    1  UNL1        0.0620
     15 C          -1.8739    1.3227    0.0102 C.ar    1  UNL1        0.0785
     16 C          -3.2272    1.4552    0.1630 C.ar    1  UNL1        0.1361
     17 N          -3.8477    2.7115    0.1854 N.pl3   1  UNL1       -0.3101
     18 C          -5.3109    2.7868   -0.1275 C.3     1  UNL1        0.0370
     19 C          -5.5560    4.2177   -0.5622 C.3     1  UNL1        0.0634
     20 O          -4.5637    4.7410   -1.3430 O.3     1  UNL1       -0.3767
     21 C          -3.3010    4.7806   -0.7915 C.3     1  UNL1        0.0634
     22 C          -3.3126    3.9978    0.5172 C.3     1  UNL1        0.0370
     23 N          -4.0072    0.3276    0.3426 N.ar    1  UNL1       -0.2118
     24 C          -3.4994   -0.9036    0.3766 C.ar    1  UNL1        0.1641
     25 C          -4.3404   -2.0904    0.5682 C.ar    1  UNL1        0.0194
     26 C          -5.7019   -1.9854    0.7229 C.ar    1  UNL1       -0.0493
     27 C          -6.5005   -3.1112    0.9048 C.ar    1  UNL1       -0.0404
     28 C          -5.9401   -4.3624    0.9339 C.ar    1  UNL1        0.0246
     29 N          -6.6765   -5.5507    1.1132 N.pl3   1  UNL1       -0.3580
     30 C          -4.5798   -4.4846    0.7807 C.ar    1  UNL1       -0.0404
     31 C          -3.8021   -3.3554    0.6010 C.ar    1  UNL1       -0.0493
     32 N          -2.1746   -1.0174    0.2274 N.ar    1  UNL1       -0.2080
     33 C          -1.3597    0.0328    0.0487 C.ar    1  UNL1        0.1642
     34 C           1.8402   -0.8163    0.9579 C.3     1  UNL1       -0.0144
     35 C           3.2108   -1.3785    0.6651 C.3     1  UNL1        0.0197
     36 H           9.0748   -0.8400   -0.5811 H       1  UNL1        0.0268
     37 H           7.9125   -0.0697   -1.6782 H       1  UNL1        0.0268
     38 H           7.6207   -1.7673   -0.9982 H       1  UNL1        0.0268
     39 H           7.7630    0.2436    2.4686 H       1  UNL1        0.0268
     40 H           9.1103   -0.1676    1.3824 H       1  UNL1        0.0268
     41 H           8.0200   -1.4646    1.9120 H       1  UNL1        0.0268
     42 H           8.1157    1.8369    0.7178 H       1  UNL1        0.0268
     43 H           7.3395    1.6019   -0.8959 H       1  UNL1        0.0268
     44 H           6.3119    1.8317    0.6033 H       1  UNL1        0.0268
     45 H           2.7530    0.6743   -1.8021 H       1  UNL1        0.0466
     46 H           3.3300   -0.8342   -2.5439 H       1  UNL1        0.0466
     47 H           0.7996   -0.5955   -2.2420 H       1  UNL1        0.0301
     48 H           1.5683   -2.1551   -1.8778 H       1  UNL1        0.0301
     49 H           0.3145   -1.9437    0.0216 H       1  UNL1        0.0546
     50 H          -0.8767    3.2741   -0.2920 H       1  UNL1        0.0856
     51 H          -5.5095    2.1398   -1.0006 H       1  UNL1        0.0487
     52 H          -5.8836    2.5647    0.7690 H       1  UNL1        0.0487
     53 H          -6.4999    4.2271   -1.1917 H       1  UNL1        0.0575
     54 H          -5.8315    4.8856    0.2943 H       1  UNL1        0.0575
     55 H          -2.6165    4.2680   -1.4952 H       1  UNL1        0.0575
     56 H          -2.9426    5.8070   -0.5876 H       1  UNL1        0.0575
     57 H          -4.0662    4.5399    1.2162 H       1  UNL1        0.0487
     58 H          -2.4018    4.0354    1.0924 H       1  UNL1        0.0487
     59 H          -6.1945   -1.0268    0.7082 H       1  UNL1        0.0625
     60 H          -7.5733   -3.0405    1.0276 H       1  UNL1        0.0636
     61 H          -7.0517   -5.7735    2.0487 H       1  UNL1        0.1423
     62 H          -6.8400   -6.1924    0.3186 H       1  UNL1        0.1423
     63 H          -4.1067   -5.4738    0.8001 H       1  UNL1        0.0636
     64 H          -2.7372   -3.4985    0.4847 H       1  UNL1        0.0625
     65 H           1.9467    0.2672    1.2394 H       1  UNL1        0.0301
     66 H           1.4486   -1.3149    1.8651 H       1  UNL1        0.0301
     67 H           3.0983   -2.4414    0.4381 H       1  UNL1        0.0466
     68 H           3.8461   -1.1676    1.5442 H       1  UNL1        0.0466
@<TRIPOS>BOND
     1     1     2    1
     2     2     3    1
     3     2     4    1
     4     2     5    1
     5     5     6    1
     6     6     7    2
     7     6     8   am
     8     8     9    1
     9     9    10    1
    10    10    11    1
    11    11    12    1
    12    12    13   ar
    13    13    14   ar
    14    14    15   ar
    15    15    16   ar
    16    16    17    1
    17    17    18    1
    18    18    19    1
    19    19    20    1
    20    20    21    1
    21    21    22    1
    22    16    23   ar
    23    23    24   ar
    24    24    25    1
    25    25    26   ar
    26    26    27   ar
    27    27    28   ar
    28    28    29    1
    29    28    30   ar
    30    30    31   ar
    31    24    32   ar
    32    32    33   ar
    33    11    34    1
    34    34    35    1
    35    35     8    1
    36    33    12   ar
    37    33    15   ar
    38    22    17    1
    39    31    25   ar
    40     1    36    1
    41     1    37    1
    42     1    38    1
    43     3    39    1
    44     3    40    1
    45     3    41    1
    46     4    42    1
    47     4    43    1
    48     4    44    1
    49     9    45    1
    50     9    46    1
    51    10    47    1
    52    10    48    1
    53    11    49    1
    54    14    50    1
    55    18    51    1
    56    18    52    1
    57    19    53    1
    58    19    54    1
    59    21    55    1
    60    21    56    1
    61    22    57    1
    62    22    58    1
    63    26    59    1
    64    27    60    1
    65    29    61    1
    66    29    62    1
    67    30    63    1
    68    31    64    1
    69    34    65    1
    70    34    66    1
    71    35    67    1
    72    35    68    1
