@<TRIPOS>MOLECULE
*****
 64 68 0 0 0
SMALL
GASTEIGER

@<TRIPOS>ATOM
      1 C          -2.7026    6.8376   -0.3000 C.3     1  UNL1       -0.0645
      2 C          -1.6221    5.8178   -0.6297 C.3     1  UNL1       -0.0464
      3 C          -0.5878    5.7635    0.4898 C.3     1  UNL1        0.0009
      4 S           0.6818    4.5614    0.0927 S.3     1  UNL1       -0.0859
      5 C           0.1061    2.8956    0.0473 C.ar    1  UNL1        0.1920
      6 N           1.0768    1.9916   -0.2538 N.ar    1  UNL1       -0.2006
      7 C           0.7694    0.6655   -0.3244 C.ar    1  UNL1        0.1848
      8 C          -0.5375    0.2213   -0.0897 C.ar    1  UNL1        0.1710
      9 N          -0.5312   -1.1038   -0.2262 N.ar    1  UNL1       -0.1243
     10 N           0.7152   -1.4892   -0.5325 N.ar    1  UNL1       -0.0628
     11 N           1.4954   -0.4227   -0.5910 N.ar    1  UNL1       -0.2207
     12 C           2.8994   -0.4894   -0.8996 C.3     1  UNL1        0.0873
     13 C           3.3983   -1.8806   -1.0949 C.3     1  UNL1        0.0011
     14 C           4.8482   -1.8827   -0.5815 C.3     1  UNL1        0.0891
     15 O           4.8932   -2.6221    0.5645 O.3     1  UNL1       -0.3716
     16 C           5.8032   -3.6324    0.6419 C.3     1  UNL1        0.0712
     17 C           7.2433   -3.2559    0.5638 C.3     1  UNL1        0.0676
     18 O           7.6314   -2.6212   -0.5900 O.3     1  UNL1       -0.3927
     19 C           5.0998   -0.4177   -0.1857 C.3     1  UNL1        0.1091
     20 O           5.3239    0.3845   -1.3063 O.3     1  UNL1       -0.3866
     21 C           3.7010   -0.0392    0.3055 C.3     1  UNL1        0.1059
     22 O           3.6148    1.3376    0.5102 O.3     1  UNL1       -0.3870
     23 C          -1.4493    1.2126    0.2080 C.ar    1  UNL1        0.1530
     24 N          -2.7893    0.8496    0.4550 N.pl3   1  UNL1       -0.3237
     25 C          -3.3798   -0.4692    0.4382 C.3     1  UNL1        0.0295
     26 C          -3.3022   -1.2434   -0.8830 C.3     1  UNL1       -0.0254
     27 C          -4.5953   -0.7055   -0.3838 C.3     1  UNL1        0.0043
     28 C          -5.5445   -1.7342    0.1229 C.ar    1  UNL1       -0.0396
     29 C          -6.8874   -1.6080   -0.1831 C.ar    1  UNL1       -0.0201
     30 C          -7.8107   -2.5422    0.2674 C.ar    1  UNL1        0.1587
     31 F          -9.1242   -2.3822   -0.0578 F       1  UNL1       -0.2025
     32 C          -7.3383   -3.6083    1.0367 C.ar    1  UNL1        0.1584
     33 F          -8.2290   -4.5275    1.4818 F       1  UNL1       -0.2025
     34 C          -5.9848   -3.7201    1.3352 C.ar    1  UNL1       -0.0233
     35 C          -5.0679   -2.7811    0.8805 C.ar    1  UNL1       -0.0554
     36 N          -1.1725    2.5256    0.2836 N.ar    1  UNL1       -0.2048
     37 H          -3.1077    6.6647    0.7175 H       1  UNL1        0.0230
     38 H          -3.4890    6.7766   -1.0640 H       1  UNL1        0.0230
     39 H          -2.2510    7.8559   -0.3654 H       1  UNL1        0.0230
     40 H          -1.1558    6.1010   -1.5736 H       1  UNL1        0.0271
     41 H          -2.1133    4.8257   -0.7235 H       1  UNL1        0.0271
     42 H          -0.1076    6.7563    0.6035 H       1  UNL1        0.0381
     43 H          -1.0538    5.4826    1.4466 H       1  UNL1        0.0381
     44 H           3.1778    0.1776   -1.7438 H       1  UNL1        0.0573
     45 H           2.8016   -2.6224   -0.5389 H       1  UNL1        0.0312
     46 H           3.3826   -2.2283   -2.1540 H       1  UNL1        0.0312
     47 H           5.5435   -2.1876   -1.3574 H       1  UNL1        0.0623
     48 H           5.6165   -4.4582   -0.0858 H       1  UNL1        0.0583
     49 H           5.6560   -4.1098    1.6558 H       1  UNL1        0.0583
     50 H           7.5419   -2.6615    1.4760 H       1  UNL1        0.0580
     51 H           7.8217   -4.2272    0.5938 H       1  UNL1        0.0580
     52 H           7.7629   -1.6435   -0.4074 H       1  UNL1        0.2095
     53 H           5.8629   -0.3265    0.5872 H       1  UNL1        0.0646
     54 H           5.4987   -0.2282   -2.0604 H       1  UNL1        0.2100
     55 H           3.4451   -0.6440    1.1838 H       1  UNL1        0.0641
     56 H           3.3196    1.5888    1.4222 H       1  UNL1        0.2100
     57 H          -3.5545    1.5072    0.6903 H       1  UNL1        0.1478
     58 H          -3.2792   -1.0398    1.3892 H       1  UNL1        0.0504
     59 H          -2.8453   -0.7458   -1.7538 H       1  UNL1        0.0290
     60 H          -3.0650   -2.3296   -0.7609 H       1  UNL1        0.0290
     61 H          -5.0387    0.1271   -0.9828 H       1  UNL1        0.0367
     62 H          -7.2602   -0.7859   -0.7775 H       1  UNL1        0.0650
     63 H          -5.7182   -4.5927    1.9429 H       1  UNL1        0.0647
     64 H          -4.0364   -2.9182    1.1421 H       1  UNL1        0.0621
@<TRIPOS>BOND
     1     1     2    1
     2     2     3    1
     3     3     4    1
     4     4     5    1
     5     5     6   ar
     6     6     7   ar
     7     7     8   ar
     8     8     9   ar
     9     9    10   ar
    10    10    11   ar
    11    11    12    1
    12    12    13    1
    13    13    14    1
    14    14    15    1
    15    15    16    1
    16    16    17    1
    17    17    18    1
    18    14    19    1
    19    19    20    1
    20    19    21    1
    21    21    22    1
    22     8    23   ar
    23    23    24    1
    24    24    25    1
    25    25    26    1
    26    26    27    1
    27    27    28    1
    28    28    29   ar
    29    29    30   ar
    30    30    31    1
    31    30    32   ar
    32    32    33    1
    33    32    34   ar
    34    34    35   ar
    35    23    36   ar
    36    36     5   ar
    37    11     7   ar
    38    21    12    1
    39    27    25    1
    40    35    28   ar
    41     1    37    1
    42     1    38    1
    43     1    39    1
    44     2    40    1
    45     2    41    1
    46     3    42    1
    47     3    43    1
    48    12    44    1
    49    13    45    1
    50    13    46    1
    51    14    47    1
    52    16    48    1
    53    16    49    1
    54    17    50    1
    55    17    51    1
    56    18    52    1
    57    19    53    1
    58    20    54    1
    59    21    55    1
    60    22    56    1
    61    24    57    1
    62    25    58    1
    63    26    59    1
    64    26    60    1
    65    27    61    1
    66    29    62    1
    67    34    63    1
    68    35    64    1
