
     RDKit          3D

 55 58  0  0  0  0  0  0  0  0999 V2000
   -6.2098   -0.7398    0.7657 C   0  0  0  0  0  0  0  0  0  0  0  0
   -5.3021   -0.7010   -0.4306 C   0  0  0  0  0  0  0  0  0  0  0  0
   -5.2801   -2.0391   -1.1172 C   0  0  0  0  0  0  0  0  0  0  0  0
   -5.8726    0.3108   -1.4204 C   0  0  0  0  0  0  0  0  0  0  0  0
   -3.9224   -0.3064   -0.0829 C   0  0  0  0  0  0  0  0  0  0  0  0
   -3.5325   -0.0102    1.2066 C   0  0  0  0  0  0  0  0  0  0  0  0
   -2.2232    0.3447    1.4102 C   0  0  0  0  0  0  0  0  0  0  0  0
   -1.2966    0.4154    0.3901 C   0  0  0  0  0  0  0  0  0  0  0  0
    0.0634    0.7936    0.6638 N   0  0  0  0  0  0  0  0  0  0  0  0
    1.0041    0.0831    1.3215 C   0  0  0  0  0  0  0  0  0  0  0  0
    0.6953   -1.2360    1.8875 C   0  0  0  0  0  0  0  0  0  0  0  0
   -0.4523   -1.7501    1.7373 O   0  0  0  0  0  0  0  0  0  0  0  0
    1.6178   -1.9593    2.5961 O   0  0  0  0  0  0  0  0  0  0  0  0
    2.1832    0.8033    1.3667 C   0  0  0  0  0  0  0  0  0  0  0  0
    3.3544    0.3859    1.9500 O   0  0  0  0  0  0  0  0  0  0  0  0
    4.3724   -0.0947    1.1563 C   0  0  0  0  0  0  0  0  0  0  0  0
    5.4740    0.6981    0.8732 C   0  0  0  0  0  0  0  0  0  0  0  0
    6.5041    0.2409    0.0793 C   0  0  0  0  0  0  0  0  0  0  0  0
    6.4275   -1.0299   -0.4370 C   0  0  0  0  0  0  0  0  0  0  0  0
    5.3647   -1.8428   -0.1845 C   0  0  0  0  0  0  0  0  0  0  0  0
    5.3065   -3.2082   -0.7528 C   0  0  0  0  0  0  0  0  0  0  0  0
    3.9826   -3.5356   -0.9927 F   0  0  0  0  0  0  0  0  0  0  0  0
    6.0349   -3.3320   -1.8999 F   0  0  0  0  0  0  0  0  0  0  0  0
    5.7791   -4.0870    0.1858 F   0  0  0  0  0  0  0  0  0  0  0  0
    4.3385   -1.3513    0.6218 C   0  0  0  0  0  0  0  0  0  0  0  0
    1.9576    2.0178    0.7078 C   0  0  0  0  0  0  0  0  0  0  0  0
    2.7500    3.1137    0.4486 C   0  0  0  0  0  0  0  0  0  0  0  0
    2.2332    4.1868   -0.2380 C   0  0  0  0  0  0  0  0  0  0  0  0
    0.9225    4.1291   -0.6492 C   0  0  0  0  0  0  0  0  0  0  0  0
    0.1162    3.0435   -0.3992 C   0  0  0  0  0  0  0  0  0  0  0  0
    0.6371    1.9483    0.2996 C   0  0  0  0  0  0  0  0  0  0  0  0
   -1.6849    0.1200   -0.8970 C   0  0  0  0  0  0  0  0  0  0  0  0
   -3.0024   -0.2383   -1.1096 C   0  0  0  0  0  0  0  0  0  0  0  0
   -5.9707   -1.5700    1.4564 H   0  0  0  0  0  0  0  0  0  0  0  0
   -7.2393   -0.9601    0.3792 H   0  0  0  0  0  0  0  0  0  0  0  0
   -6.2405    0.2481    1.2474 H   0  0  0  0  0  0  0  0  0  0  0  0
   -4.2632   -2.2771   -1.4810 H   0  0  0  0  0  0  0  0  0  0  0  0
   -5.9450   -2.0695   -2.0074 H   0  0  0  0  0  0  0  0  0  0  0  0
   -5.5802   -2.8425   -0.4231 H   0  0  0  0  0  0  0  0  0  0  0  0
   -6.1740    1.2142   -0.8382 H   0  0  0  0  0  0  0  0  0  0  0  0
   -6.7394   -0.1601   -1.9302 H   0  0  0  0  0  0  0  0  0  0  0  0
   -5.0920    0.5235   -2.1718 H   0  0  0  0  0  0  0  0  0  0  0  0
   -4.2481   -0.0626    2.0079 H   0  0  0  0  0  0  0  0  0  0  0  0
   -1.8818    0.5849    2.4155 H   0  0  0  0  0  0  0  0  0  0  0  0
    1.4205   -2.7753    3.1485 H   0  0  0  0  0  0  0  0  0  0  0  0
    5.5478    1.7059    1.2880 H   0  0  0  0  0  0  0  0  0  0  0  0
    7.3751    0.8459   -0.1547 H   0  0  0  0  0  0  0  0  0  0  0  0
    7.2632   -1.3710   -1.0678 H   0  0  0  0  0  0  0  0  0  0  0  0
    3.5240   -2.0493    0.7760 H   0  0  0  0  0  0  0  0  0  0  0  0
    3.7722    3.1348    0.7851 H   0  0  0  0  0  0  0  0  0  0  0  0
    2.8598    5.0751   -0.4536 H   0  0  0  0  0  0  0  0  0  0  0  0
    0.5025    4.9672   -1.1911 H   0  0  0  0  0  0  0  0  0  0  0  0
   -0.9109    2.9779   -0.7115 H   0  0  0  0  0  0  0  0  0  0  0  0
   -1.0090    0.1594   -1.7194 H   0  0  0  0  0  0  0  0  0  0  0  0
   -3.3109   -0.4728   -2.1308 H   0  0  0  0  0  0  0  0  0  0  0  0
  1  2  1  0
  2  3  1  0
  2  4  1  0
  2  5  1  0
  5  6  2  0
  6  7  1  0
  7  8  2  0
  8  9  1  0
  9 10  1  0
 10 11  1  0
 11 12  2  0
 11 13  1  0
 10 14  2  0
 14 15  1  0
 15 16  1  0
 16 17  2  0
 17 18  1  0
 18 19  2  0
 19 20  1  0
 20 21  1  0
 21 22  1  0
 21 23  1  0
 21 24  1  0
 20 25  2  0
 14 26  1  0
 26 27  2  0
 27 28  1  0
 28 29  2  0
 29 30  1  0
 30 31  2  0
  8 32  1  0
 32 33  2  0
 33  5  1  0
 31  9  1  0
 25 16  1  0
 31 26  1  0
  1 34  1  0
  1 35  1  0
  1 36  1  0
  3 37  1  0
  3 38  1  0
  3 39  1  0
  4 40  1  0
  4 41  1  0
  4 42  1  0
  6 43  1  0
  7 44  1  0
 13 45  1  0
 17 46  1  0
 18 47  1  0
 19 48  1  0
 25 49  1  0
 27 50  1  0
 28 51  1  0
 29 52  1  0
 30 53  1  0
 32 54  1  0
 33 55  1  0
M  END
$$$$
