@<TRIPOS>MOLECULE
*****
 55 58 0 0 0
SMALL
GASTEIGER

@<TRIPOS>ATOM
      1 C          -6.2098   -0.7398    0.7657 C.3     1  UNL1       -0.0560
      2 C          -5.3021   -0.7010   -0.4306 C.3     1  UNL1       -0.0127
      3 C          -5.2801   -2.0391   -1.1172 C.3     1  UNL1       -0.0560
      4 C          -5.8726    0.3108   -1.4204 C.3     1  UNL1       -0.0560
      5 C          -3.9224   -0.3064   -0.0829 C.ar    1  UNL1       -0.0418
      6 C          -3.5325   -0.0102    1.2066 C.ar    1  UNL1       -0.0561
      7 C          -2.2232    0.3447    1.4102 C.ar    1  UNL1       -0.0375
      8 C          -1.2966    0.4154    0.3901 C.ar    1  UNL1        0.0475
      9 N           0.0634    0.7936    0.6638 N.ar    1  UNL1       -0.3004
     10 C           1.0041    0.0831    1.3215 C.ar    1  UNL1        0.1750
     11 C           0.6953   -1.2360    1.8875 C.2     1  UNL1        0.3575
     12 O          -0.4523   -1.7501    1.7373 O.2     1  UNL1       -0.2433
     13 O           1.6178   -1.9593    2.5961 O.3     1  UNL1       -0.4760
     14 C           2.1832    0.8033    1.3667 C.ar    1  UNL1        0.1683
     15 O           3.3544    0.3859    1.9500 O.3     1  UNL1       -0.4530
     16 C           4.3724   -0.0947    1.1563 C.ar    1  UNL1        0.1291
     17 C           5.4740    0.6981    0.8732 C.ar    1  UNL1       -0.0193
     18 C           6.5041    0.2409    0.0793 C.ar    1  UNL1       -0.0578
     19 C           6.4275   -1.0299   -0.4370 C.ar    1  UNL1       -0.0499
     20 C           5.3647   -1.8428   -0.1845 C.ar    1  UNL1        0.0583
     21 C           5.3065   -3.2082   -0.7528 C.3     1  UNL1        0.4175
     22 F           3.9826   -3.5356   -0.9927 F       1  UNL1       -0.1659
     23 F           6.0349   -3.3320   -1.8999 F       1  UNL1       -0.1659
     24 F           5.7791   -4.0870    0.1858 F       1  UNL1       -0.1659
     25 C           4.3385   -1.3513    0.6218 C.ar    1  UNL1       -0.0077
     26 C           1.9576    2.0178    0.7078 C.ar    1  UNL1        0.0434
     27 C           2.7500    3.1137    0.4486 C.ar    1  UNL1       -0.0490
     28 C           2.2332    4.1868   -0.2380 C.ar    1  UNL1       -0.0610
     29 C           0.9225    4.1291   -0.6492 C.ar    1  UNL1       -0.0598
     30 C           0.1162    3.0435   -0.3992 C.ar    1  UNL1       -0.0371
     31 C           0.6371    1.9483    0.2996 C.ar    1  UNL1        0.0582
     32 C          -1.6849    0.1200   -0.8970 C.ar    1  UNL1       -0.0375
     33 C          -3.0024   -0.2383   -1.1096 C.ar    1  UNL1       -0.0561
     34 H          -5.9707   -1.5700    1.4564 H       1  UNL1        0.0238
     35 H          -7.2393   -0.9601    0.3792 H       1  UNL1        0.0238
     36 H          -6.2405    0.2481    1.2474 H       1  UNL1        0.0238
     37 H          -4.2632   -2.2771   -1.4810 H       1  UNL1        0.0238
     38 H          -5.9450   -2.0695   -2.0074 H       1  UNL1        0.0238
     39 H          -5.5802   -2.8425   -0.4231 H       1  UNL1        0.0238
     40 H          -6.1740    1.2142   -0.8382 H       1  UNL1        0.0238
     41 H          -6.7394   -0.1601   -1.9302 H       1  UNL1        0.0238
     42 H          -5.0920    0.5235   -2.1718 H       1  UNL1        0.0238
     43 H          -4.2481   -0.0626    2.0079 H       1  UNL1        0.0621
     44 H          -1.8818    0.5849    2.4155 H       1  UNL1        0.0638
     45 H           1.4205   -2.7753    3.1485 H       1  UNL1        0.2955
     46 H           5.5478    1.7059    1.2880 H       1  UNL1        0.0654
     47 H           7.3751    0.8459   -0.1547 H       1  UNL1        0.0619
     48 H           7.2632   -1.3710   -1.0678 H       1  UNL1        0.0623
     49 H           3.5240   -2.0493    0.7760 H       1  UNL1        0.0660
     50 H           3.7722    3.1348    0.7851 H       1  UNL1        0.0625
     51 H           2.8598    5.0751   -0.4536 H       1  UNL1        0.0618
     52 H           0.5025    4.9672   -1.1911 H       1  UNL1        0.0618
     53 H          -0.9109    2.9779   -0.7115 H       1  UNL1        0.0638
     54 H          -1.0090    0.1594   -1.7194 H       1  UNL1        0.0638
     55 H          -3.3109   -0.4728   -2.1308 H       1  UNL1        0.0621
@<TRIPOS>BOND
     1     1     2    1
     2     2     3    1
     3     2     4    1
     4     2     5    1
     5     5     6   ar
     6     6     7   ar
     7     7     8   ar
     8     8     9    1
     9     9    10   ar
    10    10    11    1
    11    11    12    2
    12    11    13    1
    13    10    14   ar
    14    14    15    1
    15    15    16    1
    16    16    17   ar
    17    17    18   ar
    18    18    19   ar
    19    19    20   ar
    20    20    21    1
    21    21    22    1
    22    21    23    1
    23    21    24    1
    24    20    25   ar
    25    14    26   ar
    26    26    27   ar
    27    27    28   ar
    28    28    29   ar
    29    29    30   ar
    30    30    31   ar
    31     8    32   ar
    32    32    33   ar
    33    33     5   ar
    34    31     9   ar
    35    25    16   ar
    36    31    26   ar
    37     1    34    1
    38     1    35    1
    39     1    36    1
    40     3    37    1
    41     3    38    1
    42     3    39    1
    43     4    40    1
    44     4    41    1
    45     4    42    1
    46     6    43    1
    47     7    44    1
    48    13    45    1
    49    17    46    1
    50    18    47    1
    51    19    48    1
    52    25    49    1
    53    27    50    1
    54    28    51    1
    55    29    52    1
    56    30    53    1
    57    32    54    1
    58    33    55    1
