
     RDKit          3D

 45 47  0  0  0  0  0  0  0  0999 V2000
    2.7094    0.4796   -2.7357 C   0  0  0  0  0  0  0  0  0  0  0  0
    3.0185   -0.7817   -2.1189 N   0  0  0  0  0  0  0  0  0  0  0  0
    4.4005   -0.8421   -1.6812 C   0  0  0  0  0  0  0  0  0  0  0  0
    2.1221   -1.0777   -0.9886 C   0  0  0  0  0  0  0  0  0  0  0  0
    0.7317   -1.3299   -1.4632 C   0  0  0  0  0  0  0  0  0  0  0  0
   -0.2825   -1.6792   -0.4316 C   0  0  0  0  0  0  0  0  0  0  0  0
   -0.5179   -0.5962    0.5747 C   0  0  1  0  0  0  0  0  0  0  0  0
    0.6485   -0.3387    1.2483 O   0  0  0  0  0  0  0  0  0  0  0  0
    0.6807    0.9892    1.6472 C   0  0  0  0  0  0  0  0  0  0  0  0
   -0.1668    1.6294    0.6368 C   0  0  0  0  0  0  0  0  0  0  0  0
   -0.9253    0.6849   -0.0651 C   0  0  0  0  0  0  0  0  0  0  0  0
   -1.7500    1.1525   -1.0385 C   0  0  0  0  0  0  0  0  0  0  0  0
   -1.8632    2.4911   -1.3513 C   0  0  0  0  0  0  0  0  0  0  0  0
   -1.1154    3.4426   -0.6617 C   0  0  0  0  0  0  0  0  0  0  0  0
   -0.2713    2.9624    0.3347 C   0  0  0  0  0  0  0  0  0  0  0  0
   -1.1972    4.8405   -0.9484 C   0  0  0  0  0  0  0  0  0  0  0  0
   -1.2578    5.9643   -1.1945 N   0  0  0  0  0  0  0  0  0  0  0  0
   -1.5476   -1.0244    1.5787 C   0  0  0  0  0  0  0  0  0  0  0  0
   -2.1299   -0.2460    2.5315 C   0  0  0  0  0  0  0  0  0  0  0  0
   -3.0596   -0.7427    3.4108 C   0  0  0  0  0  0  0  0  0  0  0  0
   -3.4724   -2.0534    3.3986 C   0  0  0  0  0  0  0  0  0  0  0  0
   -4.3837   -2.4801    4.2829 F   0  0  0  0  0  0  0  0  0  0  0  0
   -2.8928   -2.8756    2.4318 C   0  0  0  0  0  0  0  0  0  0  0  0
   -1.9616   -2.3607    1.5576 C   0  0  0  0  0  0  0  0  0  0  0  0
    1.8909    0.3973   -3.4829 H   0  0  0  0  0  0  0  0  0  0  0  0
    3.6088    0.7825   -3.3260 H   0  0  0  0  0  0  0  0  0  0  0  0
    2.4579    1.2287   -1.9685 H   0  0  0  0  0  0  0  0  0  0  0  0
    4.5297   -1.8062   -1.1573 H   0  0  0  0  0  0  0  0  0  0  0  0
    4.5842    0.0244   -1.0390 H   0  0  0  0  0  0  0  0  0  0  0  0
    5.0717   -0.7903   -2.5582 H   0  0  0  0  0  0  0  0  0  0  0  0
    2.2709   -0.2477   -0.3009 H   0  0  0  0  0  0  0  0  0  0  0  0
    2.5389   -1.9980   -0.5025 H   0  0  0  0  0  0  0  0  0  0  0  0
    0.7107   -2.0363   -2.3334 H   0  0  0  0  0  0  0  0  0  0  0  0
    0.4161   -0.3489   -1.9623 H   0  0  0  0  0  0  0  0  0  0  0  0
    0.1773   -2.5393    0.1592 H   0  0  0  0  0  0  0  0  0  0  0  0
   -1.2328   -2.0599   -0.8784 H   0  0  0  0  0  0  0  0  0  0  0  0
    1.7348    1.3282    1.4215 H   0  0  0  0  0  0  0  0  0  0  0  0
    0.4481    1.1842    2.6859 H   0  0  0  0  0  0  0  0  0  0  0  0
   -2.3246    0.4105   -1.5669 H   0  0  0  0  0  0  0  0  0  0  0  0
   -2.5081    2.8589   -2.1124 H   0  0  0  0  0  0  0  0  0  0  0  0
    0.3036    3.7269    0.8598 H   0  0  0  0  0  0  0  0  0  0  0  0
   -1.8511    0.7728    2.5746 H   0  0  0  0  0  0  0  0  0  0  0  0
   -3.4920   -0.0817    4.1489 H   0  0  0  0  0  0  0  0  0  0  0  0
   -3.2380   -3.8997    2.4473 H   0  0  0  0  0  0  0  0  0  0  0  0
   -1.6134   -3.1145    0.8774 H   0  0  0  0  0  0  0  0  0  0  0  0
  1  2  1  0
  2  3  1  0
  2  4  1  0
  4  5  1  0
  5  6  1  0
  7  6  1  6
  7  8  1  0
  8  9  1  0
  9 10  1  0
 10 11  2  0
 11 12  1  0
 12 13  2  0
 13 14  1  0
 14 15  2  0
 14 16  1  0
 16 17  3  0
  7 18  1  0
 18 19  2  0
 19 20  1  0
 20 21  2  0
 21 22  1  0
 21 23  1  0
 23 24  2  0
 11  7  1  0
 24 18  1  0
 15 10  1  0
  1 25  1  0
  1 26  1  0
  1 27  1  0
  3 28  1  0
  3 29  1  0
  3 30  1  0
  4 31  1  0
  4 32  1  0
  5 33  1  0
  5 34  1  0
  6 35  1  0
  6 36  1  0
  9 37  1  0
  9 38  1  0
 12 39  1  0
 13 40  1  0
 15 41  1  0
 19 42  1  0
 20 43  1  0
 23 44  1  0
 24 45  1  0
M  END
$$$$
