@<TRIPOS>MOLECULE
*****
 52 55 0 0 0
SMALL
GASTEIGER

@<TRIPOS>ATOM
      1 C           7.7902    0.4148    1.1079 C.3     1  UNL1       -0.0382
      2 C           6.4219    0.7467    0.6205 C.ar    1  UNL1       -0.0272
      3 C           5.8066   -0.0382   -0.3295 C.ar    1  UNL1       -0.0127
      4 C           4.5408    0.2335   -0.8085 C.ar    1  UNL1        0.1621
      5 N           3.7415   -0.3656   -1.7141 N.ar    1  UNL1       -0.1485
      6 N           2.6040    0.3151   -1.8035 N.ar    1  UNL1       -0.2079
      7 C           1.4979   -0.0365   -2.6833 C.3     1  UNL1        0.0731
      8 C           0.5417   -0.9522   -2.0012 C.ar    1  UNL1       -0.0073
      9 C          -0.6662   -0.5118   -1.5227 C.ar    1  UNL1       -0.0497
     10 C          -1.5692   -1.3498   -0.8844 C.ar    1  UNL1       -0.0159
     11 C          -2.8463   -0.8206   -0.3880 C.3     1  UNL1        0.1125
     12 O          -2.5339    0.3739    0.3090 O.3     1  UNL1       -0.3612
     13 C          -3.6807    1.1323    0.4533 C.3     1  UNL1        0.1108
     14 C          -3.2657    2.4173    1.1680 C.3     1  UNL1        0.0729
     15 O          -4.3629    3.2638    1.3643 O.3     1  UNL1       -0.3924
     16 C          -4.7051    0.4444    1.3315 C.3     1  UNL1        0.1117
     17 O          -5.9012    1.1632    1.1718 O.3     1  UNL1       -0.3865
     18 C          -4.9222   -0.9577    0.8708 C.3     1  UNL1        0.1121
     19 O          -5.6654   -1.6861    1.7930 O.3     1  UNL1       -0.3865
     20 C          -3.6186   -1.6860    0.5296 C.3     1  UNL1        0.1137
     21 O          -4.0337   -2.8866   -0.0468 O.3     1  UNL1       -0.3862
     22 C          -1.2010   -2.6623   -0.7472 C.ar    1  UNL1       -0.0546
     23 C           0.0255   -3.1225   -1.2301 C.ar    1  UNL1       -0.0427
     24 C           0.9073   -2.2731   -1.8609 C.ar    1  UNL1        0.0459
     25 CL          2.4594   -2.8614   -2.4708 Cl      1  UNL1       -0.0832
     26 C           2.7095    1.3422   -0.9419 C.ar    1  UNL1        0.3514
     27 O           1.8116    2.2106   -0.7529 O.2     1  UNL1       -0.2444
     28 N           3.8960    1.3089   -0.3193 N.ar    1  UNL1       -0.2494
     29 C           4.4899    2.0984    0.6227 C.ar    1  UNL1        0.0347
     30 C           5.7495    1.8430    1.1110 C.ar    1  UNL1        0.0606
     31 CL          6.5234    2.8412    2.3146 Cl      1  UNL1       -0.0818
     32 H           7.8691   -0.6982    1.2076 H       1  UNL1        0.0278
     33 H           8.5760    0.7756    0.4143 H       1  UNL1        0.0278
     34 H           7.9672    0.8873    2.0878 H       1  UNL1        0.0278
     35 H           6.3027   -0.8996   -0.7326 H       1  UNL1        0.0658
     36 H           1.8746   -0.4671   -3.6329 H       1  UNL1        0.0561
     37 H           0.9610    0.9100   -2.9671 H       1  UNL1        0.0561
     38 H          -0.9579    0.5320   -1.6319 H       1  UNL1        0.0625
     39 H          -3.5151   -0.4796   -1.2096 H       1  UNL1        0.0673
     40 H          -4.0644    1.3675   -0.5454 H       1  UNL1        0.0646
     41 H          -2.4986    2.9473    0.6023 H       1  UNL1        0.0584
     42 H          -2.9025    2.1563    2.1887 H       1  UNL1        0.0584
     43 H          -4.8959    3.2481    0.5297 H       1  UNL1        0.2095
     44 H          -4.3463    0.4538    2.3651 H       1  UNL1        0.0647
     45 H          -6.3170    0.9508    0.3125 H       1  UNL1        0.2100
     46 H          -5.4966   -0.9144   -0.0813 H       1  UNL1        0.0647
     47 H          -5.4690   -1.3213    2.6850 H       1  UNL1        0.2100
     48 H          -3.1384   -1.9204    1.4802 H       1  UNL1        0.0649
     49 H          -4.9485   -2.8747   -0.3793 H       1  UNL1        0.2100
     50 H          -1.8179   -3.3878   -0.2708 H       1  UNL1        0.0622
     51 H           0.3032   -4.1610   -1.1149 H       1  UNL1        0.0632
     52 H           3.9698    2.9563    1.0095 H       1  UNL1        0.0830
@<TRIPOS>BOND
     1     1     2    1
     2     2     3   ar
     3     3     4   ar
     4     4     5   ar
     5     5     6   ar
     6     6     7    1
     7     7     8    1
     8     8     9   ar
     9     9    10   ar
    10    10    11    1
    11    11    12    1
    12    12    13    1
    13    13    14    1
    14    14    15    1
    15    13    16    1
    16    16    17    1
    17    16    18    1
    18    18    19    1
    19    18    20    1
    20    20    21    1
    21    10    22   ar
    22    22    23   ar
    23    23    24   ar
    24    24    25    1
    25     6    26   ar
    26    26    27    2
    27    26    28   ar
    28    28    29   ar
    29    29    30   ar
    30    30    31    1
    31    30     2   ar
    32    28     4   ar
    33    24     8   ar
    34    20    11    1
    35     1    32    1
    36     1    33    1
    37     1    34    1
    38     3    35    1
    39     7    36    1
    40     7    37    1
    41     9    38    1
    42    11    39    1
    43    13    40    1
    44    14    41    1
    45    14    42    1
    46    15    43    1
    47    16    44    1
    48    17    45    1
    49    18    46    1
    50    19    47    1
    51    20    48    1
    52    21    49    1
    53    22    50    1
    54    23    51    1
    55    29    52    1
