
     RDKit          3D

 52 55  0  0  0  0  0  0  0  0999 V2000
    7.7902    0.4148    1.1079 C   0  0  0  0  0  0  0  0  0  0  0  0
    6.4219    0.7467    0.6205 C   0  0  0  0  0  0  0  0  0  0  0  0
    5.8066   -0.0382   -0.3295 C   0  0  0  0  0  0  0  0  0  0  0  0
    4.5408    0.2335   -0.8085 C   0  0  0  0  0  0  0  0  0  0  0  0
    3.7415   -0.3656   -1.7141 N   0  0  0  0  0  0  0  0  0  0  0  0
    2.6040    0.3151   -1.8035 N   0  0  0  0  0  0  0  0  0  0  0  0
    1.4979   -0.0365   -2.6833 C   0  0  0  0  0  0  0  0  0  0  0  0
    0.5417   -0.9522   -2.0012 C   0  0  0  0  0  0  0  0  0  0  0  0
   -0.6662   -0.5118   -1.5227 C   0  0  0  0  0  0  0  0  0  0  0  0
   -1.5692   -1.3498   -0.8844 C   0  0  0  0  0  0  0  0  0  0  0  0
   -2.8463   -0.8206   -0.3880 C   0  0  2  0  0  0  0  0  0  0  0  0
   -2.5339    0.3739    0.3090 O   0  0  0  0  0  0  0  0  0  0  0  0
   -3.6807    1.1323    0.4533 C   0  0  2  0  0  0  0  0  0  0  0  0
   -3.2657    2.4173    1.1680 C   0  0  0  0  0  0  0  0  0  0  0  0
   -4.3629    3.2638    1.3643 O   0  0  0  0  0  0  0  0  0  0  0  0
   -4.7051    0.4444    1.3315 C   0  0  1  0  0  0  0  0  0  0  0  0
   -5.9012    1.1632    1.1718 O   0  0  0  0  0  0  0  0  0  0  0  0
   -4.9222   -0.9577    0.8708 C   0  0  2  0  0  0  0  0  0  0  0  0
   -5.6654   -1.6861    1.7930 O   0  0  0  0  0  0  0  0  0  0  0  0
   -3.6186   -1.6860    0.5296 C   0  0  1  0  0  0  0  0  0  0  0  0
   -4.0337   -2.8866   -0.0468 O   0  0  0  0  0  0  0  0  0  0  0  0
   -1.2010   -2.6623   -0.7472 C   0  0  0  0  0  0  0  0  0  0  0  0
    0.0255   -3.1225   -1.2301 C   0  0  0  0  0  0  0  0  0  0  0  0
    0.9073   -2.2731   -1.8609 C   0  0  0  0  0  0  0  0  0  0  0  0
    2.4594   -2.8614   -2.4708 Cl  0  0  0  0  0  0  0  0  0  0  0  0
    2.7095    1.3422   -0.9419 C   0  0  0  0  0  0  0  0  0  0  0  0
    1.8116    2.2106   -0.7529 O   0  0  0  0  0  0  0  0  0  0  0  0
    3.8960    1.3089   -0.3193 N   0  0  0  0  0  0  0  0  0  0  0  0
    4.4899    2.0984    0.6227 C   0  0  0  0  0  0  0  0  0  0  0  0
    5.7495    1.8430    1.1110 C   0  0  0  0  0  0  0  0  0  0  0  0
    6.5234    2.8412    2.3146 Cl  0  0  0  0  0  0  0  0  0  0  0  0
    7.8691   -0.6982    1.2076 H   0  0  0  0  0  0  0  0  0  0  0  0
    8.5760    0.7756    0.4143 H   0  0  0  0  0  0  0  0  0  0  0  0
    7.9672    0.8873    2.0878 H   0  0  0  0  0  0  0  0  0  0  0  0
    6.3027   -0.8996   -0.7326 H   0  0  0  0  0  0  0  0  0  0  0  0
    1.8746   -0.4671   -3.6329 H   0  0  0  0  0  0  0  0  0  0  0  0
    0.9610    0.9100   -2.9671 H   0  0  0  0  0  0  0  0  0  0  0  0
   -0.9579    0.5320   -1.6319 H   0  0  0  0  0  0  0  0  0  0  0  0
   -3.5151   -0.4796   -1.2096 H   0  0  0  0  0  0  0  0  0  0  0  0
   -4.0644    1.3675   -0.5454 H   0  0  0  0  0  0  0  0  0  0  0  0
   -2.4986    2.9473    0.6023 H   0  0  0  0  0  0  0  0  0  0  0  0
   -2.9025    2.1563    2.1887 H   0  0  0  0  0  0  0  0  0  0  0  0
   -4.8959    3.2481    0.5297 H   0  0  0  0  0  0  0  0  0  0  0  0
   -4.3463    0.4538    2.3651 H   0  0  0  0  0  0  0  0  0  0  0  0
   -6.3170    0.9508    0.3125 H   0  0  0  0  0  0  0  0  0  0  0  0
   -5.4966   -0.9144   -0.0813 H   0  0  0  0  0  0  0  0  0  0  0  0
   -5.4690   -1.3213    2.6850 H   0  0  0  0  0  0  0  0  0  0  0  0
   -3.1384   -1.9204    1.4802 H   0  0  0  0  0  0  0  0  0  0  0  0
   -4.9485   -2.8747   -0.3793 H   0  0  0  0  0  0  0  0  0  0  0  0
   -1.8179   -3.3878   -0.2708 H   0  0  0  0  0  0  0  0  0  0  0  0
    0.3032   -4.1610   -1.1149 H   0  0  0  0  0  0  0  0  0  0  0  0
    3.9698    2.9563    1.0095 H   0  0  0  0  0  0  0  0  0  0  0  0
  1  2  1  0
  2  3  2  0
  3  4  1  0
  4  5  2  0
  5  6  1  0
  6  7  1  0
  7  8  1  0
  8  9  2  0
  9 10  1  0
 10 11  1  0
 11 12  1  0
 12 13  1  0
 13 14  1  0
 14 15  1  0
 13 16  1  0
 16 17  1  0
 16 18  1  0
 18 19  1  0
 18 20  1  0
 20 21  1  0
 10 22  2  0
 22 23  1  0
 23 24  2  0
 24 25  1  0
  6 26  1  0
 26 27  2  0
 26 28  1  0
 28 29  1  0
 29 30  2  0
 30 31  1  0
 30  2  1  0
 28  4  1  0
 24  8  1  0
 20 11  1  0
  1 32  1  0
  1 33  1  0
  1 34  1  0
  3 35  1  0
  7 36  1  0
  7 37  1  0
  9 38  1  0
 11 39  1  6
 13 40  1  6
 14 41  1  0
 14 42  1  0
 15 43  1  0
 16 44  1  1
 17 45  1  0
 18 46  1  6
 19 47  1  0
 20 48  1  1
 21 49  1  0
 22 50  1  0
 23 51  1  0
 29 52  1  0
M  END
$$$$
