
     RDKit          3D

 49 49  0  0  0  0  0  0  0  0999 V2000
   -5.2433    0.1018   -0.4690 C   0  0  2  0  0  0  0  0  0  0  0  0
   -5.8680    1.3475   -0.4530 O   0  0  0  0  0  0  0  0  0  0  0  0
   -4.4202   -0.1268    0.7388 C   0  0  0  0  0  0  0  0  0  0  0  0
   -5.2785   -0.2838    1.9700 C   0  0  0  0  0  0  0  0  0  0  0  0
   -6.0556    0.8429    2.2128 O   0  0  0  0  0  0  0  0  0  0  0  0
   -3.0948   -0.2050    0.8577 C   0  0  0  0  0  0  0  0  0  0  0  0
   -2.4449   -0.0196   -0.4928 C   0  0  1  0  0  0  0  0  0  0  0  0
   -1.0561   -0.4280   -0.4519 N   0  0  0  0  0  0  0  0  0  0  0  0
   -0.2799    0.3140    0.4894 C   0  0  0  0  0  0  0  0  0  0  0  0
    1.1736   -0.1767    0.4721 C   0  0  0  0  0  0  0  0  0  0  0  0
    1.9451    0.6392    1.4819 C   0  0  0  0  0  0  0  0  0  0  0  0
    3.4057    0.2526    1.5653 C   0  0  0  0  0  0  0  0  0  0  0  0
    4.1171    0.4309    0.2557 C   0  0  0  0  0  0  0  0  0  0  0  0
    5.5870    0.0243    0.4045 C   0  0  0  0  0  0  0  0  0  0  0  0
    6.3230    0.1911   -0.8855 C   0  0  0  0  0  0  0  0  0  0  0  0
    7.7655   -0.2218   -0.6885 C   0  0  0  0  0  0  0  0  0  0  0  0
   -3.2379   -0.8958   -1.4396 C   0  0  2  0  0  0  0  0  0  0  0  0
   -2.5164   -1.2123   -2.5830 O   0  0  0  0  0  0  0  0  0  0  0  0
   -4.4941   -0.1109   -1.7649 C   0  0  1  0  0  0  0  0  0  0  0  0
   -5.2745   -0.7489   -2.7184 O   0  0  0  0  0  0  0  0  0  0  0  0
   -6.0892   -0.6383   -0.4929 H   0  0  0  0  0  0  0  0  0  0  0  0
   -6.6102    1.2959   -1.1178 H   0  0  0  0  0  0  0  0  0  0  0  0
   -4.6853   -0.5308    2.8547 H   0  0  0  0  0  0  0  0  0  0  0  0
   -5.9636   -1.1374    1.7807 H   0  0  0  0  0  0  0  0  0  0  0  0
   -5.5754    1.6675    1.9050 H   0  0  0  0  0  0  0  0  0  0  0  0
   -2.6552   -0.3768    1.8165 H   0  0  0  0  0  0  0  0  0  0  0  0
   -2.5744    1.0405   -0.7684 H   0  0  0  0  0  0  0  0  0  0  0  0
   -0.6756   -0.2173   -1.4054 H   0  0  0  0  0  0  0  0  0  0  0  0
   -0.2895    1.4021    0.3636 H   0  0  0  0  0  0  0  0  0  0  0  0
   -0.6659    0.0439    1.5070 H   0  0  0  0  0  0  0  0  0  0  0  0
    1.2264   -1.2483    0.7346 H   0  0  0  0  0  0  0  0  0  0  0  0
    1.6292   -0.0165   -0.5370 H   0  0  0  0  0  0  0  0  0  0  0  0
    1.8412    1.6920    1.1985 H   0  0  0  0  0  0  0  0  0  0  0  0
    1.4745    0.4627    2.4561 H   0  0  0  0  0  0  0  0  0  0  0  0
    3.5350   -0.7731    1.9175 H   0  0  0  0  0  0  0  0  0  0  0  0
    3.8649    0.9670    2.2819 H   0  0  0  0  0  0  0  0  0  0  0  0
    3.6839   -0.2429   -0.5299 H   0  0  0  0  0  0  0  0  0  0  0  0
    4.1027    1.4835   -0.0752 H   0  0  0  0  0  0  0  0  0  0  0  0
    6.0676    0.7239    1.1446 H   0  0  0  0  0  0  0  0  0  0  0  0
    5.6366   -1.0279    0.7570 H   0  0  0  0  0  0  0  0  0  0  0  0
    6.2882    1.2415   -1.2100 H   0  0  0  0  0  0  0  0  0  0  0  0
    5.8231   -0.4923   -1.6236 H   0  0  0  0  0  0  0  0  0  0  0  0
    7.9897   -0.2632    0.3809 H   0  0  0  0  0  0  0  0  0  0  0  0
    7.8940   -1.2344   -1.1228 H   0  0  0  0  0  0  0  0  0  0  0  0
    8.4179    0.5016   -1.2235 H   0  0  0  0  0  0  0  0  0  0  0  0
   -3.5729   -1.7945   -0.8862 H   0  0  0  0  0  0  0  0  0  0  0  0
   -2.2902   -2.1879   -2.5236 H   0  0  0  0  0  0  0  0  0  0  0  0
   -4.1988    0.9045   -2.1197 H   0  0  0  0  0  0  0  0  0  0  0  0
   -4.6814   -0.9600   -3.4843 H   0  0  0  0  0  0  0  0  0  0  0  0
  1  2  1  0
  1  3  1  0
  3  4  1  0
  4  5  1  0
  3  6  2  0
  6  7  1  0
  7  8  1  0
  8  9  1  0
  9 10  1  0
 10 11  1  0
 11 12  1  0
 12 13  1  0
 13 14  1  0
 14 15  1  0
 15 16  1  0
  7 17  1  0
 17 18  1  0
 17 19  1  0
 19 20  1  0
 19  1  1  0
  1 21  1  1
  2 22  1  0
  4 23  1  0
  4 24  1  0
  5 25  1  0
  6 26  1  0
  7 27  1  6
  8 28  1  0
  9 29  1  0
  9 30  1  0
 10 31  1  0
 10 32  1  0
 11 33  1  0
 11 34  1  0
 12 35  1  0
 12 36  1  0
 13 37  1  0
 13 38  1  0
 14 39  1  0
 14 40  1  0
 15 41  1  0
 15 42  1  0
 16 43  1  0
 16 44  1  0
 16 45  1  0
 17 46  1  1
 18 47  1  0
 19 48  1  6
 20 49  1  0
M  END
$$$$
