@<TRIPOS>MOLECULE
*****
 49 49 0 0 0
SMALL
GASTEIGER

@<TRIPOS>ATOM
      1 C          -5.2433    0.1018   -0.4690 C.3     1  UNL1        0.1067
      2 O          -5.8680    1.3475   -0.4530 O.3     1  UNL1       -0.3848
      3 C          -4.4202   -0.1268    0.7388 C.2     1  UNL1       -0.0162
      4 C          -5.2785   -0.2838    1.9700 C.3     1  UNL1        0.0678
      5 O          -6.0556    0.8429    2.2128 O.3     1  UNL1       -0.3906
      6 C          -3.0948   -0.2050    0.8577 C.2     1  UNL1       -0.0608
      7 C          -2.4449   -0.0196   -0.4928 C.3     1  UNL1        0.0552
      8 N          -1.0561   -0.4280   -0.4519 N.3     1  UNL1       -0.3077
      9 C          -0.2799    0.3140    0.4894 C.3     1  UNL1       -0.0035
     10 C           1.1736   -0.1767    0.4721 C.3     1  UNL1       -0.0404
     11 C           1.9451    0.6392    1.4819 C.3     1  UNL1       -0.0519
     12 C           3.4057    0.2526    1.5653 C.3     1  UNL1       -0.0530
     13 C           4.1171    0.4309    0.2557 C.3     1  UNL1       -0.0531
     14 C           5.5870    0.0243    0.4045 C.3     1  UNL1       -0.0533
     15 C           6.3230    0.1911   -0.8855 C.3     1  UNL1       -0.0559
     16 C           7.7655   -0.2218   -0.6885 C.3     1  UNL1       -0.0653
     17 C          -3.2379   -0.8958   -1.4396 C.3     1  UNL1        0.1026
     18 O          -2.5164   -1.2123   -2.5830 O.3     1  UNL1       -0.3873
     19 C          -4.4941   -0.1109   -1.7649 C.3     1  UNL1        0.1124
     20 O          -5.2745   -0.7489   -2.7184 O.3     1  UNL1       -0.3863
     21 H          -6.0892   -0.6383   -0.4929 H       1  UNL1        0.0668
     22 H          -6.6102    1.2959   -1.1178 H       1  UNL1        0.2103
     23 H          -4.6853   -0.5308    2.8547 H       1  UNL1        0.0605
     24 H          -5.9636   -1.1374    1.7807 H       1  UNL1        0.0605
     25 H          -5.5754    1.6675    1.9050 H       1  UNL1        0.2098
     26 H          -2.6552   -0.3768    1.8165 H       1  UNL1        0.0589
     27 H          -2.5744    1.0405   -0.7684 H       1  UNL1        0.0531
     28 H          -0.6756   -0.2173   -1.4054 H       1  UNL1        0.1226
     29 H          -0.2895    1.4021    0.3636 H       1  UNL1        0.0424
     30 H          -0.6659    0.0439    1.5070 H       1  UNL1        0.0424
     31 H           1.2264   -1.2483    0.7346 H       1  UNL1        0.0277
     32 H           1.6292   -0.0165   -0.5370 H       1  UNL1        0.0277
     33 H           1.8412    1.6920    1.1985 H       1  UNL1        0.0266
     34 H           1.4745    0.4627    2.4561 H       1  UNL1        0.0266
     35 H           3.5350   -0.7731    1.9175 H       1  UNL1        0.0265
     36 H           3.8649    0.9670    2.2819 H       1  UNL1        0.0265
     37 H           3.6839   -0.2429   -0.5299 H       1  UNL1        0.0265
     38 H           4.1027    1.4835   -0.0752 H       1  UNL1        0.0265
     39 H           6.0676    0.7239    1.1446 H       1  UNL1        0.0265
     40 H           5.6366   -1.0279    0.7570 H       1  UNL1        0.0265
     41 H           6.2882    1.2415   -1.2100 H       1  UNL1        0.0263
     42 H           5.8231   -0.4923   -1.6236 H       1  UNL1        0.0263
     43 H           7.9897   -0.2632    0.3809 H       1  UNL1        0.0230
     44 H           7.8940   -1.2344   -1.1228 H       1  UNL1        0.0230
     45 H           8.4179    0.5016   -1.2235 H       1  UNL1        0.0230
     46 H          -3.5729   -1.7945   -0.8862 H       1  UNL1        0.0639
     47 H          -2.2902   -2.1879   -2.5236 H       1  UNL1        0.2100
     48 H          -4.1988    0.9045   -2.1197 H       1  UNL1        0.0649
     49 H          -4.6814   -0.9600   -3.4843 H       1  UNL1        0.2100
@<TRIPOS>BOND
     1     1     2    1
     2     1     3    1
     3     3     4    1
     4     4     5    1
     5     3     6    2
     6     6     7    1
     7     7     8    1
     8     8     9    1
     9     9    10    1
    10    10    11    1
    11    11    12    1
    12    12    13    1
    13    13    14    1
    14    14    15    1
    15    15    16    1
    16     7    17    1
    17    17    18    1
    18    17    19    1
    19    19    20    1
    20    19     1    1
    21     1    21    1
    22     2    22    1
    23     4    23    1
    24     4    24    1
    25     5    25    1
    26     6    26    1
    27     7    27    1
    28     8    28    1
    29     9    29    1
    30     9    30    1
    31    10    31    1
    32    10    32    1
    33    11    33    1
    34    11    34    1
    35    12    35    1
    36    12    36    1
    37    13    37    1
    38    13    38    1
    39    14    39    1
    40    14    40    1
    41    15    41    1
    42    15    42    1
    43    16    43    1
    44    16    44    1
    45    16    45    1
    46    17    46    1
    47    18    47    1
    48    19    48    1
    49    20    49    1
