@<TRIPOS>MOLECULE
*****
 39 42 0 0 0
SMALL
GASTEIGER

@<TRIPOS>ATOM
      1 N          -2.7614   -3.3164    2.8075 N.1     1  UNL1       -0.1893
      2 C          -2.7969   -2.9429    1.6858 C.1     1  UNL1        0.1192
      3 C          -2.8149   -2.4934    0.3358 C.ar    1  UNL1        0.1438
      4 C          -3.5488   -3.0548   -0.6888 C.ar    1  UNL1        0.0643
      5 N          -3.2575   -2.3497   -1.7834 N.ar    1  UNL1       -0.2348
      6 C          -2.3797   -1.3705   -1.5170 C.ar    1  UNL1        0.1385
      7 C          -1.7605   -0.3989   -2.2650 C.ar    1  UNL1       -0.0181
      8 C          -0.8690    0.4751   -1.6741 C.ar    1  UNL1       -0.0477
      9 C          -0.5751    0.4062   -0.3358 C.ar    1  UNL1        0.0173
     10 C           0.3442    1.2800    0.3406 C.ar    1  UNL1        0.0780
     11 C           1.6146    0.8597    0.7337 C.ar    1  UNL1        0.0967
     12 C           2.1864   -0.4493    0.5008 C.ar    1  UNL1        0.0026
     13 C           2.3775   -0.9381   -0.7818 C.ar    1  UNL1       -0.0498
     14 C           2.9234   -2.1752   -1.0238 C.ar    1  UNL1       -0.0258
     15 C           3.2881   -2.9442    0.0528 C.ar    1  UNL1        0.1234
     16 F           3.8435   -4.1914   -0.0667 F       1  UNL1       -0.2055
     17 C           3.1106   -2.4847    1.3588 C.ar    1  UNL1       -0.0258
     18 C           2.5528   -1.2229    1.5693 C.ar    1  UNL1       -0.0498
     19 N           2.2035    1.8817    1.3668 N.ar    1  UNL1       -0.2351
     20 C           1.3514    2.9173    1.3820 C.ar    1  UNL1        0.0972
     21 N           0.1904    2.5370    0.7390 N.ar    1  UNL1       -0.3241
     22 C          -0.9278    3.4249    0.5559 C.3     1  UNL1        0.0852
     23 C          -0.8012    4.3244   -0.6362 C.3     1  UNL1        0.2569
     24 F           0.3412    5.1330   -0.5390 F       1  UNL1       -0.2073
     25 F          -0.7288    3.7119   -1.8505 F       1  UNL1       -0.2073
     26 C          -1.2427   -0.6095    0.3669 C.ar    1  UNL1        0.0216
     27 N          -2.1061   -1.4576   -0.2094 N.ar    1  UNL1       -0.2906
     28 H          -4.2280   -3.9036   -0.6122 H       1  UNL1        0.0859
     29 H          -1.9558   -0.2979   -3.3358 H       1  UNL1        0.0654
     30 H          -0.4073    1.1900   -2.3048 H       1  UNL1        0.0626
     31 H           2.0800   -0.3090   -1.5969 H       1  UNL1        0.0625
     32 H           3.0790   -2.5737   -2.0136 H       1  UNL1        0.0646
     33 H           3.3819   -3.0510    2.2305 H       1  UNL1        0.0646
     34 H           2.3912   -0.8199    2.5662 H       1  UNL1        0.0625
     35 H           1.5092    3.9103    1.8177 H       1  UNL1        0.1029
     36 H          -1.9070    2.9016    0.5920 H       1  UNL1        0.0548
     37 H          -0.9608    4.1092    1.4599 H       1  UNL1        0.0548
     38 H          -1.7137    4.9747   -0.6497 H       1  UNL1        0.1037
     39 H          -1.0257   -0.6825    1.4224 H       1  UNL1        0.0820
@<TRIPOS>BOND
     1     1     2    3
     2     2     3    1
     3     3     4   ar
     4     4     5   ar
     5     5     6   ar
     6     6     7   ar
     7     7     8   ar
     8     8     9   ar
     9     9    10    1
    10    10    11   ar
    11    11    12    1
    12    12    13   ar
    13    13    14   ar
    14    14    15   ar
    15    15    16    1
    16    15    17   ar
    17    17    18   ar
    18    11    19   ar
    19    19    20   ar
    20    20    21   ar
    21    21    22    1
    22    22    23    1
    23    23    24    1
    24    23    25    1
    25     9    26   ar
    26    26    27   ar
    27    27     3   ar
    28    27     6   ar
    29    21    10   ar
    30    18    12   ar
    31     4    28    1
    32     7    29    1
    33     8    30    1
    34    13    31    1
    35    14    32    1
    36    17    33    1
    37    18    34    1
    38    20    35    1
    39    22    36    1
    40    22    37    1
    41    23    38    1
    42    26    39    1
