
     RDKit          3D

 26 28  0  0  0  0  0  0  0  0999 V2000
    2.4743    2.0104    1.4963 O   0  0  0  0  0  0  0  0  0  0  0  0
    2.4641    0.8318    0.7630 C   0  0  0  0  0  0  0  0  0  0  0  0
    3.6643    0.1749    0.4751 C   0  0  0  0  0  0  0  0  0  0  0  0
    3.5752   -0.9933   -0.2595 C   0  0  0  0  0  0  0  0  0  0  0  0
    2.4081   -1.5607   -0.7290 C   0  0  0  0  0  0  0  0  0  0  0  0
    1.2163   -0.8921   -0.4331 C   0  0  0  0  0  0  0  0  0  0  0  0
    1.2896    0.2755    0.2997 C   0  0  0  0  0  0  0  0  0  0  0  0
    0.0250    0.9737    0.6068 C   0  0  0  0  0  0  0  0  0  0  0  0
    0.0569    2.0235    1.2622 O   0  0  0  0  0  0  0  0  0  0  0  0
   -1.2205    0.4179    0.1367 C   0  0  0  0  0  0  0  0  0  0  0  0
   -1.2931   -0.7489   -0.5955 C   0  0  0  0  0  0  0  0  0  0  0  0
   -2.4766   -1.3184   -1.0679 C   0  0  0  0  0  0  0  0  0  0  0  0
   -3.6431   -0.6424   -0.7648 C   0  0  0  0  0  0  0  0  0  0  0  0
   -3.6034    0.5294   -0.0328 C   0  0  0  0  0  0  0  0  0  0  0  0
   -2.4082    1.0667    0.4207 C   0  0  0  0  0  0  0  0  0  0  0  0
   -2.3810    2.2418    1.1535 O   0  0  0  0  0  0  0  0  0  0  0  0
   -0.0396   -1.4586   -0.9108 C   0  0  0  0  0  0  0  0  0  0  0  0
    0.0123   -2.5434   -1.5796 O   0  0  0  0  0  0  0  0  0  0  0  0
    2.4202    2.9304    1.0801 H   0  0  0  0  0  0  0  0  0  0  0  0
    4.6129    0.5654    0.8129 H   0  0  0  0  0  0  0  0  0  0  0  0
    4.5483   -1.4701   -0.4583 H   0  0  0  0  0  0  0  0  0  0  0  0
    2.4440   -2.4806   -1.2970 H   0  0  0  0  0  0  0  0  0  0  0  0
   -2.4606   -2.2256   -1.6300 H   0  0  0  0  0  0  0  0  0  0  0  0
   -4.6138   -1.0307   -1.1033 H   0  0  0  0  0  0  0  0  0  0  0  0
   -4.5331    1.0510    0.1981 H   0  0  0  0  0  0  0  0  0  0  0  0
   -2.5387    2.2726    2.1565 H   0  0  0  0  0  0  0  0  0  0  0  0
  1  2  1  0
  2  3  2  0
  3  4  1  0
  4  5  2  0
  5  6  1  0
  6  7  2  0
  7  8  1  0
  8  9  2  0
  8 10  1  0
 10 11  2  0
 11 12  1  0
 12 13  2  0
 13 14  1  0
 14 15  2  0
 15 16  1  0
 11 17  1  0
 17 18  2  0
  7  2  1  0
 15 10  1  0
 17  6  1  0
  1 19  1  0
  3 20  1  0
  4 21  1  0
  5 22  1  0
 12 23  1  0
 13 24  1  0
 14 25  1  0
 16 26  1  0
M  END
$$$$
