@<TRIPOS>MOLECULE
*****
 26 28 0 0 0
SMALL
GASTEIGER

@<TRIPOS>ATOM
      1 O           2.4743    2.0104    1.4963 O.3     1  UNL1       -0.5060
      2 C           2.4641    0.8318    0.7630 C.ar    1  UNL1        0.1283
      3 C           3.6643    0.1749    0.4751 C.ar    1  UNL1       -0.0194
      4 C           3.5752   -0.9933   -0.2595 C.ar    1  UNL1       -0.0576
      5 C           2.4081   -1.5607   -0.7290 C.ar    1  UNL1       -0.0500
      6 C           1.2163   -0.8921   -0.4331 C.ar    1  UNL1        0.0366
      7 C           1.2896    0.2755    0.2997 C.ar    1  UNL1        0.0745
      8 C           0.0250    0.9737    0.6068 C.2     1  UNL1        0.2015
      9 O           0.0569    2.0235    1.2622 O.2     1  UNL1       -0.2864
     10 C          -1.2205    0.4179    0.1367 C.ar    1  UNL1        0.0745
     11 C          -1.2931   -0.7489   -0.5955 C.ar    1  UNL1        0.0366
     12 C          -2.4766   -1.3184   -1.0679 C.ar    1  UNL1       -0.0500
     13 C          -3.6431   -0.6424   -0.7648 C.ar    1  UNL1       -0.0576
     14 C          -3.6034    0.5294   -0.0328 C.ar    1  UNL1       -0.0194
     15 C          -2.4082    1.0667    0.4207 C.ar    1  UNL1        0.1283
     16 O          -2.3810    2.2418    1.1535 O.3     1  UNL1       -0.5060
     17 C          -0.0396   -1.4586   -0.9108 C.2     1  UNL1        0.1947
     18 O           0.0123   -2.5434   -1.5796 O.2     1  UNL1       -0.2866
     19 H           2.4202    2.9304    1.0801 H       1  UNL1        0.2922
     20 H           4.6129    0.5654    0.8129 H       1  UNL1        0.0654
     21 H           4.5483   -1.4701   -0.4583 H       1  UNL1        0.0619
     22 H           2.4440   -2.4806   -1.2970 H       1  UNL1        0.0625
     23 H          -2.4606   -2.2256   -1.6300 H       1  UNL1        0.0625
     24 H          -4.6138   -1.0307   -1.1033 H       1  UNL1        0.0619
     25 H          -4.5331    1.0510    0.1981 H       1  UNL1        0.0654
     26 H          -2.5387    2.2726    2.1565 H       1  UNL1        0.2922
@<TRIPOS>BOND
     1     1     2    1
     2     2     3   ar
     3     3     4   ar
     4     4     5   ar
     5     5     6   ar
     6     6     7   ar
     7     7     8    1
     8     8     9    2
     9     8    10    1
    10    10    11   ar
    11    11    12   ar
    12    12    13   ar
    13    13    14   ar
    14    14    15   ar
    15    15    16    1
    16    11    17    1
    17    17    18    2
    18     7     2   ar
    19    15    10   ar
    20    17     6    1
    21     1    19    1
    22     3    20    1
    23     4    21    1
    24     5    22    1
    25    12    23    1
    26    13    24    1
    27    14    25    1
    28    16    26    1
