
     RDKit          3D

 73 76  0  0  0  0  0  0  0  0999 V2000
   -5.6321    2.2061    4.5292 C   0  0  0  0  0  0  0  0  0  0  0  0
   -4.6262    1.8116    3.4704 C   0  0  0  0  0  0  0  0  0  0  0  0
   -5.0909    0.7126    2.6642 N   0  0  0  0  0  0  0  0  0  0  0  0
   -4.2972    0.1855    1.6158 C   0  0  0  0  0  0  0  0  0  0  0  0
   -3.0479    0.7087    1.3288 C   0  0  0  0  0  0  0  0  0  0  0  0
   -2.2547    0.2172    0.3197 C   0  0  0  0  0  0  0  0  0  0  0  0
   -0.9486    0.8570    0.1096 C   0  0  0  0  0  0  0  0  0  0  0  0
   -0.6569    1.8351    0.8472 O   0  0  0  0  0  0  0  0  0  0  0  0
   -0.0270    0.4398   -0.8540 N   0  0  0  0  0  0  0  0  0  0  0  0
    1.2494    1.0986   -1.0246 C   0  0  1  0  0  0  0  0  0  0  0  0
    1.0359    2.4522   -1.5578 C   0  0  0  0  0  0  0  0  0  0  0  0
    2.1852    3.3041   -1.8042 C   0  0  0  0  0  0  0  0  0  0  0  0
    2.8513    3.2785   -3.0014 C   0  0  0  0  0  0  0  0  0  0  0  0
    3.9466    4.0890   -3.2769 C   0  0  0  0  0  0  0  0  0  0  0  0
    4.3456    4.9412   -2.2717 C   0  0  0  0  0  0  0  0  0  0  0  0
    3.7005    4.9952   -1.0541 C   0  0  0  0  0  0  0  0  0  0  0  0
    2.6199    4.1706   -0.8315 C   0  0  0  0  0  0  0  0  0  0  0  0
    2.0618    0.9542    0.2152 C   0  0  2  0  0  0  0  0  0  0  0  0
    3.3027    1.5133    0.1461 O   0  0  0  0  0  0  0  0  0  0  0  0
    2.1635   -0.5145    0.5406 C   0  0  0  0  0  0  0  0  0  0  0  0
    2.7794   -0.8326    1.7835 N   0  0  0  0  0  0  0  0  0  0  0  0
    4.1876   -0.6445    1.9110 C   0  0  0  0  0  0  0  0  0  0  0  0
    4.9817   -1.6085    1.0587 C   0  0  0  0  0  0  0  0  0  0  0  0
    5.3282   -2.8459    1.5911 C   0  0  0  0  0  0  0  0  0  0  0  0
    6.0513   -3.7332    0.8401 C   0  0  0  0  0  0  0  0  0  0  0  0
    6.4404   -3.4204   -0.4320 C   0  0  0  0  0  0  0  0  0  0  0  0
    6.1045   -2.2029   -0.9682 C   0  0  0  0  0  0  0  0  0  0  0  0
    6.5877   -1.7749   -2.5932 Cl  0  0  0  0  0  0  0  0  0  0  0  0
    5.3656   -1.2906   -0.2066 C   0  0  0  0  0  0  0  0  0  0  0  0
   -2.7239   -0.8342   -0.4307 C   0  0  0  0  0  0  0  0  0  0  0  0
   -3.9617   -1.4071   -0.2011 C   0  0  0  0  0  0  0  0  0  0  0  0
   -4.4597   -2.4915   -0.9634 N   0  0  0  0  0  0  0  0  0  0  0  0
   -5.7550   -3.1092   -0.7667 C   0  0  0  0  0  0  0  0  0  0  0  0
   -5.8390   -4.2294   -1.7699 C   0  0  0  0  0  0  0  0  0  0  0  0
   -4.8268   -3.9003   -2.8394 C   0  0  0  0  0  0  0  0  0  0  0  0
   -3.8011   -3.1483   -2.0286 C   0  0  0  0  0  0  0  0  0  0  0  0
   -2.5908   -3.1702   -2.3363 O   0  0  0  0  0  0  0  0  0  0  0  0
   -4.7255   -0.8654    0.8392 C   0  0  0  0  0  0  0  0  0  0  0  0
   -6.5713    2.5036    4.0656 H   0  0  0  0  0  0  0  0  0  0  0  0
   -5.7469    1.3017    5.1919 H   0  0  0  0  0  0  0  0  0  0  0  0
   -5.1640    2.9789    5.1728 H   0  0  0  0  0  0  0  0  0  0  0  0
   -4.4292    2.6613    2.7685 H   0  0  0  0  0  0  0  0  0  0  0  0
   -3.6524    1.5195    3.9139 H   0  0  0  0  0  0  0  0  0  0  0  0
   -6.0183    0.2913    2.8431 H   0  0  0  0  0  0  0  0  0  0  0  0
   -2.7391    1.5423    1.9641 H   0  0  0  0  0  0  0  0  0  0  0  0
   -0.2981   -0.3903   -1.4673 H   0  0  0  0  0  0  0  0  0  0  0  0
    1.8016    0.5080   -1.8195 H   0  0  0  0  0  0  0  0  0  0  0  0
    0.3959    2.3330   -2.4886 H   0  0  0  0  0  0  0  0  0  0  0  0
    0.3361    3.0151   -0.8695 H   0  0  0  0  0  0  0  0  0  0  0  0
    2.5546    2.6116   -3.8146 H   0  0  0  0  0  0  0  0  0  0  0  0
    4.4599    4.0496   -4.2382 H   0  0  0  0  0  0  0  0  0  0  0  0
    5.2021    5.6013   -2.4354 H   0  0  0  0  0  0  0  0  0  0  0  0
    4.0166    5.6702   -0.2590 H   0  0  0  0  0  0  0  0  0  0  0  0
    2.1127    4.2246    0.1479 H   0  0  0  0  0  0  0  0  0  0  0  0
    1.5576    1.4078    1.1126 H   0  0  0  0  0  0  0  0  0  0  0  0
    3.6923    1.5244   -0.7656 H   0  0  0  0  0  0  0  0  0  0  0  0
    2.6990   -1.0623   -0.3010 H   0  0  0  0  0  0  0  0  0  0  0  0
    1.1498   -0.9940    0.5469 H   0  0  0  0  0  0  0  0  0  0  0  0
    2.3077   -0.4136    2.6085 H   0  0  0  0  0  0  0  0  0  0  0  0
    4.4349   -0.9086    2.9859 H   0  0  0  0  0  0  0  0  0  0  0  0
    4.5002    0.3711    1.6752 H   0  0  0  0  0  0  0  0  0  0  0  0
    5.0258   -3.0909    2.5813 H   0  0  0  0  0  0  0  0  0  0  0  0
    6.3417   -4.7235    1.2348 H   0  0  0  0  0  0  0  0  0  0  0  0
    7.0170   -4.1495   -1.0084 H   0  0  0  0  0  0  0  0  0  0  0  0
    5.1233   -0.3438   -0.6620 H   0  0  0  0  0  0  0  0  0  0  0  0
   -2.0961   -1.2234   -1.2333 H   0  0  0  0  0  0  0  0  0  0  0  0
   -6.5249   -2.3348   -0.9773 H   0  0  0  0  0  0  0  0  0  0  0  0
   -5.7782   -3.4690    0.2797 H   0  0  0  0  0  0  0  0  0  0  0  0
   -5.5635   -5.2057   -1.3091 H   0  0  0  0  0  0  0  0  0  0  0  0
   -6.8625   -4.2344   -2.1812 H   0  0  0  0  0  0  0  0  0  0  0  0
   -4.3897   -4.8053   -3.2862 H   0  0  0  0  0  0  0  0  0  0  0  0
   -5.2219   -3.1900   -3.5854 H   0  0  0  0  0  0  0  0  0  0  0  0
   -5.6970   -1.3231    1.0112 H   0  0  0  0  0  0  0  0  0  0  0  0
  1  2  1  0
  2  3  1  0
  3  4  1  0
  4  5  2  0
  5  6  1  0
  6  7  1  0
  7  8  2  0
  7  9  1  0
  9 10  1  0
 10 11  1  0
 11 12  1  0
 12 13  2  0
 13 14  1  0
 14 15  2  0
 15 16  1  0
 16 17  2  0
 10 18  1  0
 18 19  1  0
 18 20  1  0
 20 21  1  0
 21 22  1  0
 22 23  1  0
 23 24  2  0
 24 25  1  0
 25 26  2  0
 26 27  1  0
 27 28  1  0
 27 29  2  0
  6 30  2  0
 30 31  1  0
 31 32  1  0
 32 33  1  0
 33 34  1  0
 34 35  1  0
 35 36  1  0
 36 37  2  0
 31 38  2  0
 38  4  1  0
 17 12  1  0
 29 23  1  0
 36 32  1  0
  1 39  1  0
  1 40  1  0
  1 41  1  0
  2 42  1  0
  2 43  1  0
  3 44  1  0
  5 45  1  0
  9 46  1  0
 10 47  1  6
 11 48  1  0
 11 49  1  0
 13 50  1  0
 14 51  1  0
 15 52  1  0
 16 53  1  0
 17 54  1  0
 18 55  1  1
 19 56  1  0
 20 57  1  0
 20 58  1  0
 21 59  1  0
 22 60  1  0
 22 61  1  0
 24 62  1  0
 25 63  1  0
 26 64  1  0
 29 65  1  0
 30 66  1  0
 33 67  1  0
 33 68  1  0
 34 69  1  0
 34 70  1  0
 35 71  1  0
 35 72  1  0
 38 73  1  0
M  END
$$$$
