@<TRIPOS>MOLECULE
*****
 73 76 0 0 0
SMALL
GASTEIGER

@<TRIPOS>ATOM
      1 C          -5.6321    2.2061    4.5292 C.3     1  UNL1       -0.0496
      2 C          -4.6262    1.8116    3.4704 C.3     1  UNL1        0.0063
      3 N          -5.0909    0.7126    2.6642 N.pl3   1  UNL1       -0.3440
      4 C          -4.2972    0.1855    1.6158 C.ar    1  UNL1        0.0296
      5 C          -3.0479    0.7087    1.3288 C.ar    1  UNL1       -0.0286
      6 C          -2.2547    0.2172    0.3197 C.ar    1  UNL1        0.0402
      7 C          -0.9486    0.8570    0.1096 C.2     1  UNL1        0.2445
      8 O          -0.6569    1.8351    0.8472 O.2     1  UNL1       -0.2702
      9 N          -0.0270    0.4398   -0.8540 N.am    1  UNL1       -0.3057
     10 C           1.2494    1.0986   -1.0246 C.3     1  UNL1        0.0545
     11 C           1.0359    2.4522   -1.5578 C.3     1  UNL1       -0.0067
     12 C           2.1852    3.3041   -1.8042 C.ar    1  UNL1       -0.0455
     13 C           2.8513    3.2785   -3.0014 C.ar    1  UNL1       -0.0585
     14 C           3.9466    4.0890   -3.2769 C.ar    1  UNL1       -0.0615
     15 C           4.3456    4.9412   -2.2717 C.ar    1  UNL1       -0.0617
     16 C           3.7005    4.9952   -1.0541 C.ar    1  UNL1       -0.0615
     17 C           2.6199    4.1706   -0.8315 C.ar    1  UNL1       -0.0585
     18 C           2.0618    0.9542    0.2152 C.3     1  UNL1        0.0862
     19 O           3.3027    1.5133    0.1461 O.3     1  UNL1       -0.3887
     20 C           2.1635   -0.5145    0.5406 C.3     1  UNL1        0.0240
     21 N           2.7794   -0.8326    1.7835 N.3     1  UNL1       -0.3095
     22 C           4.1876   -0.6445    1.9110 C.3     1  UNL1        0.0214
     23 C           4.9817   -1.6085    1.0587 C.ar    1  UNL1       -0.0322
     24 C           5.3282   -2.8459    1.5911 C.ar    1  UNL1       -0.0573
     25 C           6.0513   -3.7332    0.8401 C.ar    1  UNL1       -0.0601
     26 C           6.4404   -3.4204   -0.4320 C.ar    1  UNL1       -0.0434
     27 C           6.1045   -2.2029   -0.9682 C.ar    1  UNL1        0.0413
     28 CL          6.5877   -1.7749   -2.5932 Cl      1  UNL1       -0.0835
     29 C           5.3656   -1.2906   -0.2066 C.ar    1  UNL1       -0.0390
     30 C          -2.7239   -0.8342   -0.4307 C.ar    1  UNL1       -0.0280
     31 C          -3.9617   -1.4071   -0.2011 C.ar    1  UNL1        0.0387
     32 N          -4.4597   -2.4915   -0.9634 N.am    1  UNL1       -0.2713
     33 C          -5.7550   -3.1092   -0.7667 C.3     1  UNL1        0.0202
     34 C          -5.8390   -4.2294   -1.7699 C.3     1  UNL1       -0.0285
     35 C          -4.8268   -3.9003   -2.8394 C.3     1  UNL1        0.0259
     36 C          -3.8011   -3.1483   -2.0286 C.2     1  UNL1        0.2198
     37 O          -2.5908   -3.1702   -2.3363 O.2     1  UNL1       -0.2753
     38 C          -4.7255   -0.8654    0.8392 C.ar    1  UNL1       -0.0194
     39 H          -6.5713    2.5036    4.0656 H       1  UNL1        0.0245
     40 H          -5.7469    1.3017    5.1919 H       1  UNL1        0.0245
     41 H          -5.1640    2.9789    5.1728 H       1  UNL1        0.0245
     42 H          -4.4292    2.6613    2.7685 H       1  UNL1        0.0458
     43 H          -3.6524    1.5195    3.9139 H       1  UNL1        0.0458
     44 H          -6.0183    0.2913    2.8431 H       1  UNL1        0.1461
     45 H          -2.7391    1.5423    1.9641 H       1  UNL1        0.0643
     46 H          -0.2981   -0.3903   -1.4673 H       1  UNL1        0.1494
     47 H           1.8016    0.5080   -1.8195 H       1  UNL1        0.0527
     48 H           0.3959    2.3330   -2.4886 H       1  UNL1        0.0332
     49 H           0.3361    3.0151   -0.8695 H       1  UNL1        0.0332
     50 H           2.5546    2.6116   -3.8146 H       1  UNL1        0.0620
     51 H           4.4599    4.0496   -4.2382 H       1  UNL1        0.0618
     52 H           5.2021    5.6013   -2.4354 H       1  UNL1        0.0618
     53 H           4.0166    5.6702   -0.2590 H       1  UNL1        0.0618
     54 H           2.1127    4.2246    0.1479 H       1  UNL1        0.0620
     55 H           1.5576    1.4078    1.1126 H       1  UNL1        0.0624
     56 H           3.6923    1.5244   -0.7656 H       1  UNL1        0.2099
     57 H           2.6990   -1.0623   -0.3010 H       1  UNL1        0.0450
     58 H           1.1498   -0.9940    0.5469 H       1  UNL1        0.0450
     59 H           2.3077   -0.4136    2.6085 H       1  UNL1        0.1223
     60 H           4.4349   -0.9086    2.9859 H       1  UNL1        0.0473
     61 H           4.5002    0.3711    1.6752 H       1  UNL1        0.0473
     62 H           5.0258   -3.0909    2.5813 H       1  UNL1        0.0621
     63 H           6.3417   -4.7235    1.2348 H       1  UNL1        0.0618
     64 H           7.0170   -4.1495   -1.0084 H       1  UNL1        0.0632
     65 H           5.1233   -0.3438   -0.6620 H       1  UNL1        0.0635
     66 H          -2.0961   -1.2234   -1.2333 H       1  UNL1        0.0644
     67 H          -6.5249   -2.3348   -0.9773 H       1  UNL1        0.0469
     68 H          -5.7782   -3.4690    0.2797 H       1  UNL1        0.0469
     69 H          -5.5635   -5.2057   -1.3091 H       1  UNL1        0.0285
     70 H          -6.8625   -4.2344   -2.1812 H       1  UNL1        0.0285
     71 H          -4.3897   -4.8053   -3.2862 H       1  UNL1        0.0359
     72 H          -5.2219   -3.1900   -3.5854 H       1  UNL1        0.0359
     73 H          -5.6970   -1.3231    1.0112 H       1  UNL1        0.0655
@<TRIPOS>BOND
     1     1     2    1
     2     2     3    1
     3     3     4    1
     4     4     5   ar
     5     5     6   ar
     6     6     7    1
     7     7     8    2
     8     7     9   am
     9     9    10    1
    10    10    11    1
    11    11    12    1
    12    12    13   ar
    13    13    14   ar
    14    14    15   ar
    15    15    16   ar
    16    16    17   ar
    17    10    18    1
    18    18    19    1
    19    18    20    1
    20    20    21    1
    21    21    22    1
    22    22    23    1
    23    23    24   ar
    24    24    25   ar
    25    25    26   ar
    26    26    27   ar
    27    27    28    1
    28    27    29   ar
    29     6    30   ar
    30    30    31   ar
    31    31    32    1
    32    32    33    1
    33    33    34    1
    34    34    35    1
    35    35    36    1
    36    36    37    2
    37    31    38   ar
    38    38     4   ar
    39    17    12   ar
    40    29    23   ar
    41    36    32   am
    42     1    39    1
    43     1    40    1
    44     1    41    1
    45     2    42    1
    46     2    43    1
    47     3    44    1
    48     5    45    1
    49     9    46    1
    50    10    47    1
    51    11    48    1
    52    11    49    1
    53    13    50    1
    54    14    51    1
    55    15    52    1
    56    16    53    1
    57    17    54    1
    58    18    55    1
    59    19    56    1
    60    20    57    1
    61    20    58    1
    62    21    59    1
    63    22    60    1
    64    22    61    1
    65    24    62    1
    66    25    63    1
    67    26    64    1
    68    29    65    1
    69    30    66    1
    70    33    67    1
    71    33    68    1
    72    34    69    1
    73    34    70    1
    74    35    71    1
    75    35    72    1
    76    38    73    1
