@<TRIPOS>MOLECULE
*****
 45 48 0 0 0
SMALL
GASTEIGER

@<TRIPOS>ATOM
      1 C          -1.8570   -1.0999    0.0933 C.3     1  UNL1        0.0177
      2 C          -0.8328   -1.6087    1.0784 C.3     1  UNL1       -0.0115
      3 C           0.4813   -1.0249    0.6928 C.ar    1  UNL1       -0.0419
      4 C           0.5703    0.1301   -0.0564 C.ar    1  UNL1       -0.0342
      5 C           1.8037    0.6538   -0.4025 C.ar    1  UNL1       -0.0160
      6 C           2.9712    0.0054    0.0114 C.ar    1  UNL1        0.1204
      7 O           4.1590    0.5757   -0.3648 O.3     1  UNL1       -0.4951
      8 C           5.4452    0.1016   -0.0644 C.3     1  UNL1        0.0788
      9 C           2.8342   -1.1432    0.7566 C.ar    1  UNL1       -0.0197
     10 C           1.6245   -1.6948    1.1208 C.ar    1  UNL1       -0.0548
     11 C          -0.6379    0.8824   -0.5374 C.3     1  UNL1        0.0015
     12 C          -0.4496    2.3271   -0.2194 C.3     1  UNL1       -0.0430
     13 C          -0.1596    2.3464    1.2849 C.3     1  UNL1       -0.0522
     14 C          -1.3933    1.9701    2.0489 C.3     1  UNL1       -0.0527
     15 C          -2.2917    1.0019    1.3883 C.3     1  UNL1       -0.0480
     16 C          -1.9061    0.4273    0.0890 C.3     1  UNL1       -0.0154
     17 C          -0.7231    0.5773   -2.0211 C.3     1  UNL1       -0.0302
     18 C          -1.6034   -0.6310   -2.2653 C.3     1  UNL1       -0.0003
     19 N          -1.5063   -1.5986   -1.1995 N.3     1  UNL1       -0.3018
     20 C          -2.3447   -2.7182   -1.5068 C.3     1  UNL1       -0.0125
     21 H          -2.8385   -1.4835    0.4568 H       1  UNL1        0.0469
     22 H          -0.7348   -2.7073    0.8548 H       1  UNL1        0.0328
     23 H          -1.0893   -1.4320    2.1330 H       1  UNL1        0.0328
     24 H           1.8787    1.5714   -0.9977 H       1  UNL1        0.0657
     25 H           5.5300   -0.2639    0.9768 H       1  UNL1        0.0660
     26 H           6.1289    0.9814   -0.1781 H       1  UNL1        0.0660
     27 H           5.8060   -0.6573   -0.7856 H       1  UNL1        0.0660
     28 H           3.7567   -1.6404    1.0739 H       1  UNL1        0.0654
     29 H           1.5618   -2.6006    1.7082 H       1  UNL1        0.0622
     30 H          -1.4329    2.8260   -0.3288 H       1  UNL1        0.0274
     31 H           0.3103    2.8597   -0.7842 H       1  UNL1        0.0274
     32 H           0.1854    3.3777    1.5188 H       1  UNL1        0.0266
     33 H           0.6797    1.6678    1.5428 H       1  UNL1        0.0266
     34 H          -1.9029    2.9490    2.2661 H       1  UNL1        0.0265
     35 H          -1.0676    1.6176    3.0526 H       1  UNL1        0.0265
     36 H          -3.3277    1.4565    1.3572 H       1  UNL1        0.0269
     37 H          -2.4610    0.1296    2.0893 H       1  UNL1        0.0269
     38 H          -2.7215    0.6479   -0.6582 H       1  UNL1        0.0324
     39 H          -1.1266    1.4576   -2.5329 H       1  UNL1        0.0286
     40 H           0.2846    0.3748   -2.4414 H       1  UNL1        0.0286
     41 H          -1.2257   -1.1266   -3.1844 H       1  UNL1        0.0427
     42 H          -2.6506   -0.3249   -2.4980 H       1  UNL1        0.0427
     43 H          -3.3960   -2.4268   -1.6496 H       1  UNL1        0.0391
     44 H          -1.9812   -3.3614   -2.3269 H       1  UNL1        0.0391
     45 H          -2.3495   -3.3721   -0.5913 H       1  UNL1        0.0391
@<TRIPOS>BOND
     1     1     2    1
     2     2     3    1
     3     3     4   ar
     4     4     5   ar
     5     5     6   ar
     6     6     7    1
     7     7     8    1
     8     6     9   ar
     9     9    10   ar
    10     4    11    1
    11    11    12    1
    12    12    13    1
    13    13    14    1
    14    14    15    1
    15    15    16    1
    16    11    17    1
    17    17    18    1
    18    18    19    1
    19    19    20    1
    20    16     1    1
    21    19     1    1
    22    10     3   ar
    23    16    11    1
    24     1    21    1
    25     2    22    1
    26     2    23    1
    27     5    24    1
    28     8    25    1
    29     8    26    1
    30     8    27    1
    31     9    28    1
    32    10    29    1
    33    12    30    1
    34    12    31    1
    35    13    32    1
    36    13    33    1
    37    14    34    1
    38    14    35    1
    39    15    36    1
    40    15    37    1
    41    16    38    1
    42    17    39    1
    43    17    40    1
    44    18    41    1
    45    18    42    1
    46    20    43    1
    47    20    44    1
    48    20    45    1
