@<TRIPOS>MOLECULE
*****
 51 51 0 0 0
SMALL
GASTEIGER

@<TRIPOS>ATOM
      1 C           6.7896   -1.1587   -0.0974 C.3     1  UNL1       -0.0399
      2 C           5.5389   -0.4259    0.3461 C.2     1  UNL1       -0.0522
      3 C           6.0807    0.5266    1.1760 C.2     1  UNL1       -0.0560
      4 C           7.5253    0.7656    1.5369 C.3     1  UNL1        0.0629
      5 O           7.6710    0.6317    2.8998 O.3     1  UNL1       -0.3910
      6 C           4.0984   -0.0311    0.4949 C.2     1  UNL1       -0.0591
      7 C           3.2099   -0.7740   -0.2088 C.2     1  UNL1       -0.0613
      8 C           1.8444   -0.2627    0.0427 C.2     1  UNL1       -0.0588
      9 C           0.7484   -0.7804   -0.5027 C.2     1  UNL1       -0.0504
     10 C           0.9914   -1.9188   -1.3901 C.3     1  UNL1       -0.0397
     11 C          -0.5493   -0.1901   -0.1805 C.2     1  UNL1       -0.0586
     12 C          -1.7435   -0.5341   -0.5993 C.2     1  UNL1       -0.0579
     13 C          -3.0421    0.0442   -0.2874 C.2     1  UNL1       -0.0427
     14 C          -4.0492   -0.5946   -0.9183 C.2     1  UNL1       -0.0689
     15 C          -3.7125   -1.7608   -1.8157 C.3     1  UNL1       -0.0432
     16 C          -5.4996   -0.3168   -0.8511 C.3     1  UNL1       -0.0314
     17 C          -5.7330    1.1719   -0.8338 C.3     1  UNL1       -0.0486
     18 C          -4.5480    1.9522   -0.3696 C.3     1  UNL1       -0.0436
     19 C          -3.6127    1.1320    0.5169 C.3     1  UNL1       -0.0099
     20 C          -2.6000    2.0720    1.1385 C.3     1  UNL1       -0.0558
     21 C          -4.4379    0.5454    1.6419 C.3     1  UNL1       -0.0558
     22 H           7.2597   -1.6297    0.7586 H       1  UNL1        0.0277
     23 H           6.3882   -2.0075   -0.7241 H       1  UNL1        0.0277
     24 H           7.3898   -0.4878   -0.7094 H       1  UNL1        0.0277
     25 H           5.5960    1.3251    1.7697 H       1  UNL1        0.0597
     26 H           8.2067    0.0881    0.9832 H       1  UNL1        0.0601
     27 H           7.7470    1.8052    1.2227 H       1  UNL1        0.0601
     28 H           7.4915    1.4784    3.3573 H       1  UNL1        0.2098
     29 H           4.5298   -0.7858   -0.0626 H       1  UNL1        0.0620
     30 H           3.1844   -1.6414   -0.9136 H       1  UNL1        0.0618
     31 H           1.6559    0.5997    0.7148 H       1  UNL1        0.0620
     32 H           1.5779   -1.6624   -2.2951 H       1  UNL1        0.0278
     33 H           1.4856   -2.7433   -0.8057 H       1  UNL1        0.0278
     34 H           0.0355   -2.3506   -1.7219 H       1  UNL1        0.0278
     35 H          -0.5841    0.6453    0.4944 H       1  UNL1        0.0620
     36 H          -1.5891   -1.3661   -1.2536 H       1  UNL1        0.0621
     37 H          -4.6198   -2.2049   -2.2364 H       1  UNL1        0.0275
     38 H          -3.2060   -2.5720   -1.2489 H       1  UNL1        0.0275
     39 H          -3.0460   -1.4525   -2.6484 H       1  UNL1        0.0275
     40 H          -6.0112   -0.7226   -1.7613 H       1  UNL1        0.0310
     41 H          -6.0188   -0.8244   -0.0087 H       1  UNL1        0.0310
     42 H          -6.0178    1.5168   -1.8631 H       1  UNL1        0.0269
     43 H          -6.5874    1.3979   -0.1496 H       1  UNL1        0.0269
     44 H          -4.8364    2.8933    0.1500 H       1  UNL1        0.0274
     45 H          -3.9550    2.2691   -1.2550 H       1  UNL1        0.0274
     46 H          -1.9332    2.5152    0.3847 H       1  UNL1        0.0238
     47 H          -3.1505    2.9617    1.5940 H       1  UNL1        0.0238
     48 H          -2.0490    1.6342    1.9851 H       1  UNL1        0.0238
     49 H          -5.5078    0.8364    1.6044 H       1  UNL1        0.0238
     50 H          -4.3673   -0.5661    1.6735 H       1  UNL1        0.0238
     51 H          -4.0387    0.9570    2.5991 H       1  UNL1        0.0238
@<TRIPOS>BOND
     1     1     2    1
     2     2     3    2
     3     3     4    1
     4     4     5    1
     5     2     6    1
     6     6     7    2
     7     7     8    1
     8     8     9    2
     9     9    10    1
    10     9    11    1
    11    11    12    2
    12    12    13    1
    13    13    14    2
    14    14    15    1
    15    14    16    1
    16    16    17    1
    17    17    18    1
    18    18    19    1
    19    19    20    1
    20    19    21    1
    21    19    13    1
    22     1    22    1
    23     1    23    1
    24     1    24    1
    25     3    25    1
    26     4    26    1
    27     4    27    1
    28     5    28    1
    29     6    29    1
    30     7    30    1
    31     8    31    1
    32    10    32    1
    33    10    33    1
    34    10    34    1
    35    11    35    1
    36    12    36    1
    37    15    37    1
    38    15    38    1
    39    15    39    1
    40    16    40    1
    41    16    41    1
    42    17    42    1
    43    17    43    1
    44    18    44    1
    45    18    45    1
    46    20    46    1
    47    20    47    1
    48    20    48    1
    49    21    49    1
    50    21    50    1
    51    21    51    1
