@<TRIPOS>MOLECULE
*****
 51 55 0 0 0
SMALL
GASTEIGER

@<TRIPOS>ATOM
      1 C           4.4765    1.2457   -0.6215 C.3     1  UNL1        0.0166
      2 N           3.2240    0.5803   -0.3998 N.ar    1  UNL1       -0.2957
      3 C           2.1809    0.8668   -1.2278 C.ar    1  UNL1        0.2544
      4 O           2.3641    1.7010   -2.1481 O.2     1  UNL1       -0.2676
      5 C           0.9510    0.2711   -1.0790 C.ar    1  UNL1        0.0249
      6 C           0.7784   -0.6322   -0.0713 C.ar    1  UNL1        0.0488
      7 N          -0.4614   -1.3167    0.1535 N.pl3   1  UNL1       -0.3126
      8 C          -1.5935   -1.1465   -0.6897 C.ar    1  UNL1        0.0506
      9 C          -2.7465   -0.6012   -0.1436 C.ar    1  UNL1       -0.0270
     10 C          -3.9025   -0.4079   -0.8704 C.ar    1  UNL1        0.0385
     11 C          -5.0843    0.1799   -0.2064 C.2     1  UNL1        0.2443
     12 O          -5.0136    0.4980    1.0274 O.2     1  UNL1       -0.2702
     13 N          -6.3115    0.4182   -0.8585 N.am    1  UNL1       -0.3085
     14 C          -7.4200    0.9999   -0.1262 C.3     1  UNL1        0.0235
     15 C          -8.2944    1.9838   -0.8799 C.3     1  UNL1       -0.0328
     16 C          -8.8156    0.6386   -0.4705 C.3     1  UNL1       -0.0328
     17 C          -3.9084   -0.7737   -2.1963 C.ar    1  UNL1       -0.0481
     18 C          -2.7604   -1.3249   -2.7680 C.ar    1  UNL1       -0.0409
     19 C          -1.6066   -1.5106   -2.0152 C.ar    1  UNL1        0.0621
     20 CL         -0.1748   -2.2263   -2.7226 Cl      1  UNL1       -0.0816
     21 C           1.8198   -0.9389    0.7806 C.ar    1  UNL1        0.0586
     22 C           1.9272   -1.7976    1.8661 C.ar    1  UNL1        0.0608
     23 N           3.1794   -1.6840    2.3097 N.ar    1  UNL1       -0.1722
     24 N           3.8415   -0.7989    1.5492 N.ar    1  UNL1       -0.2156
     25 C           5.1992   -0.4334    1.7393 C.ar    1  UNL1        0.0678
     26 C           6.2622   -1.2692    1.3799 C.ar    1  UNL1       -0.0335
     27 C           7.5661   -0.8880    1.5881 C.ar    1  UNL1       -0.0244
     28 C           7.8754    0.3224    2.1542 C.ar    1  UNL1        0.1235
     29 F           9.1535    0.7284    2.3732 F       1  UNL1       -0.2055
     30 C           6.8288    1.1571    2.5134 C.ar    1  UNL1       -0.0244
     31 C           5.5103    0.7810    2.3073 C.ar    1  UNL1       -0.0335
     32 C           3.0393   -0.3087    0.5860 C.ar    1  UNL1        0.1485
     33 H           5.3661    0.6216   -0.5720 H       1  UNL1        0.0457
     34 H           4.4554    1.6496   -1.6800 H       1  UNL1        0.0457
     35 H           4.5378    2.1861   -0.0056 H       1  UNL1        0.0457
     36 H           0.1305    0.5247   -1.7460 H       1  UNL1        0.0691
     37 H          -0.5576   -1.9741    0.9683 H       1  UNL1        0.1522
     38 H          -2.7708   -0.2996    0.9137 H       1  UNL1        0.0644
     39 H          -6.4022    0.1652   -1.8822 H       1  UNL1        0.1493
     40 H          -7.2111    1.2193    0.9224 H       1  UNL1        0.0498
     41 H          -8.1267    2.1149   -1.9592 H       1  UNL1        0.0284
     42 H          -8.6003    2.8858   -0.2957 H       1  UNL1        0.0284
     43 H          -9.0577   -0.1023   -1.2543 H       1  UNL1        0.0284
     44 H          -9.5608    0.6736    0.3437 H       1  UNL1        0.0284
     45 H          -4.8031   -0.6362   -2.8038 H       1  UNL1        0.0625
     46 H          -2.7544   -1.6154   -3.8082 H       1  UNL1        0.0633
     47 H           1.1288   -2.4140    2.2392 H       1  UNL1        0.0855
     48 H           6.0103   -2.2268    0.9319 H       1  UNL1        0.0640
     49 H           8.3540   -1.5564    1.2992 H       1  UNL1        0.0647
     50 H           7.0800    2.1013    2.9553 H       1  UNL1        0.0647
     51 H           4.6976    1.4598    2.6004 H       1  UNL1        0.0640
@<TRIPOS>BOND
     1     1     2    1
     2     2     3   ar
     3     3     4    2
     4     3     5   ar
     5     5     6   ar
     6     6     7    1
     7     7     8    1
     8     8     9   ar
     9     9    10   ar
    10    10    11    1
    11    11    12    2
    12    11    13   am
    13    13    14    1
    14    14    15    1
    15    15    16    1
    16    10    17   ar
    17    17    18   ar
    18    18    19   ar
    19    19    20    1
    20     6    21   ar
    21    21    22   ar
    22    22    23   ar
    23    23    24   ar
    24    24    25    1
    25    25    26   ar
    26    26    27   ar
    27    27    28   ar
    28    28    29    1
    29    28    30   ar
    30    30    31   ar
    31    24    32   ar
    32    32     2   ar
    33    19     8   ar
    34    32    21   ar
    35    16    14    1
    36    31    25   ar
    37     1    33    1
    38     1    34    1
    39     1    35    1
    40     5    36    1
    41     7    37    1
    42     9    38    1
    43    13    39    1
    44    14    40    1
    45    15    41    1
    46    15    42    1
    47    16    43    1
    48    16    44    1
    49    17    45    1
    50    18    46    1
    51    22    47    1
    52    26    48    1
    53    27    49    1
    54    30    50    1
    55    31    51    1
