@<TRIPOS>MOLECULE
*****
 32 33 0 0 0
SMALL
GASTEIGER

@<TRIPOS>ATOM
      1 C           3.9034    0.7807   -2.2858 C.3     1  UNL1        0.0788
      2 O           4.0990   -0.2749   -1.3578 O.3     1  UNL1       -0.4951
      3 C           2.9479   -0.8789   -0.8223 C.ar    1  UNL1        0.1201
      4 C           3.0165   -1.9188    0.0803 C.ar    1  UNL1       -0.0197
      5 C           1.8816   -2.5105    0.6004 C.ar    1  UNL1       -0.0543
      6 C           0.6300   -2.0358    0.1943 C.ar    1  UNL1       -0.0370
      7 C          -0.5835   -2.6545    0.7703 C.3     1  UNL1        0.0234
      8 S          -1.0049   -1.6267    2.2317 S.3     1  UNL1       -0.1205
      9 C          -1.5399    0.0148    1.6926 C.ar    1  UNL1        0.0095
     10 C          -0.7715    1.0577    1.5744 C.ar    1  UNL1       -0.0470
     11 C          -1.2401    2.3139    1.1445 C.ar    1  UNL1       -0.0421
     12 C          -2.5761    2.3727    0.8564 C.ar    1  UNL1        0.0692
     13 C          -3.2052    3.6404    0.4034 C.1     1  UNL1        0.1004
     14 N          -3.6685    4.5475    0.0658 N.1     1  UNL1       -0.1908
     15 C          -3.4242    1.3022    0.9647 C.ar    1  UNL1        0.0701
     16 C          -4.8523    1.3767    0.6131 C.1     1  UNL1        0.1005
     17 N          -5.9647    1.4422    0.3581 N.1     1  UNL1       -0.1908
     18 C          -2.9148    0.0835    1.3931 C.ar    1  UNL1       -0.0297
     19 C           0.5807   -0.9936   -0.7101 C.ar    1  UNL1       -0.0543
     20 C           1.6973   -0.4129   -1.2184 C.ar    1  UNL1       -0.0197
     21 H           3.2905    1.6111   -1.8203 H       1  UNL1        0.0660
     22 H           3.2872    0.3682   -3.1259 H       1  UNL1        0.0660
     23 H           4.8384    1.1645   -2.6697 H       1  UNL1        0.0660
     24 H           3.9854   -2.2887    0.3880 H       1  UNL1        0.0654
     25 H           1.9571   -3.3220    1.3055 H       1  UNL1        0.0622
     26 H          -1.4323   -2.5983    0.0557 H       1  UNL1        0.0428
     27 H          -0.3993   -3.6943    1.1438 H       1  UNL1        0.0428
     28 H           0.3053    0.9779    1.8108 H       1  UNL1        0.0629
     29 H          -0.5676    3.1338    1.0553 H       1  UNL1        0.0631
     30 H          -3.5528   -0.7762    1.4797 H       1  UNL1        0.0642
     31 H          -0.3875   -0.6188   -1.0317 H       1  UNL1        0.0622
     32 H           1.6648    0.4175   -1.9334 H       1  UNL1        0.0654
@<TRIPOS>BOND
     1     1     2    1
     2     2     3    1
     3     3     4   ar
     4     4     5   ar
     5     5     6   ar
     6     6     7    1
     7     7     8    1
     8     8     9    1
     9     9    10   ar
    10    10    11   ar
    11    11    12   ar
    12    12    13    1
    13    13    14    3
    14    12    15   ar
    15    15    16    1
    16    16    17    3
    17    15    18   ar
    18     6    19   ar
    19    19    20   ar
    20    20     3   ar
    21    18     9   ar
    22     1    21    1
    23     1    22    1
    24     1    23    1
    25     4    24    1
    26     5    25    1
    27     7    26    1
    28     7    27    1
    29    10    28    1
    30    11    29    1
    31    18    30    1
    32    19    31    1
    33    20    32    1
