
     RDKit          3D

 57 60  0  0  0  0  0  0  0  0999 V2000
    0.6932   -0.3663    0.7011 C   0  0  2  0  0  0  0  0  0  0  0  0
    1.6933   -0.2142    1.7611 C   0  0  0  0  0  0  0  0  0  0  0  0
    2.8665   -0.8862    1.0231 C   0  0  1  0  0  0  0  0  0  0  0  0
    2.5894   -2.3758    0.9772 C   0  0  0  0  0  0  0  0  0  0  0  0
    2.7455   -0.2910   -0.3898 C   0  0  2  0  0  0  0  0  0  0  0  0
    2.9177   -1.2872   -1.3526 O   0  0  0  0  0  0  0  0  0  0  0  0
    3.8281    0.7041   -0.4905 C   0  0  0  0  0  0  0  0  0  0  0  0
    4.5062    0.2716   -1.4287 O   0  0  0  0  0  0  0  0  0  0  0  0
    4.9158    1.6907   -0.6027 C   0  0  0  0  0  0  0  0  0  0  0  0
    5.7816    1.3341   -1.6389 O   0  0  0  0  0  0  0  0  0  0  0  0
    1.3623    0.2577   -0.5050 C   0  0  2  0  0  0  0  0  0  0  0  0
    1.3901    1.7626   -0.4569 C   0  0  0  0  0  0  0  0  0  0  0  0
    0.5951   -0.2323   -1.6945 C   0  0  0  0  0  0  0  0  0  0  0  0
   -0.8568   -0.4273   -1.5437 C   0  0  2  0  0  0  0  0  0  0  0  0
   -1.4853    0.5916   -2.2995 O   0  0  0  0  0  0  0  0  0  0  0  0
   -1.4687   -0.3815   -0.1961 C   0  0  1  0  0  0  0  0  0  0  0  0
   -1.5219   -1.7110    0.2599 F   0  0  0  0  0  0  0  0  0  0  0  0
   -0.6162    0.3091    0.8535 C   0  0  1  0  0  0  0  0  0  0  0  0
   -1.2165    0.2440    2.2084 C   0  0  0  0  0  0  0  0  0  0  0  0
   -2.6497    0.7212    2.0989 C   0  0  0  0  0  0  0  0  0  0  0  0
   -3.4425   -0.1181    1.1820 C   0  0  0  0  0  0  0  0  0  0  0  0
   -4.4486   -0.8642    1.6108 C   0  0  0  0  0  0  0  0  0  0  0  0
   -5.1089   -1.6241    0.5559 C   0  0  0  0  0  0  0  0  0  0  0  0
   -6.0751   -2.3627    0.8575 O   0  0  0  0  0  0  0  0  0  0  0  0
   -4.6935   -1.5619   -0.8364 C   0  0  0  0  0  0  0  0  0  0  0  0
   -3.6727   -0.7718   -1.1146 C   0  0  0  0  0  0  0  0  0  0  0  0
   -2.8950    0.0668   -0.1676 C   0  0  2  0  0  0  0  0  0  0  0  0
   -3.0731    1.5239   -0.5325 C   0  0  0  0  0  0  0  0  0  0  0  0
    0.6008   -1.4478    0.4644 H   0  0  0  0  0  0  0  0  0  0  0  0
    2.0148    0.8157    1.9811 H   0  0  0  0  0  0  0  0  0  0  0  0
    1.4394   -0.7770    2.6808 H   0  0  0  0  0  0  0  0  0  0  0  0
    3.8304   -0.6974    1.4828 H   0  0  0  0  0  0  0  0  0  0  0  0
    2.2819   -2.7067   -0.0482 H   0  0  0  0  0  0  0  0  0  0  0  0
    1.8080   -2.6848    1.7223 H   0  0  0  0  0  0  0  0  0  0  0  0
    3.5042   -2.9659    1.2633 H   0  0  0  0  0  0  0  0  0  0  0  0
    3.1873   -0.8913   -2.2109 H   0  0  0  0  0  0  0  0  0  0  0  0
    4.5595    2.7126   -0.8117 H   0  0  0  0  0  0  0  0  0  0  0  0
    5.5510    1.6595    0.3254 H   0  0  0  0  0  0  0  0  0  0  0  0
    6.1057    2.1328   -2.1386 H   0  0  0  0  0  0  0  0  0  0  0  0
    2.2335    2.1979   -1.0073 H   0  0  0  0  0  0  0  0  0  0  0  0
    1.3651    2.2025    0.5423 H   0  0  0  0  0  0  0  0  0  0  0  0
    0.4753    2.1314   -1.0089 H   0  0  0  0  0  0  0  0  0  0  0  0
    1.0883   -1.1938   -1.9880 H   0  0  0  0  0  0  0  0  0  0  0  0
    0.8844    0.4605   -2.5397 H   0  0  0  0  0  0  0  0  0  0  0  0
   -1.1511   -1.3697   -2.0942 H   0  0  0  0  0  0  0  0  0  0  0  0
   -1.4046    0.4542   -3.2652 H   0  0  0  0  0  0  0  0  0  0  0  0
   -0.5890    1.3854    0.5575 H   0  0  0  0  0  0  0  0  0  0  0  0
   -0.6623    0.9418    2.8588 H   0  0  0  0  0  0  0  0  0  0  0  0
   -1.2303   -0.7887    2.6192 H   0  0  0  0  0  0  0  0  0  0  0  0
   -2.6405    1.7685    1.7472 H   0  0  0  0  0  0  0  0  0  0  0  0
   -3.1096    0.7140    3.1104 H   0  0  0  0  0  0  0  0  0  0  0  0
   -4.7211   -0.8790    2.6531 H   0  0  0  0  0  0  0  0  0  0  0  0
   -5.1942   -2.1332   -1.6055 H   0  0  0  0  0  0  0  0  0  0  0  0
   -3.3898   -0.7541   -2.1777 H   0  0  0  0  0  0  0  0  0  0  0  0
   -3.4979    1.5812   -1.5771 H   0  0  0  0  0  0  0  0  0  0  0  0
   -3.8352    2.0115    0.1146 H   0  0  0  0  0  0  0  0  0  0  0  0
   -2.1645    2.1183   -0.4896 H   0  0  0  0  0  0  0  0  0  0  0  0
  1  2  1  0
  2  3  1  0
  3  4  1  0
  3  5  1  0
  5  6  1  6
  5  7  1  0
  7  8  2  0
  7  9  1  0
  9 10  1  0
  5 11  1  0
 11 12  1  1
 11 13  1  0
 13 14  1  0
 14 15  1  0
 14 16  1  0
 16 17  1  1
 16 18  1  0
 18 19  1  0
 19 20  1  0
 20 21  1  0
 21 22  2  0
 22 23  1  0
 23 24  2  0
 23 25  1  0
 25 26  2  0
 26 27  1  0
 27 28  1  6
 11  1  1  0
 27 16  1  0
 18  1  1  0
 27 21  1  0
  1 29  1  6
  2 30  1  0
  2 31  1  0
  3 32  1  1
  4 33  1  0
  4 34  1  0
  4 35  1  0
  6 36  1  0
  9 37  1  0
  9 38  1  0
 10 39  1  0
 12 40  1  0
 12 41  1  0
 12 42  1  0
 13 43  1  0
 13 44  1  0
 14 45  1  6
 15 46  1  0
 18 47  1  6
 19 48  1  0
 19 49  1  0
 20 50  1  0
 20 51  1  0
 22 52  1  0
 25 53  1  0
 26 54  1  0
 28 55  1  0
 28 56  1  0
 28 57  1  0
M  END
$$$$
