
     RDKit          3D

 65 70  0  0  0  0  0  0  0  0999 V2000
   -3.4713   -5.3485   -1.6753 O   0  0  0  0  0  0  0  0  0  0  0  0
   -2.9539   -4.0749   -1.5095 C   0  0  0  0  0  0  0  0  0  0  0  0
   -1.7462   -4.0722   -0.5885 C   0  0  1  0  0  0  0  0  0  0  0  0
   -1.2672   -2.6537   -0.4779 C   0  0  0  0  0  0  0  0  0  0  0  0
   -1.5386   -2.2267    0.9244 C   0  0  1  0  0  0  0  0  0  0  0  0
   -1.9083   -0.8205    1.0180 N   0  0  0  0  0  0  0  0  0  0  0  0
   -0.9421    0.1042    0.5558 C   0  0  0  0  0  0  0  0  0  0  0  0
    0.3100   -0.3435    0.2378 N   0  0  0  0  0  0  0  0  0  0  0  0
    1.3239    0.4885   -0.1022 C   0  0  0  0  0  0  0  0  0  0  0  0
    2.6033   -0.0221   -0.4010 N   0  0  0  0  0  0  0  0  0  0  0  0
    3.6814    0.7543   -0.8374 C   0  0  0  0  0  0  0  0  0  0  0  0
    3.5850    2.0188   -1.3539 C   0  0  0  0  0  0  0  0  0  0  0  0
    4.7295    2.7251   -1.7453 C   0  0  0  0  0  0  0  0  0  0  0  0
    5.9324    2.1574   -1.6138 N   0  0  0  0  0  0  0  0  0  0  0  0
    6.1101    0.9080   -1.1110 C   0  0  0  0  0  0  0  0  0  0  0  0
    7.3941    0.4265   -1.0224 O   0  0  0  0  0  0  0  0  0  0  0  0
    7.6927   -0.8316   -0.5224 C   0  0  0  0  0  0  0  0  0  0  0  0
    9.0330   -1.1391    0.0503 C   0  0  0  0  0  0  0  0  0  0  0  0
    8.7057   -1.6209   -1.3353 C   0  0  0  0  0  0  0  0  0  0  0  0
    4.9728    0.2343   -0.7334 C   0  0  0  0  0  0  0  0  0  0  0  0
    1.0581    1.7790   -0.1170 N   0  0  0  0  0  0  0  0  0  0  0  0
   -0.1359    2.2679    0.1780 C   0  0  0  0  0  0  0  0  0  0  0  0
   -1.2367    1.4293    0.5378 C   0  0  0  0  0  0  0  0  0  0  0  0
   -2.5276    2.0672    0.6122 C   0  0  0  0  0  0  0  0  0  0  0  0
   -3.7333    1.4803    0.5375 C   0  0  0  0  0  0  0  0  0  0  0  0
   -4.9525    2.1832    0.5134 C   0  0  0  0  0  0  0  0  0  0  0  0
   -4.8930    3.5497    0.5668 C   0  0  0  0  0  0  0  0  0  0  0  0
   -6.0618    4.2868    0.5467 C   0  0  0  0  0  0  0  0  0  0  0  0
   -5.9834    5.6471    0.6010 C   0  0  0  0  0  0  0  0  0  0  0  0
   -4.7565    6.2734    0.6747 C   0  0  0  0  0  0  0  0  0  0  0  0
   -3.6091    5.5430    0.6942 C   0  0  0  0  0  0  0  0  0  0  0  0
   -3.6706    4.1604    0.6397 C   0  0  0  0  0  0  0  0  0  0  0  0
   -2.5515    3.4368    0.6602 N   0  0  0  0  0  0  0  0  0  0  0  0
   -2.6197   -3.1383    1.3929 C   0  0  2  0  0  0  0  0  0  0  0  0
   -2.5340   -3.2272    2.7828 O   0  0  0  0  0  0  0  0  0  0  0  0
   -2.1863   -4.4825    0.8028 C   0  0  2  0  0  0  0  0  0  0  0  0
   -1.0732   -4.9357    1.4913 O   0  0  0  0  0  0  0  0  0  0  0  0
   -4.4080   -5.3517   -1.3447 H   0  0  0  0  0  0  0  0  0  0  0  0
   -3.6958   -3.3876   -1.0370 H   0  0  0  0  0  0  0  0  0  0  0  0
   -2.6545   -3.5943   -2.4611 H   0  0  0  0  0  0  0  0  0  0  0  0
   -0.9828   -4.7315   -1.0122 H   0  0  0  0  0  0  0  0  0  0  0  0
   -1.8037   -1.9641   -1.1627 H   0  0  0  0  0  0  0  0  0  0  0  0
   -0.1754   -2.5824   -0.6745 H   0  0  0  0  0  0  0  0  0  0  0  0
   -0.6263   -2.4401    1.5351 H   0  0  0  0  0  0  0  0  0  0  0  0
   -2.7833   -0.5996    1.4617 H   0  0  0  0  0  0  0  0  0  0  0  0
    2.7734   -1.0832   -0.2947 H   0  0  0  0  0  0  0  0  0  0  0  0
    2.6360    2.5137   -1.4919 H   0  0  0  0  0  0  0  0  0  0  0  0
    4.6383    3.7161   -2.1479 H   0  0  0  0  0  0  0  0  0  0  0  0
    6.8654   -1.4674   -0.1730 H   0  0  0  0  0  0  0  0  0  0  0  0
    9.0776   -1.8297    0.8944 H   0  0  0  0  0  0  0  0  0  0  0  0
    9.8158   -0.3557    0.0783 H   0  0  0  0  0  0  0  0  0  0  0  0
    8.6092   -2.7259   -1.4090 H   0  0  0  0  0  0  0  0  0  0  0  0
    9.1756   -1.1070   -2.2098 H   0  0  0  0  0  0  0  0  0  0  0  0
    5.0539   -0.7521   -0.3304 H   0  0  0  0  0  0  0  0  0  0  0  0
   -0.2824    3.3334    0.1467 H   0  0  0  0  0  0  0  0  0  0  0  0
   -3.8570    0.4353    0.4195 H   0  0  0  0  0  0  0  0  0  0  0  0
   -5.8737    1.6475    0.4560 H   0  0  0  0  0  0  0  0  0  0  0  0
   -6.9986    3.7350    0.4877 H   0  0  0  0  0  0  0  0  0  0  0  0
   -6.8873    6.2366    0.5864 H   0  0  0  0  0  0  0  0  0  0  0  0
   -4.7488    7.3585    0.7161 H   0  0  0  0  0  0  0  0  0  0  0  0
   -2.6300    5.9918    0.7512 H   0  0  0  0  0  0  0  0  0  0  0  0
   -3.6334   -2.8551    1.0838 H   0  0  0  0  0  0  0  0  0  0  0  0
   -2.9967   -2.4602    3.1895 H   0  0  0  0  0  0  0  0  0  0  0  0
   -3.0080   -5.2121    0.8016 H   0  0  0  0  0  0  0  0  0  0  0  0
   -1.3789   -5.4521    2.2689 H   0  0  0  0  0  0  0  0  0  0  0  0
  1  2  1  0
  2  3  1  0
  3  4  1  0
  4  5  1  0
  5  6  1  0
  6  7  1  0
  7  8  2  0
  8  9  1  0
  9 10  1  0
 10 11  1  0
 11 12  2  0
 12 13  1  0
 13 14  2  0
 14 15  1  0
 15 16  1  0
 16 17  1  0
 17 18  1  0
 18 19  1  0
 15 20  2  0
  9 21  2  0
 21 22  1  0
 22 23  2  0
 23 24  1  0
 24 25  2  0
 25 26  1  0
 26 27  2  0
 27 28  1  0
 28 29  2  0
 29 30  1  0
 30 31  2  0
 31 32  1  0
 32 33  2  0
  5 34  1  0
 34 35  1  0
 34 36  1  0
 36 37  1  0
 36  3  1  0
 23  7  1  0
 33 24  1  0
 20 11  1  0
 32 27  1  0
 19 17  1  0
  1 38  1  0
  2 39  1  0
  2 40  1  0
  3 41  1  6
  4 42  1  0
  4 43  1  0
  5 44  1  1
  6 45  1  0
 10 46  1  0
 12 47  1  0
 13 48  1  0
 17 49  1  0
 18 50  1  0
 18 51  1  0
 19 52  1  0
 19 53  1  0
 20 54  1  0
 22 55  1  0
 25 56  1  0
 26 57  1  0
 28 58  1  0
 29 59  1  0
 30 60  1  0
 31 61  1  0
 34 62  1  1
 35 63  1  0
 36 64  1  6
 37 65  1  0
M  END
$$$$
