@<TRIPOS>MOLECULE
*****
 65 70 0 0 0
SMALL
GASTEIGER

@<TRIPOS>ATOM
      1 O          -3.4713   -5.3485   -1.6753 O.3     1  UNL1       -0.3946
      2 C          -2.9539   -4.0749   -1.5095 C.3     1  UNL1        0.0495
      3 C          -1.7462   -4.0722   -0.5885 C.3     1  UNL1        0.0124
      4 C          -1.2672   -2.6537   -0.4779 C.3     1  UNL1       -0.0247
      5 C          -1.5386   -2.2267    0.9244 C.3     1  UNL1        0.0507
      6 N          -1.9083   -0.8205    1.0180 N.pl3   1  UNL1       -0.3230
      7 C          -0.9421    0.1042    0.5558 C.ar    1  UNL1        0.1334
      8 N           0.3100   -0.3435    0.2378 N.ar    1  UNL1       -0.1988
      9 C           1.3239    0.4885   -0.1022 C.ar    1  UNL1        0.2212
     10 N           2.6033   -0.0221   -0.4010 N.pl3   1  UNL1       -0.2834
     11 C           3.6814    0.7543   -0.8374 C.ar    1  UNL1        0.0400
     12 C           3.5850    2.0188   -1.3539 C.ar    1  UNL1       -0.0221
     13 C           4.7295    2.7251   -1.7453 C.ar    1  UNL1        0.0331
     14 N           5.9324    2.1574   -1.6138 N.ar    1  UNL1       -0.2212
     15 C           6.1101    0.9080   -1.1110 C.ar    1  UNL1        0.2167
     16 O           7.3941    0.4265   -1.0224 O.3     1  UNL1       -0.4730
     17 C           7.6927   -0.8316   -0.5224 C.3     1  UNL1        0.1021
     18 C           9.0330   -1.1391    0.0503 C.3     1  UNL1       -0.0124
     19 C           8.7057   -1.6209   -1.3353 C.3     1  UNL1       -0.0124
     20 C           4.9728    0.2343   -0.7334 C.ar    1  UNL1        0.0212
     21 N           1.0581    1.7790   -0.1170 N.ar    1  UNL1       -0.2219
     22 C          -0.1359    2.2679    0.1780 C.ar    1  UNL1        0.0437
     23 C          -1.2367    1.4293    0.5378 C.ar    1  UNL1        0.0583
     24 C          -2.5276    2.0672    0.6122 C.ar    1  UNL1        0.0764
     25 C          -3.7333    1.4803    0.5375 C.ar    1  UNL1       -0.0349
     26 C          -4.9525    2.1832    0.5134 C.ar    1  UNL1       -0.0505
     27 C          -4.8930    3.5497    0.5668 C.ar    1  UNL1        0.0004
     28 C          -6.0618    4.2868    0.5467 C.ar    1  UNL1       -0.0526
     29 C          -5.9834    5.6471    0.6010 C.ar    1  UNL1       -0.0611
     30 C          -4.7565    6.2734    0.6747 C.ar    1  UNL1       -0.0597
     31 C          -3.6091    5.5430    0.6942 C.ar    1  UNL1       -0.0357
     32 C          -3.6706    4.1604    0.6397 C.ar    1  UNL1        0.0717
     33 N          -2.5515    3.4368    0.6602 N.ar    1  UNL1       -0.2465
     34 C          -2.6197   -3.1383    1.3929 C.3     1  UNL1        0.0996
     35 O          -2.5340   -3.2272    2.7828 O.3     1  UNL1       -0.3874
     36 C          -2.1863   -4.4825    0.8028 C.3     1  UNL1        0.0877
     37 O          -1.0732   -4.9357    1.4913 O.3     1  UNL1       -0.3888
     38 H          -4.4080   -5.3517   -1.3447 H       1  UNL1        0.2094
     39 H          -3.6958   -3.3876   -1.0370 H       1  UNL1        0.0561
     40 H          -2.6545   -3.5943   -2.4611 H       1  UNL1        0.0561
     41 H          -0.9828   -4.7315   -1.0122 H       1  UNL1        0.0349
     42 H          -1.8037   -1.9641   -1.1627 H       1  UNL1        0.0288
     43 H          -0.1754   -2.5824   -0.6745 H       1  UNL1        0.0288
     44 H          -0.6263   -2.4401    1.5351 H       1  UNL1        0.0524
     45 H          -2.7833   -0.5996    1.4617 H       1  UNL1        0.1479
     46 H           2.7734   -1.0832   -0.2947 H       1  UNL1        0.1550
     47 H           2.6360    2.5137   -1.4919 H       1  UNL1        0.0651
     48 H           4.6383    3.7161   -2.1479 H       1  UNL1        0.0831
     49 H           6.8654   -1.4674   -0.1730 H       1  UNL1        0.0733
     50 H           9.0776   -1.8297    0.8944 H       1  UNL1        0.0302
     51 H           9.8158   -0.3557    0.0783 H       1  UNL1        0.0302
     52 H           8.6092   -2.7259   -1.4090 H       1  UNL1        0.0302
     53 H           9.1756   -1.1070   -2.2098 H       1  UNL1        0.0302
     54 H           5.0539   -0.7521   -0.3304 H       1  UNL1        0.0689
     55 H          -0.2824    3.3334    0.1467 H       1  UNL1        0.0838
     56 H          -3.8570    0.4353    0.4195 H       1  UNL1        0.0639
     57 H          -5.8737    1.6475    0.4560 H       1  UNL1        0.0625
     58 H          -6.9986    3.7350    0.4877 H       1  UNL1        0.0624
     59 H          -6.8873    6.2366    0.5864 H       1  UNL1        0.0618
     60 H          -4.7488    7.3585    0.7161 H       1  UNL1        0.0618
     61 H          -2.6300    5.9918    0.7512 H       1  UNL1        0.0639
     62 H          -3.6334   -2.8551    1.0838 H       1  UNL1        0.0638
     63 H          -2.9967   -2.4602    3.1895 H       1  UNL1        0.2100
     64 H          -3.0080   -5.2121    0.8016 H       1  UNL1        0.0623
     65 H          -1.3789   -5.4521    2.2689 H       1  UNL1        0.2099
@<TRIPOS>BOND
     1     1     2    1
     2     2     3    1
     3     3     4    1
     4     4     5    1
     5     5     6    1
     6     6     7    1
     7     7     8   ar
     8     8     9   ar
     9     9    10    1
    10    10    11    1
    11    11    12   ar
    12    12    13   ar
    13    13    14   ar
    14    14    15   ar
    15    15    16    1
    16    16    17    1
    17    17    18    1
    18    18    19    1
    19    15    20   ar
    20     9    21   ar
    21    21    22   ar
    22    22    23   ar
    23    23    24    1
    24    24    25   ar
    25    25    26   ar
    26    26    27   ar
    27    27    28   ar
    28    28    29   ar
    29    29    30   ar
    30    30    31   ar
    31    31    32   ar
    32    32    33   ar
    33     5    34    1
    34    34    35    1
    35    34    36    1
    36    36    37    1
    37    36     3    1
    38    23     7   ar
    39    33    24   ar
    40    20    11   ar
    41    32    27   ar
    42    19    17    1
    43     1    38    1
    44     2    39    1
    45     2    40    1
    46     3    41    1
    47     4    42    1
    48     4    43    1
    49     5    44    1
    50     6    45    1
    51    10    46    1
    52    12    47    1
    53    13    48    1
    54    17    49    1
    55    18    50    1
    56    18    51    1
    57    19    52    1
    58    19    53    1
    59    20    54    1
    60    22    55    1
    61    25    56    1
    62    26    57    1
    63    28    58    1
    64    29    59    1
    65    30    60    1
    66    31    61    1
    67    34    62    1
    68    35    63    1
    69    36    64    1
    70    37    65    1
