@<TRIPOS>MOLECULE
*****
 53 57 0 0 0
SMALL
GASTEIGER

@<TRIPOS>ATOM
      1 O           1.0757    1.2089   -0.7554 O.2     1  UNL1       -0.2738
      2 C           0.8871    0.1817   -0.0558 C.2     1  UNL1        0.2336
      3 N          -0.4620   -0.2226    0.1287 N.am    1  UNL1       -0.3104
      4 C          -1.5878    0.4880   -0.4439 C.3     1  UNL1        0.0290
      5 C          -2.4154   -0.3369   -1.3841 C.3     1  UNL1       -0.0195
      6 C          -2.9716   -1.5173   -0.6569 C.3     1  UNL1       -0.0455
      7 C          -3.8195   -1.0224    0.4803 C.3     1  UNL1       -0.0378
      8 C          -3.0038   -0.1732    1.4306 C.3     1  UNL1       -0.0455
      9 C          -2.4515    0.9890    0.6640 C.3     1  UNL1       -0.0195
     10 C          -3.6092    1.8297    0.1815 C.3     1  UNL1       -0.0195
     11 C          -4.4115    1.0121   -0.7850 C.3     1  UNL1        0.0670
     12 O          -5.4605    1.7693   -1.2636 O.3     1  UNL1       -0.3885
     13 C          -3.5155    0.5766   -1.9066 C.3     1  UNL1       -0.0195
     14 C          -4.9574   -0.2212   -0.0793 C.3     1  UNL1       -0.0211
     15 C           2.0645   -0.5226    0.5172 C.3     1  UNL1        0.0987
     16 N           3.3049   -0.2408   -0.0798 N.3     1  UNL1       -0.2890
     17 C           3.7986    1.0723   -0.0946 C.3     1  UNL1       -0.0002
     18 C           5.3015    1.0923   -0.1532 C.3     1  UNL1       -0.0401
     19 C           5.7168    0.4318   -1.4496 C.3     1  UNL1       -0.0507
     20 C           4.9868   -0.8242   -1.7622 C.3     1  UNL1       -0.0401
     21 C           4.0451   -1.2752   -0.6753 C.3     1  UNL1       -0.0002
     22 C           1.9719   -0.6707    2.0459 C.3     1  UNL1       -0.0238
     23 C           1.8824   -1.8442    1.1665 C.3     1  UNL1       -0.0238
     24 H          -0.6099   -1.0782    0.7104 H       1  UNL1        0.1490
     25 H          -1.1417    1.3576   -1.0129 H       1  UNL1        0.0504
     26 H          -1.8630   -0.6898   -2.2710 H       1  UNL1        0.0320
     27 H          -2.1069   -2.0864   -0.2413 H       1  UNL1        0.0271
     28 H          -3.5971   -2.1462   -1.3175 H       1  UNL1        0.0271
     29 H          -4.2125   -1.8908    1.0311 H       1  UNL1        0.0302
     30 H          -3.7188    0.2017    2.1993 H       1  UNL1        0.0271
     31 H          -2.2288   -0.7744    1.9059 H       1  UNL1        0.0271
     32 H          -1.8411    1.6352    1.3301 H       1  UNL1        0.0320
     33 H          -3.3014    2.7876   -0.2440 H       1  UNL1        0.0296
     34 H          -4.2539    2.0168    1.0701 H       1  UNL1        0.0296
     35 H          -5.6322    2.5042   -0.6377 H       1  UNL1        0.2102
     36 H          -4.1021    0.1199   -2.7091 H       1  UNL1        0.0296
     37 H          -3.0048    1.4922   -2.2863 H       1  UNL1        0.0296
     38 H          -5.4871   -0.8076   -0.8620 H       1  UNL1        0.0296
     39 H          -5.6316    0.0870    0.7407 H       1  UNL1        0.0296
     40 H           3.4478    1.5789   -1.0423 H       1  UNL1        0.0427
     41 H           3.3957    1.6697    0.7477 H       1  UNL1        0.0427
     42 H           5.7741    0.5206    0.6656 H       1  UNL1        0.0278
     43 H           5.6127    2.1658   -0.1609 H       1  UNL1        0.0278
     44 H           5.6004    1.2199   -2.2514 H       1  UNL1        0.0266
     45 H           6.8254    0.2467   -1.3477 H       1  UNL1        0.0266
     46 H           4.4229   -0.6825   -2.7066 H       1  UNL1        0.0278
     47 H           5.7219   -1.6358   -1.9365 H       1  UNL1        0.0278
     48 H           3.3329   -1.9972   -1.1590 H       1  UNL1        0.0427
     49 H           4.6446   -1.8963    0.0257 H       1  UNL1        0.0427
     50 H           1.0304   -0.3694    2.5489 H       1  UNL1        0.0288
     51 H           2.8678   -0.4289    2.6378 H       1  UNL1        0.0288
     52 H           2.7511   -2.5339    1.1996 H       1  UNL1        0.0288
     53 H           0.9356   -2.3668    0.9909 H       1  UNL1        0.0288
@<TRIPOS>BOND
     1     1     2    2
     2     2     3   am
     3     3     4    1
     4     4     5    1
     5     5     6    1
     6     6     7    1
     7     7     8    1
     8     8     9    1
     9     9    10    1
    10    10    11    1
    11    11    12    1
    12    11    13    1
    13    11    14    1
    14     2    15    1
    15    15    16    1
    16    16    17    1
    17    17    18    1
    18    18    19    1
    19    19    20    1
    20    20    21    1
    21    15    22    1
    22    22    23    1
    23     9     4    1
    24    23    15    1
    25    13     5    1
    26    21    16    1
    27    14     7    1
    28     3    24    1
    29     4    25    1
    30     5    26    1
    31     6    27    1
    32     6    28    1
    33     7    29    1
    34     8    30    1
    35     8    31    1
    36     9    32    1
    37    10    33    1
    38    10    34    1
    39    12    35    1
    40    13    36    1
    41    13    37    1
    42    14    38    1
    43    14    39    1
    44    17    40    1
    45    17    41    1
    46    18    42    1
    47    18    43    1
    48    19    44    1
    49    19    45    1
    50    20    46    1
    51    20    47    1
    52    21    48    1
    53    21    49    1
    54    22    50    1
    55    22    51    1
    56    23    52    1
    57    23    53    1
