@<TRIPOS>MOLECULE
*****
 66 70 0 0 0
SMALL
GASTEIGER

@<TRIPOS>ATOM
      1 C         -11.0518   -2.4217    0.0462 C.3     1  UNL1        0.0545
      2 S         -10.4498   -0.7735   -0.1504 S.O2    1  UNL1       -0.0326
      3 O         -10.0022   -0.2165    1.1784 O.2     1  UNL1       -0.1746
      4 O         -11.5938    0.1321   -0.6049 O.2     1  UNL1       -0.1746
      5 C          -9.1907   -0.6725   -1.3902 C.3     1  UNL1        0.0779
      6 C          -7.9864   -1.5221   -1.1075 C.3     1  UNL1        0.0157
      7 N          -6.9771   -1.3560   -2.1605 N.3     1  UNL1       -0.3078
      8 C          -6.3704   -0.0227   -2.0430 C.3     1  UNL1        0.0546
      9 C          -5.0995   -0.0778   -1.2440 C.ar    1  UNL1        0.1195
     10 C          -4.6094   -0.7848   -0.1340 C.ar    1  UNL1       -0.0188
     11 C          -3.3199   -0.2473    0.0136 C.ar    1  UNL1       -0.0156
     12 C          -3.0801    0.7263   -0.9639 C.ar    1  UNL1        0.1353
     13 O          -4.1735    0.7194   -1.6111 O.2     1  UNL1       -0.4584
     14 C          -1.7779    1.3369   -0.8760 C.ar    1  UNL1        0.0181
     15 C          -0.6485    1.0516   -0.1612 C.ar    1  UNL1       -0.0386
     16 C           0.4259    1.9219   -0.2488 C.ar    1  UNL1        0.0411
     17 C           0.3272    3.0432   -1.0453 C.ar    1  UNL1        0.0760
     18 C          -0.7828    3.3720   -1.7803 C.ar    1  UNL1       -0.0349
     19 C          -1.8619    2.4831   -1.6839 C.ar    1  UNL1       -0.0490
     20 N           1.4176    3.8672   -1.0853 N.ar    1  UNL1       -0.2353
     21 C           2.5034    3.5619   -0.3735 C.ar    1  UNL1        0.1187
     22 N           2.5807    2.4613    0.3926 N.ar    1  UNL1       -0.2200
     23 C           1.5350    1.5845    0.4889 C.ar    1  UNL1        0.1339
     24 N           1.6360    0.4147    1.3071 N.pl3   1  UNL1       -0.2988
     25 C           2.9760   -0.0455    1.6387 C.ar    1  UNL1        0.0340
     26 C           3.9266    0.2422    0.6504 C.ar    1  UNL1       -0.0186
     27 C           5.2588   -0.1215    0.8619 C.ar    1  UNL1        0.0843
     28 CL          6.3902    0.2774   -0.4365 Cl      1  UNL1       -0.0797
     29 C           5.6460   -0.7632    2.0296 C.ar    1  UNL1        0.1393
     30 O           6.8955   -1.0577    2.1469 O.3     1  UNL1       -0.4859
     31 C           8.1410   -1.3559    2.2728 C.3     1  UNL1        0.1148
     32 C           8.9700   -0.8327    1.1251 C.ar    1  UNL1       -0.0077
     33 C           9.3426    0.5067    1.3610 C.ar    1  UNL1       -0.0201
     34 C          10.1203    1.2365    0.4686 C.ar    1  UNL1        0.1238
     35 F          10.4547    2.5432    0.7565 F       1  UNL1       -0.2055
     36 C          10.5222    0.5939   -0.6716 C.ar    1  UNL1       -0.0264
     37 C          10.1657   -0.7288   -0.9243 C.ar    1  UNL1       -0.0587
     38 C           9.3830   -1.4519   -0.0204 C.ar    1  UNL1       -0.0552
     39 C           4.6518   -1.0295    2.9816 C.ar    1  UNL1       -0.0167
     40 C           3.3302   -0.6810    2.8045 C.ar    1  UNL1       -0.0370
     41 H         -11.3641   -2.8203   -0.9373 H       1  UNL1        0.0464
     42 H         -11.8944   -2.4366    0.7805 H       1  UNL1        0.0464
     43 H         -10.2166   -3.0456    0.4446 H       1  UNL1        0.0464
     44 H          -9.6843   -1.0583   -2.3414 H       1  UNL1        0.0512
     45 H          -8.9910    0.3940   -1.5437 H       1  UNL1        0.0512
     46 H          -7.5878   -1.2191   -0.1358 H       1  UNL1        0.0440
     47 H          -8.2510   -2.5871   -1.0982 H       1  UNL1        0.0440
     48 H          -6.2021   -2.0414   -2.0169 H       1  UNL1        0.1224
     49 H          -7.1059    0.6708   -1.6398 H       1  UNL1        0.0504
     50 H          -6.1496    0.2960   -3.0992 H       1  UNL1        0.0504
     51 H          -5.2636   -1.5147    0.3124 H       1  UNL1        0.0652
     52 H          -2.8126   -0.7358    0.8651 H       1  UNL1        0.0655
     53 H          -0.7215    0.1647    0.4068 H       1  UNL1        0.0632
     54 H          -0.7328    4.2964   -2.3709 H       1  UNL1        0.0639
     55 H          -2.6758    2.8602   -2.3217 H       1  UNL1        0.0625
     56 H           3.3304    4.2602   -0.4522 H       1  UNL1        0.1048
     57 H           0.8406   -0.1231    1.6894 H       1  UNL1        0.1536
     58 H           3.6940    0.7183   -0.3131 H       1  UNL1        0.0652
     59 H           8.6059   -0.9676    3.2361 H       1  UNL1        0.0748
     60 H           8.3795   -2.4780    2.3742 H       1  UNL1        0.0748
     61 H           9.0552    1.0807    2.2548 H       1  UNL1        0.0650
     62 H          11.1325    1.1324   -1.4066 H       1  UNL1        0.0646
     63 H          10.4685   -1.2602   -1.8179 H       1  UNL1        0.0619
     64 H           9.0479   -2.4680   -0.1018 H       1  UNL1        0.0621
     65 H           4.9388   -1.5320    3.8917 H       1  UNL1        0.0655
     66 H           2.5352   -0.8704    3.5330 H       1  UNL1        0.0637
@<TRIPOS>BOND
     1     1     2    1
     2     2     3    2
     3     2     4    2
     4     2     5    1
     5     5     6    1
     6     6     7    1
     7     7     8    1
     8     8     9    1
     9     9    10   ar
    10    10    11   ar
    11    11    12   ar
    12    12    13   ar
    13    12    14    1
    14    14    15   ar
    15    15    16   ar
    16    16    17   ar
    17    17    18   ar
    18    18    19   ar
    19    17    20   ar
    20    20    21   ar
    21    21    22   ar
    22    22    23   ar
    23    23    24    1
    24    24    25    1
    25    25    26   ar
    26    26    27   ar
    27    27    28    1
    28    27    29   ar
    29    29    30    1
    30    30    31    1
    31    31    32    1
    32    32    33   ar
    33    33    34   ar
    34    34    35    1
    35    34    36   ar
    36    36    37   ar
    37    37    38   ar
    38    29    39   ar
    39    39    40   ar
    40    13     9   ar
    41    19    14   ar
    42    40    25   ar
    43    23    16   ar
    44    38    32   ar
    45     1    41    1
    46     1    42    1
    47     1    43    1
    48     5    44    1
    49     5    45    1
    50     6    46    1
    51     6    47    1
    52     7    48    1
    53     8    49    1
    54     8    50    1
    55    10    51    1
    56    11    52    1
    57    15    53    1
    58    18    54    1
    59    19    55    1
    60    21    56    1
    61    24    57    1
    62    26    58    1
    63    31    59    1
    64    31    60    1
    65    33    61    1
    66    36    62    1
    67    37    63    1
    68    38    64    1
    69    39    65    1
    70    40    66    1
