
     RDKit          3D

 69 74  0  0  0  0  0  0  0  0999 V2000
   -6.1876    2.7717    0.4141 C   0  0  0  0  0  0  0  0  0  0  0  0
   -6.8570    2.2895   -0.8023 N   0  0  0  0  0  0  0  0  0  0  0  0
   -8.1614    2.8393   -1.1323 C   0  0  0  0  0  0  0  0  0  0  0  0
   -6.2146    1.3218   -1.6120 C   0  0  0  0  0  0  0  0  0  0  0  0
   -6.7882    0.9163   -2.6406 O   0  0  0  0  0  0  0  0  0  0  0  0
   -4.9161    0.8152   -1.2512 C   0  0  0  0  0  0  0  0  0  0  0  0
   -3.7818    1.5940   -1.5497 C   0  0  0  0  0  0  0  0  0  0  0  0
   -2.7189    0.8535   -1.0805 C   0  0  0  0  0  0  0  0  0  0  0  0
   -1.3571    1.1299   -1.1040 C   0  0  0  0  0  0  0  0  0  0  0  0
   -0.5289    0.2287   -0.5738 N   0  0  0  0  0  0  0  0  0  0  0  0
   -0.9855   -0.9217   -0.0264 C   0  0  0  0  0  0  0  0  0  0  0  0
   -0.0790   -1.8517    0.5280 N   0  0  0  0  0  0  0  0  0  0  0  0
    1.3149   -1.6049    0.3962 C   0  0  0  0  0  0  0  0  0  0  0  0
    2.2988   -2.3751    0.9282 C   0  0  0  0  0  0  0  0  0  0  0  0
    3.6381   -2.0467    0.7090 C   0  0  0  0  0  0  0  0  0  0  0  0
    4.0233   -0.9574   -0.0359 C   0  0  0  0  0  0  0  0  0  0  0  0
    5.3408   -0.5480   -0.2940 N   0  0  0  0  0  0  0  0  0  0  0  0
    5.6071    0.2441   -1.4717 C   0  0  0  0  0  0  0  0  0  0  0  0
    7.1363    0.2478   -1.6154 C   0  0  0  0  0  0  0  0  0  0  0  0
    7.7083    0.8601   -0.4595 N   0  0  0  0  0  0  0  0  0  0  0  0
    9.1311    0.8541   -0.4177 C   0  0  0  0  0  0  0  0  0  0  0  0
    9.5302   -0.0454    0.7356 C   0  0  0  0  0  0  0  0  0  0  0  0
    8.3772    0.1331    1.6948 C   0  0  0  0  0  0  0  0  0  0  0  0
    7.2099    0.4203    0.7976 C   0  0  0  0  0  0  0  0  0  0  0  0
    6.4200   -0.8760    0.5931 C   0  0  0  0  0  0  0  0  0  0  0  0
    2.9656   -0.1883   -0.5676 C   0  0  0  0  0  0  0  0  0  0  0  0
    1.6956   -0.5286   -0.3393 N   0  0  0  0  0  0  0  0  0  0  0  0
   -2.2939   -1.1868   -0.0044 N   0  0  0  0  0  0  0  0  0  0  0  0
   -3.1892   -0.2934   -0.5371 C   0  0  0  0  0  0  0  0  0  0  0  0
   -4.5503   -0.3086   -0.6485 N   0  0  0  0  0  0  0  0  0  0  0  0
   -5.2850   -1.4145   -0.1703 C   0  0  0  0  0  0  0  0  0  0  0  0
   -4.9002   -1.6757    1.2847 C   0  0  0  0  0  0  0  0  0  0  0  0
   -6.0590   -1.1887    2.1224 C   0  0  0  0  0  0  0  0  0  0  0  0
   -7.1497   -0.8002    1.1851 C   0  0  0  0  0  0  0  0  0  0  0  0
   -6.7415   -1.4066   -0.1112 C   0  0  0  0  0  0  0  0  0  0  0  0
   -5.5965    3.6748    0.2280 H   0  0  0  0  0  0  0  0  0  0  0  0
   -6.9036    2.9757    1.2119 H   0  0  0  0  0  0  0  0  0  0  0  0
   -5.5849    1.8913    0.7665 H   0  0  0  0  0  0  0  0  0  0  0  0
   -8.0792    3.9553   -0.9880 H   0  0  0  0  0  0  0  0  0  0  0  0
   -8.4995    2.5800   -2.1316 H   0  0  0  0  0  0  0  0  0  0  0  0
   -8.8408    2.5070   -0.3026 H   0  0  0  0  0  0  0  0  0  0  0  0
   -3.7613    2.5677   -2.0401 H   0  0  0  0  0  0  0  0  0  0  0  0
   -1.0491    2.0527   -1.5483 H   0  0  0  0  0  0  0  0  0  0  0  0
   -0.3892   -2.7076    1.0217 H   0  0  0  0  0  0  0  0  0  0  0  0
    2.0210   -3.2395    1.5169 H   0  0  0  0  0  0  0  0  0  0  0  0
    4.4100   -2.6645    1.1361 H   0  0  0  0  0  0  0  0  0  0  0  0
    5.2300    1.2661   -1.4322 H   0  0  0  0  0  0  0  0  0  0  0  0
    5.2337   -0.3123   -2.3649 H   0  0  0  0  0  0  0  0  0  0  0  0
    7.4236   -0.8346   -1.6777 H   0  0  0  0  0  0  0  0  0  0  0  0
    7.4073    0.7426   -2.5387 H   0  0  0  0  0  0  0  0  0  0  0  0
    9.6036    0.5311   -1.3660 H   0  0  0  0  0  0  0  0  0  0  0  0
    9.5322    1.8691   -0.1876 H   0  0  0  0  0  0  0  0  0  0  0  0
   10.4602    0.3114    1.2321 H   0  0  0  0  0  0  0  0  0  0  0  0
    9.6408   -1.0936    0.4285 H   0  0  0  0  0  0  0  0  0  0  0  0
    8.2266   -0.7409    2.3532 H   0  0  0  0  0  0  0  0  0  0  0  0
    8.6007    1.0552    2.2767 H   0  0  0  0  0  0  0  0  0  0  0  0
    6.5296    1.1603    1.2841 H   0  0  0  0  0  0  0  0  0  0  0  0
    7.0516   -1.6440    0.1508 H   0  0  0  0  0  0  0  0  0  0  0  0
    6.0689   -1.2357    1.5853 H   0  0  0  0  0  0  0  0  0  0  0  0
    3.2161    0.6819   -1.1613 H   0  0  0  0  0  0  0  0  0  0  0  0
   -4.8997   -2.3448   -0.7101 H   0  0  0  0  0  0  0  0  0  0  0  0
   -4.0263   -1.0738    1.6047 H   0  0  0  0  0  0  0  0  0  0  0  0
   -4.7149   -2.7692    1.4433 H   0  0  0  0  0  0  0  0  0  0  0  0
   -5.8004   -0.3199    2.7676 H   0  0  0  0  0  0  0  0  0  0  0  0
   -6.3376   -2.0113    2.8185 H   0  0  0  0  0  0  0  0  0  0  0  0
   -7.3814    0.2669    1.1430 H   0  0  0  0  0  0  0  0  0  0  0  0
   -8.0759   -1.3456    1.5446 H   0  0  0  0  0  0  0  0  0  0  0  0
   -7.0465   -2.5127   -0.0286 H   0  0  0  0  0  0  0  0  0  0  0  0
   -7.3212   -1.0765   -0.9791 H   0  0  0  0  0  0  0  0  0  0  0  0
  1  2  1  0
  2  3  1  0
  2  4  1  0
  4  5  2  0
  4  6  1  0
  6  7  2  0
  7  8  1  0
  8  9  2  0
  9 10  1  0
 10 11  2  0
 11 12  1  0
 12 13  1  0
 13 14  2  0
 14 15  1  0
 15 16  2  0
 16 17  1  0
 17 18  1  0
 18 19  1  0
 19 20  1  0
 20 21  1  0
 21 22  1  0
 22 23  1  0
 23 24  1  0
 24 25  1  0
 16 26  1  0
 26 27  2  0
 11 28  1  0
 28 29  2  0
 29 30  1  0
 30 31  1  0
 31 32  1  0
 32 33  1  0
 33 34  1  0
 34 35  1  0
 30  6  1  0
 35 31  1  0
 29  8  1  0
 27 13  1  0
 25 17  1  0
 24 20  1  0
  1 36  1  0
  1 37  1  0
  1 38  1  0
  3 39  1  0
  3 40  1  0
  3 41  1  0
  7 42  1  0
  9 43  1  0
 12 44  1  0
 14 45  1  0
 15 46  1  0
 18 47  1  0
 18 48  1  0
 19 49  1  0
 19 50  1  0
 21 51  1  0
 21 52  1  0
 22 53  1  0
 22 54  1  0
 23 55  1  0
 23 56  1  0
 24 57  1  0
 25 58  1  0
 25 59  1  0
 26 60  1  0
 31 61  1  0
 32 62  1  0
 32 63  1  0
 33 64  1  0
 33 65  1  0
 34 66  1  0
 34 67  1  0
 35 68  1  0
 35 69  1  0
M  END
$$$$
