@<TRIPOS>MOLECULE
*****
 69 74 0 0 0
SMALL
GASTEIGER

@<TRIPOS>ATOM
      1 C          -6.1876    2.7717    0.4141 C.3     1  UNL1        0.0032
      2 N          -6.8570    2.2895   -0.8023 N.am    1  UNL1       -0.3024
      3 C          -8.1614    2.8393   -1.1323 C.3     1  UNL1        0.0032
      4 C          -6.2146    1.3218   -1.6120 C.2     1  UNL1        0.2627
      5 O          -6.7882    0.9163   -2.6406 O.2     1  UNL1       -0.2684
      6 C          -4.9161    0.8152   -1.2512 C.ar    1  UNL1        0.1070
      7 C          -3.7818    1.5940   -1.5497 C.ar    1  UNL1       -0.0209
      8 C          -2.7189    0.8535   -1.0805 C.ar    1  UNL1        0.0378
      9 C          -1.3571    1.1299   -1.1040 C.ar    1  UNL1        0.0419
     10 N          -0.5289    0.2287   -0.5738 N.ar    1  UNL1       -0.2219
     11 C          -0.9855   -0.9217   -0.0264 C.ar    1  UNL1        0.2224
     12 N          -0.0790   -1.8517    0.5280 N.pl3   1  UNL1       -0.2684
     13 C           1.3149   -1.6049    0.3962 C.ar    1  UNL1        0.1251
     14 C           2.2988   -2.3751    0.9282 C.ar    1  UNL1       -0.0198
     15 C           3.6381   -2.0467    0.7090 C.ar    1  UNL1       -0.0359
     16 C           4.0233   -0.9574   -0.0359 C.ar    1  UNL1        0.0482
     17 N           5.3408   -0.5480   -0.2940 N.pl3   1  UNL1       -0.3260
     18 C           5.6071    0.2441   -1.4717 C.3     1  UNL1        0.0251
     19 C           7.1363    0.2478   -1.6154 C.3     1  UNL1        0.0150
     20 N           7.7083    0.8601   -0.4595 N.3     1  UNL1       -0.2964
     21 C           9.1311    0.8541   -0.4177 C.3     1  UNL1       -0.0007
     22 C           9.5302   -0.0454    0.7356 C.3     1  UNL1       -0.0387
     23 C           8.3772    0.1331    1.6948 C.3     1  UNL1       -0.0347
     24 C           7.2099    0.4203    0.7976 C.3     1  UNL1        0.0262
     25 C           6.4200   -0.8760    0.5931 C.3     1  UNL1        0.0279
     26 C           2.9656   -0.1883   -0.5676 C.ar    1  UNL1        0.0507
     27 N           1.6956   -0.5286   -0.3393 N.ar    1  UNL1       -0.2383
     28 N          -2.2939   -1.1868   -0.0044 N.ar    1  UNL1       -0.1962
     29 C          -3.1892   -0.2934   -0.5371 C.ar    1  UNL1        0.1466
     30 N          -4.5503   -0.3086   -0.6485 N.ar    1  UNL1       -0.3180
     31 C          -5.2850   -1.4145   -0.1703 C.3     1  UNL1        0.0366
     32 C          -4.9002   -1.6757    1.2847 C.3     1  UNL1       -0.0320
     33 C          -6.0590   -1.1887    2.1224 C.3     1  UNL1       -0.0511
     34 C          -7.1497   -0.8002    1.1851 C.3     1  UNL1       -0.0511
     35 C          -6.7415   -1.4066   -0.1112 C.3     1  UNL1       -0.0320
     36 H          -5.5965    3.6748    0.2280 H       1  UNL1        0.0428
     37 H          -6.9036    2.9757    1.2119 H       1  UNL1        0.0428
     38 H          -5.5849    1.8913    0.7665 H       1  UNL1        0.0428
     39 H          -8.0792    3.9553   -0.9880 H       1  UNL1        0.0428
     40 H          -8.4995    2.5800   -2.1316 H       1  UNL1        0.0428
     41 H          -8.8408    2.5070   -0.3026 H       1  UNL1        0.0428
     42 H          -3.7613    2.5677   -2.0401 H       1  UNL1        0.0647
     43 H          -1.0491    2.0527   -1.5483 H       1  UNL1        0.0838
     44 H          -0.3892   -2.7076    1.0217 H       1  UNL1        0.1564
     45 H           2.0210   -3.2395    1.5169 H       1  UNL1        0.0652
     46 H           4.4100   -2.6645    1.1361 H       1  UNL1        0.0638
     47 H           5.2300    1.2661   -1.4322 H       1  UNL1        0.0476
     48 H           5.2337   -0.3123   -2.3649 H       1  UNL1        0.0476
     49 H           7.4236   -0.8346   -1.6777 H       1  UNL1        0.0442
     50 H           7.4073    0.7426   -2.5387 H       1  UNL1        0.0442
     51 H           9.6036    0.5311   -1.3660 H       1  UNL1        0.0427
     52 H           9.5322    1.8691   -0.1876 H       1  UNL1        0.0427
     53 H          10.4602    0.3114    1.2321 H       1  UNL1        0.0278
     54 H           9.6408   -1.0936    0.4285 H       1  UNL1        0.0278
     55 H           8.2266   -0.7409    2.3532 H       1  UNL1        0.0281
     56 H           8.6007    1.0552    2.2767 H       1  UNL1        0.0281
     57 H           6.5296    1.1603    1.2841 H       1  UNL1        0.0478
     58 H           7.0516   -1.6440    0.1508 H       1  UNL1        0.0479
     59 H           6.0689   -1.2357    1.5853 H       1  UNL1        0.0479
     60 H           3.2161    0.6819   -1.1613 H       1  UNL1        0.0849
     61 H          -4.8997   -2.3448   -0.7101 H       1  UNL1        0.0528
     62 H          -4.0263   -1.0738    1.6047 H       1  UNL1        0.0285
     63 H          -4.7149   -2.7692    1.4433 H       1  UNL1        0.0285
     64 H          -5.8004   -0.3199    2.7676 H       1  UNL1        0.0266
     65 H          -6.3376   -2.0113    2.8185 H       1  UNL1        0.0266
     66 H          -7.3814    0.2669    1.1430 H       1  UNL1        0.0266
     67 H          -8.0759   -1.3456    1.5446 H       1  UNL1        0.0266
     68 H          -7.0465   -2.5127   -0.0286 H       1  UNL1        0.0285
     69 H          -7.3212   -1.0765   -0.9791 H       1  UNL1        0.0285
@<TRIPOS>BOND
     1     1     2    1
     2     2     3    1
     3     2     4   am
     4     4     5    2
     5     4     6    1
     6     6     7   ar
     7     7     8   ar
     8     8     9   ar
     9     9    10   ar
    10    10    11   ar
    11    11    12    1
    12    12    13    1
    13    13    14   ar
    14    14    15   ar
    15    15    16   ar
    16    16    17    1
    17    17    18    1
    18    18    19    1
    19    19    20    1
    20    20    21    1
    21    21    22    1
    22    22    23    1
    23    23    24    1
    24    24    25    1
    25    16    26   ar
    26    26    27   ar
    27    11    28   ar
    28    28    29   ar
    29    29    30   ar
    30    30    31    1
    31    31    32    1
    32    32    33    1
    33    33    34    1
    34    34    35    1
    35    30     6   ar
    36    35    31    1
    37    29     8   ar
    38    27    13   ar
    39    25    17    1
    40    24    20    1
    41     1    36    1
    42     1    37    1
    43     1    38    1
    44     3    39    1
    45     3    40    1
    46     3    41    1
    47     7    42    1
    48     9    43    1
    49    12    44    1
    50    14    45    1
    51    15    46    1
    52    18    47    1
    53    18    48    1
    54    19    49    1
    55    19    50    1
    56    21    51    1
    57    21    52    1
    58    22    53    1
    59    22    54    1
    60    23    55    1
    61    23    56    1
    62    24    57    1
    63    25    58    1
    64    25    59    1
    65    26    60    1
    66    31    61    1
    67    32    62    1
    68    32    63    1
    69    33    64    1
    70    33    65    1
    71    34    66    1
    72    34    67    1
    73    35    68    1
    74    35    69    1
