@<TRIPOS>MOLECULE
*****
 46 50 0 0 0
SMALL
GASTEIGER

@<TRIPOS>ATOM
      1 N           4.1725   -3.2077    2.0254 N.am    1  UNL1       -0.3241
      2 C           3.1059   -2.3783    1.6011 C.2     1  UNL1        0.2599
      3 O           2.2639   -2.0010    2.4245 O.2     1  UNL1       -0.2687
      4 C           3.0305   -1.9914    0.2018 C.ar    1  UNL1        0.1280
      5 C           3.9358   -2.3660   -0.8027 C.ar    1  UNL1        0.0588
      6 N           3.5332   -1.8169   -1.9564 N.ar    1  UNL1       -0.2353
      7 C           2.4212   -1.1156   -1.7314 C.ar    1  UNL1        0.1381
      8 C           1.5801   -0.3507   -2.5491 C.ar    1  UNL1       -0.0182
      9 C           0.4646    0.2746   -2.0029 C.ar    1  UNL1       -0.0477
     10 C           0.1644    0.1579   -0.6609 C.ar    1  UNL1        0.0173
     11 C          -0.9991    0.8138   -0.0868 C.ar    1  UNL1        0.0781
     12 C          -2.1679    0.2274    0.3525 C.ar    1  UNL1        0.0968
     13 C          -2.5135   -1.1952    0.3511 C.ar    1  UNL1        0.0040
     14 C          -1.9050   -2.0868    1.2060 C.ar    1  UNL1       -0.0497
     15 C          -2.2329   -3.4493    1.1977 C.ar    1  UNL1       -0.0244
     16 C          -3.1816   -3.9301    0.3250 C.ar    1  UNL1        0.1417
     17 F          -3.4897   -5.2599    0.3308 F       1  UNL1       -0.2040
     18 C          -3.7976   -3.0477   -0.5351 C.ar    1  UNL1        0.0767
     19 CL         -4.9985   -3.6933   -1.6324 Cl      1  UNL1       -0.0806
     20 C          -3.4636   -1.6940   -0.5186 C.ar    1  UNL1       -0.0313
     21 N          -2.9606    1.2481    0.8030 N.ar    1  UNL1       -0.2351
     22 C          -2.3429    2.4229    0.6638 C.ar    1  UNL1        0.0973
     23 N          -1.1653    2.1524    0.1287 N.ar    1  UNL1       -0.3261
     24 C          -0.1470    3.1101   -0.2047 C.3     1  UNL1        0.0468
     25 C          -0.6128    4.3295   -0.9802 C.3     1  UNL1        0.0319
     26 C           0.3714    5.1396   -0.1260 C.3     1  UNL1        0.2527
     27 F          -0.0736    6.3916    0.2132 F       1  UNL1       -0.2055
     28 F           1.6580    5.0756   -0.6212 F       1  UNL1       -0.2055
     29 C           0.1883    4.0768    0.9407 C.3     1  UNL1        0.0319
     30 C           1.0200   -0.6034    0.1013 C.ar    1  UNL1        0.0211
     31 N           2.1185   -1.2198   -0.4349 N.ar    1  UNL1       -0.2949
     32 H           4.9565   -3.4824    1.3600 H       1  UNL1        0.1453
     33 H           4.2617   -3.5945    2.9861 H       1  UNL1        0.1453
     34 H           4.7984   -2.9961   -0.6162 H       1  UNL1        0.0853
     35 H           1.8324   -0.2761   -3.5804 H       1  UNL1        0.0654
     36 H          -0.1670    0.8571   -2.6501 H       1  UNL1        0.0626
     37 H          -1.1656   -1.7699    1.9078 H       1  UNL1        0.0625
     38 H          -1.7455   -4.1432    1.8766 H       1  UNL1        0.0647
     39 H          -3.9420   -1.0071   -1.1867 H       1  UNL1        0.0640
     40 H          -2.7643    3.3791    0.9480 H       1  UNL1        0.1029
     41 H           0.7993    2.7046   -0.5943 H       1  UNL1        0.0532
     42 H          -1.6503    4.6214   -0.7007 H       1  UNL1        0.0343
     43 H          -0.3828    4.3103   -2.0435 H       1  UNL1        0.0343
     44 H          -0.7068    4.2807    1.5902 H       1  UNL1        0.0343
     45 H           1.0763    3.8199    1.5154 H       1  UNL1        0.0343
     46 H           0.8231   -0.7171    1.1642 H       1  UNL1        0.0820
@<TRIPOS>BOND
     1     1     2   am
     2     2     3    2
     3     2     4    1
     4     4     5   ar
     5     5     6   ar
     6     6     7   ar
     7     7     8   ar
     8     8     9   ar
     9     9    10   ar
    10    10    11    1
    11    11    12   ar
    12    12    13    1
    13    13    14   ar
    14    14    15   ar
    15    15    16   ar
    16    16    17    1
    17    16    18   ar
    18    18    19    1
    19    18    20   ar
    20    12    21   ar
    21    21    22   ar
    22    22    23   ar
    23    23    24    1
    24    24    25    1
    25    25    26    1
    26    26    27    1
    27    26    28    1
    28    26    29    1
    29    10    30   ar
    30    30    31   ar
    31    31     4   ar
    32    31     7   ar
    33    23    11   ar
    34    29    24    1
    35    20    13   ar
    36     1    32    1
    37     1    33    1
    38     5    34    1
    39     8    35    1
    40     9    36    1
    41    14    37    1
    42    15    38    1
    43    20    39    1
    44    22    40    1
    45    24    41    1
    46    25    42    1
    47    25    43    1
    48    29    44    1
    49    29    45    1
    50    30    46    1
