
     RDKit          3D

 43 46  0  0  0  0  0  0  0  0999 V2000
    6.7154    5.7245   -2.6179 N   0  0  0  0  0  0  0  0  0  0  0  0
    6.0236    4.8845   -2.1717 C   0  0  0  0  0  0  0  0  0  0  0  0
    5.2077    3.8639   -1.6189 C   0  0  0  0  0  0  0  0  0  0  0  0
    5.1950    3.5935   -0.2676 C   0  0  0  0  0  0  0  0  0  0  0  0
    4.3749    2.5850    0.1993 C   0  0  0  0  0  0  0  0  0  0  0  0
    3.5856    1.8594   -0.6434 C   0  0  0  0  0  0  0  0  0  0  0  0
    2.7152    0.7884   -0.1455 C   0  0  0  0  0  0  0  0  0  0  0  0
    2.6841    0.5219    1.0825 O   0  0  0  0  0  0  0  0  0  0  0  0
    1.8898    0.0244   -1.0061 N   0  0  0  0  0  0  0  0  0  0  0  0
    1.0668   -1.0048   -0.4460 C   0  0  0  0  0  0  0  0  0  0  0  0
    1.5154   -2.2990   -0.3068 C   0  0  0  0  0  0  0  0  0  0  0  0
    0.7115   -3.2686    0.2309 C   0  0  0  0  0  0  0  0  0  0  0  0
   -0.5808   -2.9358    0.6426 C   0  0  0  0  0  0  0  0  0  0  0  0
   -1.2990   -3.9741    1.1318 F   0  0  0  0  0  0  0  0  0  0  0  0
   -1.0716   -1.6626    0.5257 C   0  0  0  0  0  0  0  0  0  0  0  0
   -2.4182   -1.2837    0.9804 C   0  0  1  0  0  0  0  0  0  0  0  0
   -2.4169   -1.3789    2.5125 C   0  0  0  0  0  0  0  0  0  0  0  0
   -2.1386   -2.6218    2.9534 F   0  0  0  0  0  0  0  0  0  0  0  0
   -1.3627   -0.5466    2.9157 F   0  0  0  0  0  0  0  0  0  0  0  0
   -2.5889    0.1347    0.6503 N   0  0  0  0  0  0  0  0  0  0  0  0
   -3.8150    0.6038    0.6231 C   0  0  0  0  0  0  0  0  0  0  0  0
   -4.0700    1.9639    0.3129 N   0  0  0  0  0  0  0  0  0  0  0  0
   -4.8109   -0.3110    0.9139 O   0  0  0  0  0  0  0  0  0  0  0  0
   -4.8322   -1.5982    0.3812 C   0  0  2  0  0  0  0  0  0  0  0  0
   -4.4567   -2.7937    1.1589 C   0  0  0  0  0  0  0  0  0  0  0  0
   -3.4368   -2.1474    0.3337 C   0  0  2  0  0  0  0  0  0  0  0  0
   -0.2262   -0.7232   -0.0211 C   0  0  0  0  0  0  0  0  0  0  0  0
    3.5953    2.1201   -1.9613 N   0  0  0  0  0  0  0  0  0  0  0  0
    4.3875    3.1002   -2.4438 C   0  0  0  0  0  0  0  0  0  0  0  0
    5.8240    4.1686    0.4211 H   0  0  0  0  0  0  0  0  0  0  0  0
    4.3407    2.3473    1.2506 H   0  0  0  0  0  0  0  0  0  0  0  0
    1.8769    0.2022   -2.0262 H   0  0  0  0  0  0  0  0  0  0  0  0
    2.5156   -2.5258   -0.6327 H   0  0  0  0  0  0  0  0  0  0  0  0
    1.0960   -4.2705    0.3246 H   0  0  0  0  0  0  0  0  0  0  0  0
   -3.3419   -0.9372    2.9318 H   0  0  0  0  0  0  0  0  0  0  0  0
   -3.5644    2.3978   -0.4731 H   0  0  0  0  0  0  0  0  0  0  0  0
   -4.7463    2.5209    0.8553 H   0  0  0  0  0  0  0  0  0  0  0  0
   -5.5097   -1.7416   -0.4780 H   0  0  0  0  0  0  0  0  0  0  0  0
   -4.4775   -2.6800    2.2594 H   0  0  0  0  0  0  0  0  0  0  0  0
   -4.8505   -3.7631    0.8099 H   0  0  0  0  0  0  0  0  0  0  0  0
   -3.1766   -2.5936   -0.6539 H   0  0  0  0  0  0  0  0  0  0  0  0
   -0.5516    0.3164   -0.1462 H   0  0  0  0  0  0  0  0  0  0  0  0
    4.4220    3.3397   -3.5024 H   0  0  0  0  0  0  0  0  0  0  0  0
  1  2  3  0
  2  3  1  0
  3  4  2  0
  4  5  1  0
  5  6  2  0
  6  7  1  0
  7  8  2  0
  7  9  1  0
  9 10  1  0
 10 11  2  0
 11 12  1  0
 12 13  2  0
 13 14  1  0
 13 15  1  0
 15 16  1  0
 16 17  1  1
 17 18  1  0
 17 19  1  0
 16 20  1  0
 20 21  2  0
 21 22  1  0
 21 23  1  0
 23 24  1  0
 24 25  1  0
 25 26  1  0
 15 27  2  0
  6 28  1  0
 28 29  2  0
 29  3  1  0
 27 10  1  0
 26 16  1  0
 26 24  1  0
  4 30  1  0
  5 31  1  0
  9 32  1  0
 11 33  1  0
 12 34  1  0
 17 35  1  0
 22 36  1  0
 22 37  1  0
 24 38  1  6
 25 39  1  0
 25 40  1  0
 26 41  1  6
 27 42  1  0
 29 43  1  0
M  END
$$$$
