@<TRIPOS>MOLECULE
*****
 43 46 0 0 0
SMALL
GASTEIGER

@<TRIPOS>ATOM
      1 N           6.7154    5.7245   -2.6179 N.1     1  UNL1       -0.1908
      2 C           6.0236    4.8845   -2.1717 C.1     1  UNL1        0.1007
      3 C           5.2077    3.8639   -1.6189 C.ar    1  UNL1        0.0699
      4 C           5.1950    3.5935   -0.2676 C.ar    1  UNL1       -0.0407
      5 C           4.3749    2.5850    0.1993 C.ar    1  UNL1       -0.0300
      6 C           3.5856    1.8594   -0.6434 C.ar    1  UNL1        0.1257
      7 C           2.7152    0.7884   -0.1455 C.2     1  UNL1        0.2666
      8 O           2.6841    0.5219    1.0825 O.2     1  UNL1       -0.2682
      9 N           1.8898    0.0244   -1.0061 N.am    1  UNL1       -0.2802
     10 C           1.0668   -1.0048   -0.4460 C.ar    1  UNL1        0.0342
     11 C           1.5154   -2.2990   -0.3068 C.ar    1  UNL1       -0.0377
     12 C           0.7115   -3.2686    0.2309 C.ar    1  UNL1       -0.0243
     13 C          -0.5808   -2.9358    0.6426 C.ar    1  UNL1        0.1292
     14 F          -1.2990   -3.9741    1.1318 F       1  UNL1       -0.2051
     15 C          -1.0716   -1.6626    0.5257 C.ar    1  UNL1        0.0228
     16 C          -2.4182   -1.2837    0.9804 C.3     1  UNL1        0.1603
     17 C          -2.4169   -1.3789    2.5125 C.3     1  UNL1        0.2686
     18 F          -2.1386   -2.6218    2.9534 F       1  UNL1       -0.2062
     19 F          -1.3627   -0.5466    2.9157 F       1  UNL1       -0.2062
     20 N          -2.5889    0.1347    0.6503 N.2     1  UNL1       -0.2194
     21 C          -3.8150    0.6038    0.6231 C.2     1  UNL1        0.2764
     22 N          -4.0700    1.9639    0.3129 N.pl3   1  UNL1       -0.3134
     23 O          -4.8109   -0.3110    0.9139 O.2     1  UNL1       -0.4622
     24 C          -4.8322   -1.5982    0.3812 C.3     1  UNL1        0.1091
     25 C          -4.4567   -2.7937    1.1589 C.3     1  UNL1       -0.0064
     26 C          -3.4368   -2.1474    0.3337 C.3     1  UNL1        0.0344
     27 C          -0.2262   -0.7232   -0.0211 C.ar    1  UNL1       -0.0321
     28 N           3.5953    2.1201   -1.9613 N.ar    1  UNL1       -0.2491
     29 C           4.3875    3.1002   -2.4438 C.ar    1  UNL1        0.0458
     30 H           5.8240    4.1686    0.4211 H       1  UNL1        0.0631
     31 H           4.3407    2.3473    1.2506 H       1  UNL1        0.0641
     32 H           1.8769    0.2022   -2.0262 H       1  UNL1        0.1552
     33 H           2.5156   -2.5258   -0.6327 H       1  UNL1        0.0637
     34 H           1.0960   -4.2705    0.3246 H       1  UNL1        0.0647
     35 H          -3.3419   -0.9372    2.9318 H       1  UNL1        0.1047
     36 H          -3.5644    2.3978   -0.4731 H       1  UNL1        0.1466
     37 H          -4.7463    2.5209    0.8553 H       1  UNL1        0.1466
     38 H          -5.5097   -1.7416   -0.4780 H       1  UNL1        0.0737
     39 H          -4.4775   -2.6800    2.2594 H       1  UNL1        0.0306
     40 H          -4.8505   -3.7631    0.8099 H       1  UNL1        0.0306
     41 H          -3.1766   -2.5936   -0.6539 H       1  UNL1        0.0366
     42 H          -0.5516    0.3164   -0.1462 H       1  UNL1        0.0640
     43 H           4.4220    3.3397   -3.5024 H       1  UNL1        0.0843
@<TRIPOS>BOND
     1     1     2    3
     2     2     3    1
     3     3     4   ar
     4     4     5   ar
     5     5     6   ar
     6     6     7    1
     7     7     8    2
     8     7     9   am
     9     9    10    1
    10    10    11   ar
    11    11    12   ar
    12    12    13   ar
    13    13    14    1
    14    13    15   ar
    15    15    16    1
    16    16    17    1
    17    17    18    1
    18    17    19    1
    19    16    20    1
    20    20    21    2
    21    21    22    1
    22    21    23    1
    23    23    24    1
    24    24    25    1
    25    25    26    1
    26    15    27   ar
    27     6    28   ar
    28    28    29   ar
    29    29     3   ar
    30    27    10   ar
    31    26    16    1
    32    26    24    1
    33     4    30    1
    34     5    31    1
    35     9    32    1
    36    11    33    1
    37    12    34    1
    38    17    35    1
    39    22    36    1
    40    22    37    1
    41    24    38    1
    42    25    39    1
    43    25    40    1
    44    26    41    1
    45    27    42    1
    46    29    43    1
