@<TRIPOS>MOLECULE
*****
 38 41 0 0 0
SMALL
GASTEIGER

@<TRIPOS>ATOM
      1 N          -6.1671    4.3970   -1.4712 N.1     1  UNL1       -0.1908
      2 C          -5.6947    3.4170   -1.0194 C.1     1  UNL1        0.1008
      3 C          -5.1236    2.2530   -0.4561 C.ar    1  UNL1        0.0733
      4 C          -5.4694    1.7373    0.7641 C.ar    1  UNL1        0.0452
      5 N          -4.9080    0.6112    1.2865 N.ar    1  UNL1       -0.2583
      6 C          -3.9633   -0.0554    0.6004 C.ar    1  UNL1        0.0699
      7 C          -3.5777    0.4077   -0.6137 C.ar    1  UNL1        0.1477
      8 O          -2.6083   -0.1988   -1.4028 O.3     1  UNL1       -0.4529
      9 C          -1.6566   -1.0895   -0.9588 C.ar    1  UNL1        0.1474
     10 C          -0.3737   -0.6509   -0.6281 C.ar    1  UNL1       -0.0021
     11 C           0.6310   -1.4599   -0.1807 C.ar    1  UNL1        0.0847
     12 C           1.9786   -0.9477    0.1505 C.2     1  UNL1        0.2530
     13 O           2.7910   -1.6540    0.7917 O.2     1  UNL1       -0.2697
     14 N           2.3998    0.3419   -0.2370 N.am    1  UNL1       -0.2663
     15 C           3.6185    0.9768   -0.0095 C.ar    1  UNL1        0.1253
     16 C           4.6972    0.4186    0.6134 C.ar    1  UNL1       -0.0188
     17 C           5.8894    1.1384    0.8211 C.ar    1  UNL1       -0.0217
     18 C           5.9826    2.4322    0.3920 C.ar    1  UNL1        0.1415
     19 F           7.1178    3.1828    0.5658 F       1  UNL1       -0.2039
     20 C           4.8858    2.9767   -0.2336 C.ar    1  UNL1        0.0649
     21 N           3.7647    2.2739   -0.4196 N.ar    1  UNL1       -0.2373
     22 C           0.3364   -2.8000   -0.0529 C.ar    1  UNL1        0.1680
     23 N           1.0597   -3.8814    0.3569 N.ar    1  UNL1       -0.2141
     24 C           0.2736   -4.9746    0.2935 C.ar    1  UNL1        0.1390
     25 N          -0.9270   -4.5677   -0.1537 N.ar    1  UNL1       -0.1534
     26 N          -0.8975   -3.2595   -0.3644 N.ar    1  UNL1       -0.2161
     27 C          -1.8918   -2.4286   -0.8130 C.ar    1  UNL1        0.0737
     28 C          -4.1375    1.5460   -1.1564 C.ar    1  UNL1        0.0010
     29 H          -6.2430    2.2996    1.3019 H       1  UNL1        0.0842
     30 H          -3.4837   -0.9545    0.9647 H       1  UNL1        0.0867
     31 H          -0.2050    0.4011   -0.7417 H       1  UNL1        0.0663
     32 H           1.6781    0.9097   -0.7881 H       1  UNL1        0.1566
     33 H           4.6860   -0.5876    0.9679 H       1  UNL1        0.0653
     34 H           6.7246    0.6730    1.3151 H       1  UNL1        0.0648
     35 H           4.9872    4.0111   -0.5660 H       1  UNL1        0.0859
     36 H           0.5200   -5.9912    0.5426 H       1  UNL1        0.1066
     37 H          -2.8470   -2.8392   -1.0454 H       1  UNL1        0.0868
     38 H          -3.8473    1.9353   -2.1193 H       1  UNL1        0.0668
@<TRIPOS>BOND
     1     1     2    3
     2     2     3    1
     3     3     4   ar
     4     4     5   ar
     5     5     6   ar
     6     6     7   ar
     7     7     8    1
     8     8     9    1
     9     9    10   ar
    10    10    11   ar
    11    11    12    1
    12    12    13    2
    13    12    14   am
    14    14    15    1
    15    15    16   ar
    16    16    17   ar
    17    17    18   ar
    18    18    19    1
    19    18    20   ar
    20    20    21   ar
    21    11    22   ar
    22    22    23   ar
    23    23    24   ar
    24    24    25   ar
    25    25    26   ar
    26    26    27   ar
    27     7    28   ar
    28    28     3   ar
    29    27     9   ar
    30    21    15   ar
    31    26    22   ar
    32     4    29    1
    33     6    30    1
    34    10    31    1
    35    14    32    1
    36    16    33    1
    37    17    34    1
    38    20    35    1
    39    24    36    1
    40    27    37    1
    41    28    38    1
