
     RDKit          3D

 38 41  0  0  0  0  0  0  0  0999 V2000
   -6.1671    4.3970   -1.4712 N   0  0  0  0  0  0  0  0  0  0  0  0
   -5.6947    3.4170   -1.0194 C   0  0  0  0  0  0  0  0  0  0  0  0
   -5.1236    2.2530   -0.4561 C   0  0  0  0  0  0  0  0  0  0  0  0
   -5.4694    1.7373    0.7641 C   0  0  0  0  0  0  0  0  0  0  0  0
   -4.9080    0.6112    1.2865 N   0  0  0  0  0  0  0  0  0  0  0  0
   -3.9633   -0.0554    0.6004 C   0  0  0  0  0  0  0  0  0  0  0  0
   -3.5777    0.4077   -0.6137 C   0  0  0  0  0  0  0  0  0  0  0  0
   -2.6083   -0.1988   -1.4028 O   0  0  0  0  0  0  0  0  0  0  0  0
   -1.6566   -1.0895   -0.9588 C   0  0  0  0  0  0  0  0  0  0  0  0
   -0.3737   -0.6509   -0.6281 C   0  0  0  0  0  0  0  0  0  0  0  0
    0.6310   -1.4599   -0.1807 C   0  0  0  0  0  0  0  0  0  0  0  0
    1.9786   -0.9477    0.1505 C   0  0  0  0  0  0  0  0  0  0  0  0
    2.7910   -1.6540    0.7917 O   0  0  0  0  0  0  0  0  0  0  0  0
    2.3998    0.3419   -0.2370 N   0  0  0  0  0  0  0  0  0  0  0  0
    3.6185    0.9768   -0.0095 C   0  0  0  0  0  0  0  0  0  0  0  0
    4.6972    0.4186    0.6134 C   0  0  0  0  0  0  0  0  0  0  0  0
    5.8894    1.1384    0.8211 C   0  0  0  0  0  0  0  0  0  0  0  0
    5.9826    2.4322    0.3920 C   0  0  0  0  0  0  0  0  0  0  0  0
    7.1178    3.1828    0.5658 F   0  0  0  0  0  0  0  0  0  0  0  0
    4.8858    2.9767   -0.2336 C   0  0  0  0  0  0  0  0  0  0  0  0
    3.7647    2.2739   -0.4196 N   0  0  0  0  0  0  0  0  0  0  0  0
    0.3364   -2.8000   -0.0529 C   0  0  0  0  0  0  0  0  0  0  0  0
    1.0597   -3.8814    0.3569 N   0  0  0  0  0  0  0  0  0  0  0  0
    0.2736   -4.9746    0.2935 C   0  0  0  0  0  0  0  0  0  0  0  0
   -0.9270   -4.5677   -0.1537 N   0  0  0  0  0  0  0  0  0  0  0  0
   -0.8975   -3.2595   -0.3644 N   0  0  0  0  0  0  0  0  0  0  0  0
   -1.8918   -2.4286   -0.8130 C   0  0  0  0  0  0  0  0  0  0  0  0
   -4.1375    1.5460   -1.1564 C   0  0  0  0  0  0  0  0  0  0  0  0
   -6.2430    2.2996    1.3019 H   0  0  0  0  0  0  0  0  0  0  0  0
   -3.4837   -0.9545    0.9647 H   0  0  0  0  0  0  0  0  0  0  0  0
   -0.2050    0.4011   -0.7417 H   0  0  0  0  0  0  0  0  0  0  0  0
    1.6781    0.9097   -0.7881 H   0  0  0  0  0  0  0  0  0  0  0  0
    4.6860   -0.5876    0.9679 H   0  0  0  0  0  0  0  0  0  0  0  0
    6.7246    0.6730    1.3151 H   0  0  0  0  0  0  0  0  0  0  0  0
    4.9872    4.0111   -0.5660 H   0  0  0  0  0  0  0  0  0  0  0  0
    0.5200   -5.9912    0.5426 H   0  0  0  0  0  0  0  0  0  0  0  0
   -2.8470   -2.8392   -1.0454 H   0  0  0  0  0  0  0  0  0  0  0  0
   -3.8473    1.9353   -2.1193 H   0  0  0  0  0  0  0  0  0  0  0  0
  1  2  3  0
  2  3  1  0
  3  4  2  0
  4  5  1  0
  5  6  2  0
  6  7  1  0
  7  8  1  0
  8  9  1  0
  9 10  1  0
 10 11  2  0
 11 12  1  0
 12 13  2  0
 12 14  1  0
 14 15  1  0
 15 16  2  0
 16 17  1  0
 17 18  2  0
 18 19  1  0
 18 20  1  0
 20 21  2  0
 11 22  1  0
 22 23  2  0
 23 24  1  0
 24 25  2  0
 25 26  1  0
 26 27  1  0
  7 28  2  0
 28  3  1  0
 27  9  2  0
 21 15  1  0
 26 22  1  0
  4 29  1  0
  6 30  1  0
 10 31  1  0
 14 32  1  0
 16 33  1  0
 17 34  1  0
 20 35  1  0
 24 36  1  0
 27 37  1  0
 28 38  1  0
M  END
$$$$
