@<TRIPOS>MOLECULE
*****
 52 52 0 0 0
SMALL
GASTEIGER

@<TRIPOS>ATOM
      1 C          -4.7197   -2.5408   -0.4139 C.3     1  UNK1        0.1037
      2 N          -5.8258   -1.6998   -0.7908 N.3     1  UNK1       -0.3184
      3 C          -3.5936   -1.6703    0.1180 C.3     1  UNK1       -0.0190
      4 C          -3.2183   -0.7340   -1.0241 C.3     1  UNK1        0.0249
      5 C          -2.1096    0.1800   -0.6177 C.2     1  UNK1        0.1832
      6 O          -2.2332    1.0576    0.4494 O.2     1  UNK1       -0.4956
      7 N          -1.0001    0.2002   -1.2268 N.2     1  UNK1       -0.2411
      8 C           0.1215    1.0584   -0.8916 C.3     1  UNK1        0.1378
      9 C           1.3200    0.7535   -1.7609 C.3     1  UNK1        0.0251
     10 S           2.6732    1.8470   -1.2897 S.3     1  UNK1       -0.1535
     11 C           3.2545    1.4498    0.4014 C.3     1  UNK1        0.0189
     12 C           3.8690    0.0777    0.3592 C.ar    1  UNK1       -0.0371
     13 C           3.0372   -1.0134    0.6030 C.ar    1  UNK1       -0.0514
     14 C           3.5861   -2.2762    0.5673 C.ar    1  UNK1        0.0159
     15 C           4.9154   -2.5318    0.3038 C.ar    1  UNK1        0.2732
     16 C           5.7285   -1.4311    0.0633 C.ar    1  UNK1        0.0159
     17 C           5.1904   -0.1554    0.0960 C.ar    1  UNK1       -0.0514
     18 N           5.4659   -3.8519    0.2718 N.pl3   1  UNK1        0.0796
     19 O           6.8012   -3.9374   -0.0035 O.co2   1  UNK1       -0.5760
     20 O           4.6656   -4.7940    0.4998 O.2     1  UNK1        0.0414
     21 C          -0.2389    2.4972   -1.1754 C.2     1  UNK1        0.2092
     22 O          -0.4939    2.5886   -2.5441 O.2     1  UNK1       -0.4942
     23 N          -0.3734    3.6150   -0.5465 N.2     2  GLY2       -0.2416
     24 CA         -0.1492    3.6950    0.8639 C.3     2  GLY2        0.1398
     25 C           0.3262    5.0693    1.2050 C.2     2  GLY2        0.3264
     26 O           0.5367    6.1405    0.3348 O.3     2  GLY2       -0.4793
     27 OXT         0.5955    5.3903    2.4077 O.2     2  GLY2       -0.2489
     28 C          -5.2353   -3.4496    0.6629 C.2     1  UNK1        0.3217
     29 O          -6.4138   -3.7053    1.3741 O.3     1  UNK1       -0.4795
     30 O          -4.5804   -4.3591    1.2779 O.2     1  UNK1       -0.2493
     31 H          -4.3075   -3.1648   -1.2069 H       1  UNK1        0.0574
     32 H          -5.8552   -0.7821   -0.3437 H       1  UNK1        0.1190
     33 H          -6.7162   -2.1908   -0.9426 H       1  UNK1        0.1190
     34 H          -3.8798   -1.1089    1.0284 H       1  UNK1        0.0290
     35 H          -2.7337   -2.3079    0.3658 H       1  UNK1        0.0290
     36 H          -2.8994   -1.3596   -1.8770 H       1  UNK1        0.0360
     37 H          -4.0847   -0.1396   -1.3523 H       1  UNK1        0.0360
     38 H          -1.5154    1.1422    1.1601 H       1  UNK1        0.2934
     39 H           0.4216    0.9002    0.1587 H       1  UNK1        0.0651
     40 H           1.0827    0.9743   -2.8199 H       1  UNK1        0.0402
     41 H           1.5976   -0.3212   -1.6801 H       1  UNK1        0.0402
     42 H           2.4386    1.4092    1.1281 H       1  UNK1        0.0425
     43 H           4.0605    2.1544    0.6732 H       1  UNK1        0.0425
     44 H           1.9821   -0.9435    0.8208 H       1  UNK1        0.0623
     45 H           2.9613   -3.1485    0.7537 H       1  UNK1        0.0685
     46 H           6.7786   -1.5679   -0.1489 H       1  UNK1        0.0685
     47 H           5.7906    0.7352   -0.0864 H       1  UNK1        0.0623
     48 H          -0.7596    3.4737   -2.9803 H       1  UNK1        0.2935
     49 HA1         0.6233    2.9623    1.1696 H       2  GLY2        0.0625
     50 HA2        -1.1288    3.4995    1.3708 H       2  GLY2        0.0625
     51 H           1.2876    6.7892    0.4805 H       2  GLY2        0.2951
     52 H          -7.0458   -4.4753    1.1483 H       1  UNK1        0.2951
@<TRIPOS>UNITY_ATOM_ATTR
18 1
charge 1
19 1
charge -1
@<TRIPOS>BOND
     1     1     2    1
     2     1     3    1
     3     3     4    1
     4     4     5    1
     5     5     6    1
     6     5     7    2
     7     7     8    1
     8     8     9    1
     9     9    10    1
    10    10    11    1
    11    11    12    1
    12    12    13   ar
    13    13    14   ar
    14    14    15   ar
    15    15    16   ar
    16    16    17   ar
    17    15    18    1
    18    18    19    1
    19    18    20    2
    20     8    21    1
    21    21    22    1
    22    21    23    2
    23    23    24    1
    24    24    25    1
    25    25    26    1
    26    25    27    2
    27     1    28    1
    28    28    29    1
    29    28    30    2
    30    17    12   ar
    31     1    31    1
    32     2    32    1
    33     2    33    1
    34     3    34    1
    35     3    35    1
    36     4    36    1
    37     4    37    1
    38     6    38    1
    39     8    39    1
    40     9    40    1
    41     9    41    1
    42    11    42    1
    43    11    43    1
    44    13    44    1
    45    14    45    1
    46    16    46    1
    47    17    47    1
    48    22    48    1
    49    24    49    1
    50    24    50    1
    51    26    51    1
    52    29    52    1
