@<TRIPOS>MOLECULE
*****
 46 46 0 0 0
SMALL
GASTEIGER

@<TRIPOS>ATOM
      1 C          -0.3427    0.0263   -0.1179 C.3     1  UNL1        0.0338
      2 N          -0.6274    0.2905    1.2803 N.3     1  UNL1       -0.3251
      3 C          -1.3567    0.7457   -0.9778 C.3     1  UNL1       -0.0324
      4 C          -2.7605    0.3219   -0.7161 C.3     1  UNL1       -0.0396
      5 C          -3.0084   -1.1392   -0.9606 C.3     1  UNL1       -0.0502
      6 C          -4.4887   -1.3540   -1.0574 C.3     1  UNL1       -0.0528
      7 C          -5.2529   -0.7963    0.1082 C.3     1  UNL1       -0.0530
      8 C          -4.7938    0.5653    0.5452 C.3     1  UNL1       -0.0528
      9 C          -3.2641    0.6327    0.6500 C.3     1  UNL1       -0.0502
     10 C           1.0093    0.6196   -0.4297 C.3     1  UNL1        0.0961
     11 O           0.9874    1.9907   -0.1940 O.3     1  UNL1       -0.3877
     12 C           2.1116    0.0199    0.4171 C.3     1  UNL1        0.0827
     13 O           2.1202   -1.3509    0.1707 O.3     1  UNL1       -0.3892
     14 C           3.4225    0.6210   -0.0449 C.3     1  UNL1       -0.0220
     15 C           4.5939    0.0829    0.7439 C.3     1  UNL1       -0.0443
     16 C           5.8459    0.7451    0.2042 C.3     1  UNL1       -0.0626
     17 C           4.7462   -1.4007    0.6093 C.3     1  UNL1       -0.0626
     18 H          -0.3415   -1.0568   -0.2933 H       1  UNL1        0.0484
     19 H          -0.3814    1.2750    1.5464 H       1  UNL1        0.1185
     20 H          -0.2108   -0.4311    1.9147 H       1  UNL1        0.1185
     21 H          -1.1429    0.6049   -2.0570 H       1  UNL1        0.0284
     22 H          -1.2872    1.8315   -0.7614 H       1  UNL1        0.0284
     23 H          -3.4060    0.8697   -1.4350 H       1  UNL1        0.0301
     24 H          -2.5688   -1.6849   -0.0983 H       1  UNL1        0.0268
     25 H          -2.5434   -1.3934   -1.9186 H       1  UNL1        0.0268
     26 H          -4.8578   -0.9792   -2.0168 H       1  UNL1        0.0265
     27 H          -4.6729   -2.4627   -1.0735 H       1  UNL1        0.0265
     28 H          -6.3189   -0.6664   -0.2440 H       1  UNL1        0.0265
     29 H          -5.3350   -1.5099    0.9572 H       1  UNL1        0.0265
     30 H          -5.2843    0.7801    1.5154 H       1  UNL1        0.0265
     31 H          -5.0825    1.2776   -0.2569 H       1  UNL1        0.0265
     32 H          -2.9774    1.5969    1.0657 H       1  UNL1        0.0268
     33 H          -3.0085   -0.2352    1.3201 H       1  UNL1        0.0268
     34 H           1.1966    0.4798   -1.5109 H       1  UNL1        0.0635
     35 H           0.7254    2.5206   -0.9875 H       1  UNL1        0.2100
     36 H           2.0012    0.2470    1.4786 H       1  UNL1        0.0620
     37 H           1.9356   -1.4994   -0.8104 H       1  UNL1        0.2099
     38 H           3.6333    0.4449   -1.1112 H       1  UNL1        0.0293
     39 H           3.3960    1.7015    0.1277 H       1  UNL1        0.0293
     40 H           4.4955    0.3969    1.8106 H       1  UNL1        0.0296
     41 H           5.7586    1.8190    0.0424 H       1  UNL1        0.0232
     42 H           6.1183    0.2434   -0.7502 H       1  UNL1        0.0232
     43 H           6.6983    0.5725    0.8929 H       1  UNL1        0.0232
     44 H           4.2473   -1.9866    1.4090 H       1  UNL1        0.0232
     45 H           4.4403   -1.7288   -0.4088 H       1  UNL1        0.0232
     46 H           5.8311   -1.6479    0.6704 H       1  UNL1        0.0232
@<TRIPOS>BOND
     1     1     2    1
     2     1     3    1
     3     3     4    1
     4     4     5    1
     5     5     6    1
     6     6     7    1
     7     7     8    1
     8     8     9    1
     9     1    10    1
    10    10    11    1
    11    10    12    1
    12    12    13    1
    13    12    14    1
    14    14    15    1
    15    15    16    1
    16    15    17    1
    17     9     4    1
    18     1    18    1
    19     2    19    1
    20     2    20    1
    21     3    21    1
    22     3    22    1
    23     4    23    1
    24     5    24    1
    25     5    25    1
    26     6    26    1
    27     6    27    1
    28     7    28    1
    29     7    29    1
    30     8    30    1
    31     8    31    1
    32     9    32    1
    33     9    33    1
    34    10    34    1
    35    11    35    1
    36    12    36    1
    37    13    37    1
    38    14    38    1
    39    14    39    1
    40    15    40    1
    41    16    41    1
    42    16    42    1
    43    16    43    1
    44    17    44    1
    45    17    45    1
    46    17    46    1
