
     RDKit          3D

 43 47  0  0  0  0  0  0  0  0999 V2000
    0.1887   -4.0763    0.0872 C   0  0  0  0  0  0  0  0  0  0  0  0
   -0.3060   -2.9609    0.9541 C   0  0  0  0  0  0  0  0  0  0  0  0
   -1.0693   -1.9572    0.2674 N   0  0  0  0  0  0  0  0  0  0  0  0
   -2.3567   -2.1654   -0.0832 C   0  0  0  0  0  0  0  0  0  0  0  0
   -2.7871   -1.0757   -0.6992 N   0  0  0  0  0  0  0  0  0  0  0  0
   -1.7660   -0.1639   -0.7421 C   0  0  0  0  0  0  0  0  0  0  0  0
   -1.8055    1.1629   -1.3280 C   0  0  0  0  0  0  0  0  0  0  0  0
   -1.2495    1.3830   -2.5652 C   0  0  0  0  0  0  0  0  0  0  0  0
   -1.2727    2.6597   -3.1416 C   0  0  0  0  0  0  0  0  0  0  0  0
   -1.8609    3.7238   -2.4674 C   0  0  0  0  0  0  0  0  0  0  0  0
   -1.8685    4.9380   -3.0486 F   0  0  0  0  0  0  0  0  0  0  0  0
   -2.4221    3.4991   -1.2160 C   0  0  0  0  0  0  0  0  0  0  0  0
   -3.1606    4.8289   -0.3567 Cl  0  0  0  0  0  0  0  0  0  0  0  0
   -2.3857    2.2213   -0.6654 C   0  0  0  0  0  0  0  0  0  0  0  0
   -0.6712   -0.7346   -0.1219 C   0  0  0  0  0  0  0  0  0  0  0  0
    0.6552   -0.1396    0.0747 C   0  0  0  0  0  0  0  0  0  0  0  0
    1.8112   -0.7849   -0.3184 C   0  0  0  0  0  0  0  0  0  0  0  0
    3.0477   -0.2076   -0.1274 C   0  0  0  0  0  0  0  0  0  0  0  0
    3.0923    1.0391    0.4702 C   0  0  0  0  0  0  0  0  0  0  0  0
    4.1070    1.8774    0.8000 N   0  0  0  0  0  0  0  0  0  0  0  0
    3.6280    2.9837    1.3634 C   0  0  0  0  0  0  0  0  0  0  0  0
    2.2434    2.8772    1.4100 C   0  0  0  0  0  0  0  0  0  0  0  0
    1.3203    3.8410    1.9125 C   0  0  0  0  0  0  0  0  0  0  0  0
    0.5300    4.6387    2.3258 N   0  0  0  0  0  0  0  0  0  0  0  0
    1.9671    1.6644    0.8503 N   0  0  0  0  0  0  0  0  0  0  0  0
    0.8040    1.0696    0.6466 N   0  0  0  0  0  0  0  0  0  0  0  0
   -1.1099   -3.4720    2.1517 C   0  0  0  0  0  0  0  0  0  0  0  0
    0.0189   -3.3595    2.9639 O   0  0  0  0  0  0  0  0  0  0  0  0
    0.6282   -2.4823    2.0384 C   0  0  0  0  0  0  0  0  0  0  0  0
    0.4044   -3.7439   -0.9349 H   0  0  0  0  0  0  0  0  0  0  0  0
   -0.6412   -4.8287   -0.0050 H   0  0  0  0  0  0  0  0  0  0  0  0
    1.0271   -4.6042    0.5743 H   0  0  0  0  0  0  0  0  0  0  0  0
   -2.9596   -3.0691    0.0988 H   0  0  0  0  0  0  0  0  0  0  0  0
   -0.7754    0.6103   -3.1520 H   0  0  0  0  0  0  0  0  0  0  0  0
   -0.8409    2.8468   -4.1134 H   0  0  0  0  0  0  0  0  0  0  0  0
   -2.8420    2.0939    0.3241 H   0  0  0  0  0  0  0  0  0  0  0  0
    1.7576   -1.7740   -0.7922 H   0  0  0  0  0  0  0  0  0  0  0  0
    3.9708   -0.6856   -0.4234 H   0  0  0  0  0  0  0  0  0  0  0  0
    4.2065    3.8404    1.7332 H   0  0  0  0  0  0  0  0  0  0  0  0
   -1.9290   -2.7951    2.4574 H   0  0  0  0  0  0  0  0  0  0  0  0
   -1.5136   -4.5026    2.0322 H   0  0  0  0  0  0  0  0  0  0  0  0
    1.6784   -2.7747    1.8418 H   0  0  0  0  0  0  0  0  0  0  0  0
    0.5066   -1.4414    2.3508 H   0  0  0  0  0  0  0  0  0  0  0  0
  1  2  1  0
  2  3  1  0
  3  4  1  0
  4  5  2  0
  5  6  1  0
  6  7  1  0
  7  8  2  0
  8  9  1  0
  9 10  2  0
 10 11  1  0
 10 12  1  0
 12 13  1  0
 12 14  2  0
  6 15  2  0
 15 16  1  0
 16 17  1  0
 17 18  2  0
 18 19  1  0
 19 20  2  0
 20 21  1  0
 21 22  2  0
 22 23  1  0
 23 24  3  0
 22 25  1  0
 25 26  1  0
  2 27  1  0
 27 28  1  0
 28 29  1  0
 29  2  1  0
 15  3  1  0
 26 16  2  0
 14  7  1  0
 25 19  1  0
  1 30  1  0
  1 31  1  0
  1 32  1  0
  4 33  1  0
  8 34  1  0
  9 35  1  0
 14 36  1  0
 17 37  1  0
 18 38  1  0
 21 39  1  0
 27 40  1  0
 27 41  1  0
 29 42  1  0
 29 43  1  0
M  END
$$$$
