@<TRIPOS>MOLECULE
*****
 43 47 0 0 0
SMALL
GASTEIGER

@<TRIPOS>ATOM
      1 C           0.1887   -4.0763    0.0872 C.3     1  UNL1       -0.0370
      2 C          -0.3060   -2.9609    0.9541 C.3     1  UNL1        0.0906
      3 N          -1.0693   -1.9572    0.2674 N.ar    1  UNL1       -0.3180
      4 C          -2.3567   -2.1654   -0.0832 C.ar    1  UNL1        0.0977
      5 N          -2.7871   -1.0757   -0.6992 N.ar    1  UNL1       -0.2350
      6 C          -1.7660   -0.1639   -0.7421 C.ar    1  UNL1        0.0983
      7 C          -1.8055    1.1629   -1.3280 C.ar    1  UNL1        0.0040
      8 C          -1.2495    1.3830   -2.5652 C.ar    1  UNL1       -0.0497
      9 C          -1.2727    2.6597   -3.1416 C.ar    1  UNL1       -0.0244
     10 C          -1.8609    3.7238   -2.4674 C.ar    1  UNL1        0.1417
     11 F          -1.8685    4.9380   -3.0486 F       1  UNL1       -0.2040
     12 C          -2.4221    3.4991   -1.2160 C.ar    1  UNL1        0.0767
     13 CL         -3.1606    4.8289   -0.3567 Cl      1  UNL1       -0.0806
     14 C          -2.3857    2.2213   -0.6654 C.ar    1  UNL1       -0.0313
     15 C          -0.6712   -0.7346   -0.1219 C.ar    1  UNL1        0.0972
     16 C           0.6552   -0.1396    0.0747 C.ar    1  UNL1        0.1103
     17 C           1.8112   -0.7849   -0.3184 C.ar    1  UNL1       -0.0290
     18 C           3.0477   -0.2076   -0.1274 C.ar    1  UNL1       -0.0153
     19 C           3.0923    1.0391    0.4702 C.ar    1  UNL1        0.1555
     20 N           4.1070    1.8774    0.8000 N.ar    1  UNL1       -0.2333
     21 C           3.6280    2.9837    1.3634 C.ar    1  UNL1        0.0659
     22 C           2.2434    2.8772    1.4100 C.ar    1  UNL1        0.1618
     23 C           1.3203    3.8410    1.9125 C.1     1  UNL1        0.1208
     24 N           0.5300    4.6387    2.3258 N.1     1  UNL1       -0.1892
     25 N           1.9671    1.6644    0.8503 N.ar    1  UNL1       -0.2023
     26 N           0.8040    1.0696    0.6466 N.ar    1  UNL1       -0.1623
     27 C          -1.1099   -3.4720    2.1517 C.3     1  UNL1        0.0732
     28 O           0.0189   -3.3595    2.9639 O.3     1  UNL1       -0.3750
     29 C           0.6282   -2.4823    2.0384 C.3     1  UNL1        0.0732
     30 H           0.4044   -3.7439   -0.9349 H       1  UNL1        0.0254
     31 H          -0.6412   -4.8287   -0.0050 H       1  UNL1        0.0254
     32 H           1.0271   -4.6042    0.5743 H       1  UNL1        0.0254
     33 H          -2.9596   -3.0691    0.0988 H       1  UNL1        0.1029
     34 H          -0.7754    0.6103   -3.1520 H       1  UNL1        0.0625
     35 H          -0.8409    2.8468   -4.1134 H       1  UNL1        0.0647
     36 H          -2.8420    2.0939    0.3241 H       1  UNL1        0.0640
     37 H           1.7576   -1.7740   -0.7922 H       1  UNL1        0.0641
     38 H           3.9708   -0.6856   -0.4234 H       1  UNL1        0.0655
     39 H           4.2065    3.8404    1.7332 H       1  UNL1        0.0859
     40 H          -1.9290   -2.7951    2.4574 H       1  UNL1        0.0584
     41 H          -1.5136   -4.5026    2.0322 H       1  UNL1        0.0584
     42 H           1.6784   -2.7747    1.8418 H       1  UNL1        0.0584
     43 H           0.5066   -1.4414    2.3508 H       1  UNL1        0.0584
@<TRIPOS>BOND
     1     1     2    1
     2     2     3    1
     3     3     4   ar
     4     4     5   ar
     5     5     6   ar
     6     6     7    1
     7     7     8   ar
     8     8     9   ar
     9     9    10   ar
    10    10    11    1
    11    10    12   ar
    12    12    13    1
    13    12    14   ar
    14     6    15   ar
    15    15    16    1
    16    16    17   ar
    17    17    18   ar
    18    18    19   ar
    19    19    20   ar
    20    20    21   ar
    21    21    22   ar
    22    22    23    1
    23    23    24    3
    24    22    25   ar
    25    25    26   ar
    26     2    27    1
    27    27    28    1
    28    28    29    1
    29    29     2    1
    30    15     3   ar
    31    26    16   ar
    32    14     7   ar
    33    25    19   ar
    34     1    30    1
    35     1    31    1
    36     1    32    1
    37     4    33    1
    38     8    34    1
    39     9    35    1
    40    14    36    1
    41    17    37    1
    42    18    38    1
    43    21    39    1
    44    27    40    1
    45    27    41    1
    46    29    42    1
    47    29    43    1
