@<TRIPOS>MOLECULE
*****
 143 148 0 0 0
SMALL
GASTEIGER

@<TRIPOS>ATOM
      1 C           3.6204    0.1927   -0.3530 C.2     1  UNL1       -0.0784
      2 C           2.7119   -0.4829   -1.1099 C.2     1  UNL1       -0.0360
      3 C           3.4906   -1.1154   -2.1855 C.3     1  UNL1       -0.0403
      4 C           1.3436   -0.3935   -0.6265 C.3     1  UNL1        0.1288
      5 O           0.3985    0.0617   -1.5970 O.3     1  UNL1       -0.4553
      6 C          -0.4019    1.1810   -1.4172 C.2     1  UNL1        0.3284
      7 O          -0.2364    1.7899   -0.3487 O.2     1  UNL1       -0.2487
      8 C          -1.3919    1.6552   -2.3842 C.3     1  UNL1        0.1233
      9 C          -1.1673    3.1093   -2.8160 C.3     1  UNL1       -0.0238
     10 C          -2.4812    3.4855   -3.5257 C.3     1  UNL1       -0.0494
     11 C          -3.0372    2.2592   -4.2088 C.3     1  UNL1       -0.0370
     12 C          -3.5430    1.2672   -3.1834 C.3     1  UNL1        0.0159
     13 N          -2.7937    1.6061   -1.9240 N.am    1  UNL1       -0.2815
     14 C          -2.7162    1.9193   -0.5085 C.2     1  UNL1        0.2883
     15 O          -3.8894    1.7027   -0.8661 O.2     1  UNL1       -0.2666
     16 C          -3.6227    2.0576    0.6227 C.2     1  UNL1        0.2760
     17 O          -2.6638    2.3938    1.4135 O.2     1  UNL1       -0.2814
     18 C          -4.8240    2.0874    1.4893 C.3     1  UNL1        0.2402
     19 O          -4.5182    1.5217    2.7526 O.3     1  UNL1       -0.3583
     20 O          -5.7492    1.2052    0.9474 O.3     1  UNL1       -0.3336
     21 C          -7.0551    1.5715    1.2987 C.3     1  UNL1        0.1144
     22 C          -7.2853    2.8481    0.5452 C.3     1  UNL1        0.0874
     23 C          -6.6189    3.9064    1.4840 C.3     1  UNL1       -0.0162
     24 C          -5.2179    3.4867    1.6857 C.3     1  UNL1        0.0206
     25 C          -4.8297    3.9370    3.1072 C.3     1  UNL1       -0.0570
     26 O          -8.5526    3.2318    0.2751 O.3     1  UNL1       -0.3771
     27 C          -8.7511    3.7009   -1.0238 C.3     1  UNL1        0.0369
     28 C          -8.0040    0.5121    0.9124 C.3     1  UNL1        0.0873
     29 C          -7.3454   -0.7001    0.3788 C.3     1  UNL1       -0.0188
     30 C          -6.4151   -1.4442    1.2724 C.3     1  UNL1       -0.0115
     31 C          -7.0651   -1.8523    2.5832 C.3     1  UNL1       -0.0597
     32 C          -6.0784   -2.8035    0.6048 C.3     1  UNL1        0.0787
     33 O          -7.2292   -3.5603    0.4804 O.3     1  UNL1       -0.3872
     34 C          -4.9216   -3.4716    1.1768 C.2     1  UNL1       -0.0475
     35 C          -4.6349   -3.8849    2.5753 C.3     1  UNL1       -0.0413
     36 C          -3.9094   -3.8351    0.3524 C.2     1  UNL1       -0.0725
     37 C          -2.5757   -4.4876    0.3086 C.3     1  UNL1        0.0357
     38 C          -2.5993   -5.7728   -0.4739 C.3     1  UNL1       -0.0429
     39 C          -3.0217   -5.5716   -1.8967 C.3     1  UNL1       -0.0644
     40 C          -1.5201   -3.6017   -0.2238 C.2     1  UNL1        0.1425
     41 O          -2.2688   -2.6488   -0.3428 O.2     1  UNL1       -0.2967
     42 C          -0.1060   -3.9839   -0.4456 C.3     1  UNL1        0.0328
     43 C           0.6705   -2.8042   -1.0385 C.3     1  UNL1        0.0681
     44 O           1.9789   -3.3182   -1.2015 O.3     1  UNL1       -0.3910
     45 C           0.7355   -1.6646   -0.0827 C.3     1  UNL1        0.0236
     46 C           1.3723   -2.0567    1.2373 C.3     1  UNL1       -0.0564
     47 O          -8.9816    1.0255    0.0602 O.3     1  UNL1       -0.3771
     48 C         -10.2473    1.0335    0.6161 C.3     1  UNL1        0.0369
     49 C           5.1045    0.4287   -0.3481 C.3     1  UNL1       -0.0200
     50 C           5.6247   -0.1006    0.9959 C.3     1  UNL1       -0.0432
     51 C           6.6406    0.8427    1.5766 C.3     1  UNL1       -0.0128
     52 C           7.6420    1.2938    0.5486 C.3     1  UNL1        0.1262
     53 O           8.4837    0.2613    0.1272 O.3     1  UNL1       -0.4862
     54 C           9.8200    0.1103    0.3398 C.ar    1  UNL1        0.1217
     55 C          10.3760   -1.0408   -0.2231 C.ar    1  UNL1       -0.0179
     56 C          11.7333   -1.3047   -0.0727 C.ar    1  UNL1       -0.0342
     57 C          12.5491   -0.4588    0.6192 C.ar    1  UNL1        0.0490
     58 N          13.8668   -0.4265    0.9376 N.ar    1  UNL1       -0.3497
     59 C          14.8242   -1.4486    0.5401 C.3     1  UNL1        0.0119
     60 C          14.1619    0.6843    1.6707 C.ar    1  UNL1        0.0054
     61 C          13.0131    1.4193    1.8496 C.ar    1  UNL1       -0.0363
     62 C          12.0452    0.6918    1.1935 C.ar    1  UNL1        0.0033
     63 C          10.6985    0.9196    1.0240 C.ar    1  UNL1       -0.0108
     64 C           6.9609    2.0142   -0.5564 C.3     1  UNL1        0.0956
     65 C           5.4688    1.8708   -0.4536 C.3     1  UNL1       -0.0168
     66 O           7.2765    3.3783   -0.5878 O.3     1  UNL1       -0.3761
     67 C           7.8794    3.6471   -1.8138 C.3     1  UNL1        0.0370
     68 H           3.3099    0.7733    0.5236 H       1  UNL1        0.0575
     69 H           4.1862   -1.9070   -1.8675 H       1  UNL1        0.0276
     70 H           4.1343   -0.3751   -2.7302 H       1  UNL1        0.0276
     71 H           2.7952   -1.4800   -2.9924 H       1  UNL1        0.0276
     72 H           1.2313    0.3540    0.2136 H       1  UNL1        0.0785
     73 H          -1.2139    1.0668   -3.3004 H       1  UNL1        0.0616
     74 H          -0.3948    3.1430   -3.6147 H       1  UNL1        0.0288
     75 H          -0.9603    3.7731   -1.9704 H       1  UNL1        0.0288
     76 H          -3.1717    3.7441   -2.6949 H       1  UNL1        0.0266
     77 H          -2.3201    4.3112   -4.2279 H       1  UNL1        0.0266
     78 H          -3.8973    2.6161   -4.8464 H       1  UNL1        0.0280
     79 H          -2.3243    1.7950   -4.9203 H       1  UNL1        0.0280
     80 H          -3.2671    0.2181   -3.4251 H       1  UNL1        0.0465
     81 H          -4.6042    1.4489   -3.0485 H       1  UNL1        0.0465
     82 H          -5.1994    0.9043    3.0718 H       1  UNL1        0.2132
     83 H          -7.0836    1.7817    2.4159 H       1  UNL1        0.0649
     84 H          -6.6640    2.9030   -0.3819 H       1  UNL1        0.0623
     85 H          -7.2177    3.9225    2.4203 H       1  UNL1        0.0295
     86 H          -6.6863    4.8528    0.9151 H       1  UNL1        0.0295
     87 H          -4.5822    4.1698    1.0358 H       1  UNL1        0.0355
     88 H          -4.7410    5.0268    3.1210 H       1  UNL1        0.0234
     89 H          -3.9650    3.3637    3.4342 H       1  UNL1        0.0234
     90 H          -5.7353    3.6937    3.7312 H       1  UNL1        0.0234
     91 H          -8.1067    4.6027   -1.1789 H       1  UNL1        0.0524
     92 H          -8.5187    2.9049   -1.7338 H       1  UNL1        0.0524
     93 H          -9.8079    4.0247   -1.0932 H       1  UNL1        0.0524
     94 H          -8.6069    0.2717    1.8486 H       1  UNL1        0.0623
     95 H          -6.7350   -0.4438   -0.5412 H       1  UNL1        0.0294
     96 H          -8.0717   -1.4571   -0.0253 H       1  UNL1        0.0294
     97 H          -5.4525   -0.9785    1.4972 H       1  UNL1        0.0327
     98 H          -7.7703   -1.1191    2.9866 H       1  UNL1        0.0233
     99 H          -7.5163   -2.8817    2.5231 H       1  UNL1        0.0233
    100 H          -6.2502   -1.9250    3.3337 H       1  UNL1        0.0233
    101 H          -5.8389   -2.4906   -0.4644 H       1  UNL1        0.0643
    102 H          -6.9589   -4.5320    0.5266 H       1  UNL1        0.2102
    103 H          -4.1851   -3.1043    3.1992 H       1  UNL1        0.0275
    104 H          -4.0067   -4.8180    2.6161 H       1  UNL1        0.0275
    105 H          -5.5989   -4.1958    3.0753 H       1  UNL1        0.0275
    106 H          -3.9979   -3.6177   -0.7288 H       1  UNL1        0.0579
    107 H          -2.2519   -4.7491    1.3535 H       1  UNL1        0.0420
    108 H          -3.2509   -6.5357   -0.0148 H       1  UNL1        0.0272
    109 H          -1.5615   -6.1698   -0.4856 H       1  UNL1        0.0272
    110 H          -2.6755   -6.4045   -2.5518 H       1  UNL1        0.0230
    111 H          -4.1381   -5.5512   -2.0145 H       1  UNL1        0.0230
    112 H          -2.6544   -4.6388   -2.3451 H       1  UNL1        0.0230
    113 H          -0.1205   -4.7701   -1.2369 H       1  UNL1        0.0367
    114 H           0.4053   -4.3087    0.4770 H       1  UNL1        0.0367
    115 H           0.1978   -2.5557   -1.9979 H       1  UNL1        0.0601
    116 H           2.1598   -4.0777   -0.6094 H       1  UNL1        0.2098
    117 H          -0.3342   -1.3886    0.1650 H       1  UNL1        0.0362
    118 H           2.1208   -2.8617    1.0431 H       1  UNL1        0.0234
    119 H           0.6039   -2.4548    1.8969 H       1  UNL1        0.0234
    120 H           1.8301   -1.1339    1.6453 H       1  UNL1        0.0234
    121 H         -10.9256    1.4673   -0.1522 H       1  UNL1        0.0524
    122 H         -10.3651    1.6215    1.5303 H       1  UNL1        0.0524
    123 H         -10.6429   -0.0199    0.7421 H       1  UNL1        0.0524
    124 H           5.5834   -0.2021   -1.1129 H       1  UNL1        0.0344
    125 H           4.7715   -0.1120    1.7351 H       1  UNL1        0.0272
    126 H           5.9616   -1.1435    0.9244 H       1  UNL1        0.0272
    127 H           7.1461    0.2753    2.3982 H       1  UNL1        0.0302
    128 H           6.1337    1.6917    2.0383 H       1  UNL1        0.0302
    129 H           8.3094    2.0449    1.0646 H       1  UNL1        0.0759
    130 H           9.7910   -1.7501   -0.7814 H       1  UNL1        0.0655
    131 H          12.2226   -2.1872   -0.4897 H       1  UNL1        0.0639
    132 H          14.4223   -2.4564    0.6629 H       1  UNL1        0.0456
    133 H          15.0797   -1.2097   -0.5305 H       1  UNL1        0.0456
    134 H          15.7550   -1.3268    1.1567 H       1  UNL1        0.0456
    135 H          15.1653    0.9145    2.0384 H       1  UNL1        0.0809
    136 H          12.9491    2.3498    2.3914 H       1  UNL1        0.0639
    137 H          10.2668    1.8082    1.4601 H       1  UNL1        0.0661
    138 H           7.2839    1.5476   -1.5281 H       1  UNL1        0.0633
    139 H           5.1080    2.3913    0.4750 H       1  UNL1        0.0297
    140 H           5.0190    2.3608   -1.3527 H       1  UNL1        0.0297
    141 H           8.1611    4.7198   -1.9137 H       1  UNL1        0.0524
    142 H           7.2573    3.4027   -2.6878 H       1  UNL1        0.0524
    143 H           8.7886    2.9945   -1.8596 H       1  UNL1        0.0524
@<TRIPOS>BOND
     1     1     2    2
     2     2     3    1
     3     2     4    1
     4     4     5    1
     5     5     6    1
     6     6     7    2
     7     6     8    1
     8     8     9    1
     9     9    10    1
    10    10    11    1
    11    11    12    1
    12    12    13    1
    13    13    14   am
    14    14    15    2
    15    14    16    1
    16    16    17    2
    17    16    18    1
    18    18    19    1
    19    18    20    1
    20    20    21    1
    21    21    22    1
    22    22    23    1
    23    23    24    1
    24    24    25    1
    25    22    26    1
    26    26    27    1
    27    21    28    1
    28    28    29    1
    29    29    30    1
    30    30    31    1
    31    30    32    1
    32    32    33    1
    33    32    34    1
    34    34    35    1
    35    34    36    2
    36    36    37    1
    37    37    38    1
    38    38    39    1
    39    37    40    1
    40    40    41    2
    41    40    42    1
    42    42    43    1
    43    43    44    1
    44    43    45    1
    45    45    46    1
    46    28    47    1
    47    47    48    1
    48     1    49    1
    49    49    50    1
    50    50    51    1
    51    51    52    1
    52    52    53    1
    53    53    54    1
    54    54    55   ar
    55    55    56   ar
    56    56    57   ar
    57    57    58   ar
    58    58    59    1
    59    58    60   ar
    60    60    61   ar
    61    61    62   ar
    62    62    63   ar
    63    52    64    1
    64    64    65    1
    65    64    66    1
    66    66    67    1
    67    45     4    1
    68    65    49    1
    69    13     8    1
    70    24    18    1
    71    63    54   ar
    72    62    57   ar
    73     1    68    1
    74     3    69    1
    75     3    70    1
    76     3    71    1
    77     4    72    1
    78     8    73    1
    79     9    74    1
    80     9    75    1
    81    10    76    1
    82    10    77    1
    83    11    78    1
    84    11    79    1
    85    12    80    1
    86    12    81    1
    87    19    82    1
    88    21    83    1
    89    22    84    1
    90    23    85    1
    91    23    86    1
    92    24    87    1
    93    25    88    1
    94    25    89    1
    95    25    90    1
    96    27    91    1
    97    27    92    1
    98    27    93    1
    99    28    94    1
   100    29    95    1
   101    29    96    1
   102    30    97    1
   103    31    98    1
   104    31    99    1
   105    31   100    1
   106    32   101    1
   107    33   102    1
   108    35   103    1
   109    35   104    1
   110    35   105    1
   111    36   106    1
   112    37   107    1
   113    38   108    1
   114    38   109    1
   115    39   110    1
   116    39   111    1
   117    39   112    1
   118    42   113    1
   119    42   114    1
   120    43   115    1
   121    44   116    1
   122    45   117    1
   123    46   118    1
   124    46   119    1
   125    46   120    1
   126    48   121    1
   127    48   122    1
   128    48   123    1
   129    49   124    1
   130    50   125    1
   131    50   126    1
   132    51   127    1
   133    51   128    1
   134    52   129    1
   135    55   130    1
   136    56   131    1
   137    59   132    1
   138    59   133    1
   139    59   134    1
   140    60   135    1
   141    61   136    1
   142    63   137    1
   143    64   138    1
   144    65   139    1
   145    65   140    1
   146    67   141    1
   147    67   142    1
   148    67   143    1
