
     RDKit          3D

107111  0  0  0  0  0  0  0  0999 V2000
   -0.2522   -0.6089   -1.3344 O   0  0  0  0  0  0  0  0  0  0  0  0
    0.1486   -0.4788   -0.1585 C   0  0  0  0  0  0  0  0  0  0  0  0
    1.5127   -0.6762    0.2238 N   0  0  0  0  0  0  0  0  0  0  0  0
    2.5141   -1.0249   -0.7169 C   0  0  1  0  0  0  0  0  0  0  0  0
    2.1076   -2.1112   -1.6461 C   0  0  0  0  0  0  0  0  0  0  0  0
    1.7722   -3.4292   -1.0014 C   0  0  0  0  0  0  0  0  0  0  0  0
    1.3602   -4.3523   -2.1516 C   0  0  0  0  0  0  0  0  0  0  0  0
    1.5880   -5.7736   -1.6904 C   0  0  0  0  0  0  0  0  0  0  0  0
    3.0681   -6.0488   -1.7330 C   0  0  0  0  0  0  0  0  0  0  0  0
    3.8179   -4.8601   -1.1699 C   0  0  0  0  0  0  0  0  0  0  0  0
    2.9241   -4.0524   -0.2433 C   0  0  0  0  0  0  0  0  0  0  0  0
    3.0032    0.1709   -1.4428 C   0  0  0  0  0  0  0  0  0  0  0  0
    3.8071   -0.0295   -2.3762 O   0  0  0  0  0  0  0  0  0  0  0  0
    2.6420    1.5616   -1.1726 C   0  0  0  0  0  0  0  0  0  0  0  0
    1.3378    1.9000   -1.2840 F   0  0  0  0  0  0  0  0  0  0  0  0
    3.3542    2.4313   -2.0116 F   0  0  0  0  0  0  0  0  0  0  0  0
    3.0610    1.8512    0.2493 C   0  0  0  0  0  0  0  0  0  0  0  0
    2.2791    2.1950    1.1458 O   0  0  0  0  0  0  0  0  0  0  0  0
    4.4468    1.7007    0.5066 N   0  0  0  0  0  0  0  0  0  0  0  0
    5.0321    1.9312    1.8130 C   0  0  0  0  0  0  0  0  0  0  0  0
    6.5297    1.7015    1.7819 C   0  0  0  0  0  0  0  0  0  0  0  0
    7.1950    2.5730    0.8704 N   0  0  0  0  0  0  0  0  0  0  0  0
    7.2132    3.9551    1.2358 C   0  0  0  0  0  0  0  0  0  0  0  0
    8.2967    4.6128    0.3712 C   0  0  0  0  0  0  0  0  0  0  0  0
    9.5598    4.1783    0.6935 O   0  0  0  0  0  0  0  0  0  0  0  0
    9.5402    2.9175    1.3041 C   0  0  0  0  0  0  0  0  0  0  0  0
    8.5103    2.0806    0.5772 C   0  0  0  0  0  0  0  0  0  0  0  0
   -0.8580   -0.0944    0.8524 C   0  0  2  0  0  0  0  0  0  0  0  0
   -0.9502   -1.0992    1.9416 C   0  0  0  0  0  0  0  0  0  0  0  0
   -1.3684   -2.4484    1.5751 C   0  0  0  0  0  0  0  0  0  0  0  0
   -1.7508   -3.0139    0.3975 C   0  0  0  0  0  0  0  0  0  0  0  0
   -2.0730   -4.3248    0.6154 N   0  0  0  0  0  0  0  0  0  0  0  0
   -1.8930   -4.5660    1.9063 C   0  0  0  0  0  0  0  0  0  0  0  0
   -1.4719   -3.4660    2.5101 N   0  0  0  0  0  0  0  0  0  0  0  0
   -2.1449    0.1781    0.2008 N   0  0  0  0  0  0  0  0  0  0  0  0
   -3.0034    1.1942    0.6049 C   0  0  0  0  0  0  0  0  0  0  0  0
   -2.6275    1.9041    1.6036 O   0  0  0  0  0  0  0  0  0  0  0  0
   -4.3157    1.5747    0.0312 C   0  0  2  0  0  0  0  0  0  0  0  0
   -5.3200    1.3288    1.1485 C   0  0  0  0  0  0  0  0  0  0  0  0
   -5.3736   -0.0585    1.6038 C   0  0  0  0  0  0  0  0  0  0  0  0
   -6.2146   -0.9635    0.9442 C   0  0  0  0  0  0  0  0  0  0  0  0
   -6.2610   -2.2638    1.3890 C   0  0  0  0  0  0  0  0  0  0  0  0
   -5.4915   -2.6810    2.4721 C   0  0  0  0  0  0  0  0  0  0  0  0
   -4.6696   -1.7844    3.1139 C   0  0  0  0  0  0  0  0  0  0  0  0
   -4.6112   -0.4516    2.6710 C   0  0  0  0  0  0  0  0  0  0  0  0
   -4.6854    0.9531   -1.1746 N   0  0  0  0  0  0  0  0  0  0  0  0
   -4.9788    1.9762   -2.5087 S   0  0  0  0  0  6  0  0  0  0  0  0
   -3.7173    2.7307   -2.9054 O   0  0  0  0  0  0  0  0  0  0  0  0
   -5.3011    1.0907   -3.7169 O   0  0  0  0  0  0  0  0  0  0  0  0
   -6.2432    3.0803   -2.3613 N   0  0  0  0  0  0  0  0  0  0  0  0
   -6.0607    4.0240   -1.3127 C   0  0  0  0  0  0  0  0  0  0  0  0
   -7.0247    5.2012   -1.5932 C   0  0  0  0  0  0  0  0  0  0  0  0
   -8.0828    4.7433   -2.3549 O   0  0  0  0  0  0  0  0  0  0  0  0
   -8.5318    3.5197   -1.8276 C   0  0  0  0  0  0  0  0  0  0  0  0
   -7.5368    2.4731   -2.2893 C   0  0  0  0  0  0  0  0  0  0  0  0
    1.7121   -0.5387    1.2630 H   0  0  0  0  0  0  0  0  0  0  0  0
    3.3799   -1.4310   -0.0701 H   0  0  0  0  0  0  0  0  0  0  0  0
    3.0277   -2.3477   -2.2895 H   0  0  0  0  0  0  0  0  0  0  0  0
    1.2855   -1.8336   -2.3167 H   0  0  0  0  0  0  0  0  0  0  0  0
    0.9268   -3.3807   -0.3070 H   0  0  0  0  0  0  0  0  0  0  0  0
    0.2755   -4.2470   -2.3880 H   0  0  0  0  0  0  0  0  0  0  0  0
    1.9233   -4.1574   -3.0692 H   0  0  0  0  0  0  0  0  0  0  0  0
    1.2334   -5.8978   -0.6403 H   0  0  0  0  0  0  0  0  0  0  0  0
    1.0863   -6.5321   -2.3202 H   0  0  0  0  0  0  0  0  0  0  0  0
    3.3380   -7.0015   -1.2404 H   0  0  0  0  0  0  0  0  0  0  0  0
    3.3666   -6.1482   -2.8011 H   0  0  0  0  0  0  0  0  0  0  0  0
    4.6671   -5.2324   -0.5714 H   0  0  0  0  0  0  0  0  0  0  0  0
    4.2103   -4.1977   -1.9488 H   0  0  0  0  0  0  0  0  0  0  0  0
    3.5210   -3.3316    0.2941 H   0  0  0  0  0  0  0  0  0  0  0  0
    2.4877   -4.7777    0.5047 H   0  0  0  0  0  0  0  0  0  0  0  0
    5.1125    1.4051   -0.2681 H   0  0  0  0  0  0  0  0  0  0  0  0
    4.5829    1.1952    2.5032 H   0  0  0  0  0  0  0  0  0  0  0  0
    4.7785    2.9406    2.2011 H   0  0  0  0  0  0  0  0  0  0  0  0
    6.6557    0.6627    1.3939 H   0  0  0  0  0  0  0  0  0  0  0  0
    6.9518    1.7200    2.8034 H   0  0  0  0  0  0  0  0  0  0  0  0
    7.5536    4.1182    2.2974 H   0  0  0  0  0  0  0  0  0  0  0  0
    6.2806    4.5139    1.0024 H   0  0  0  0  0  0  0  0  0  0  0  0
    8.0282    4.3977   -0.6783 H   0  0  0  0  0  0  0  0  0  0  0  0
    8.2027    5.7019    0.5081 H   0  0  0  0  0  0  0  0  0  0  0  0
    9.2832    3.0004    2.3820 H   0  0  0  0  0  0  0  0  0  0  0  0
   10.5738    2.5005    1.1709 H   0  0  0  0  0  0  0  0  0  0  0  0
    8.6238    1.0322    0.9041 H   0  0  0  0  0  0  0  0  0  0  0  0
    8.7140    2.1902   -0.5258 H   0  0  0  0  0  0  0  0  0  0  0  0
   -0.5368    0.8758    1.3828 H   0  0  0  0  0  0  0  0  0  0  0  0
   -1.7288   -0.7353    2.6989 H   0  0  0  0  0  0  0  0  0  0  0  0
    0.0494   -1.1005    2.4665 H   0  0  0  0  0  0  0  0  0  0  0  0
   -1.8223   -2.6017   -0.5943 H   0  0  0  0  0  0  0  0  0  0  0  0
   -2.0628   -5.5204    2.4122 H   0  0  0  0  0  0  0  0  0  0  0  0
   -1.2483   -3.3663    3.5371 H   0  0  0  0  0  0  0  0  0  0  0  0
   -2.4109   -0.4067   -0.6003 H   0  0  0  0  0  0  0  0  0  0  0  0
   -4.2600    2.6687   -0.1086 H   0  0  0  0  0  0  0  0  0  0  0  0
   -5.0877    1.9920    1.9983 H   0  0  0  0  0  0  0  0  0  0  0  0
   -6.3359    1.5893    0.7891 H   0  0  0  0  0  0  0  0  0  0  0  0
   -6.7774   -0.5742    0.1198 H   0  0  0  0  0  0  0  0  0  0  0  0
   -6.9212   -2.9601    0.8677 H   0  0  0  0  0  0  0  0  0  0  0  0
   -5.5786   -3.7351    2.7721 H   0  0  0  0  0  0  0  0  0  0  0  0
   -4.0729   -2.0985    3.9523 H   0  0  0  0  0  0  0  0  0  0  0  0
   -3.9407    0.1894    3.2389 H   0  0  0  0  0  0  0  0  0  0  0  0
   -4.1115    0.1626   -1.4407 H   0  0  0  0  0  0  0  0  0  0  0  0
   -5.0505    4.5061   -1.3346 H   0  0  0  0  0  0  0  0  0  0  0  0
   -6.3624    3.6711   -0.3058 H   0  0  0  0  0  0  0  0  0  0  0  0
   -6.4987    6.0479   -2.0634 H   0  0  0  0  0  0  0  0  0  0  0  0
   -7.4659    5.5883   -0.6497 H   0  0  0  0  0  0  0  0  0  0  0  0
   -9.5433    3.2634   -2.1324 H   0  0  0  0  0  0  0  0  0  0  0  0
   -8.4709    3.5275   -0.6976 H   0  0  0  0  0  0  0  0  0  0  0  0
   -7.8413    1.9467   -3.2097 H   0  0  0  0  0  0  0  0  0  0  0  0
   -7.5117    1.6752   -1.4992 H   0  0  0  0  0  0  0  0  0  0  0  0
  1  2  2  0
  2  3  1  0
  3  4  1  0
  4  5  1  0
  5  6  1  0
  6  7  1  0
  7  8  1  0
  8  9  1  0
  9 10  1  0
 10 11  1  0
  4 12  1  0
 12 13  2  0
 12 14  1  0
 14 15  1  0
 14 16  1  0
 14 17  1  0
 17 18  2  0
 17 19  1  0
 19 20  1  0
 20 21  1  0
 21 22  1  0
 22 23  1  0
 23 24  1  0
 24 25  1  0
 25 26  1  0
 26 27  1  0
  2 28  1  0
 28 29  1  0
 29 30  1  0
 30 31  2  0
 31 32  1  0
 32 33  2  0
 33 34  1  0
 28 35  1  0
 35 36  1  0
 36 37  2  0
 36 38  1  0
 38 39  1  0
 39 40  1  0
 40 41  2  0
 41 42  1  0
 42 43  2  0
 43 44  1  0
 44 45  2  0
 38 46  1  0
 46 47  1  0
 47 48  2  0
 47 49  2  0
 47 50  1  0
 50 51  1  0
 51 52  1  0
 52 53  1  0
 53 54  1  0
 54 55  1  0
 11  6  1  0
 27 22  1  0
 34 30  1  0
 45 40  1  0
 55 50  1  0
  3 56  1  0
  4 57  1  1
  5 58  1  0
  5 59  1  0
  6 60  1  0
  7 61  1  0
  7 62  1  0
  8 63  1  0
  8 64  1  0
  9 65  1  0
  9 66  1  0
 10 67  1  0
 10 68  1  0
 11 69  1  0
 11 70  1  0
 19 71  1  0
 20 72  1  0
 20 73  1  0
 21 74  1  0
 21 75  1  0
 23 76  1  0
 23 77  1  0
 24 78  1  0
 24 79  1  0
 26 80  1  0
 26 81  1  0
 27 82  1  0
 27 83  1  0
 28 84  1  1
 29 85  1  0
 29 86  1  0
 31 87  1  0
 33 88  1  0
 34 89  1  0
 35 90  1  0
 38 91  1  6
 39 92  1  0
 39 93  1  0
 41 94  1  0
 42 95  1  0
 43 96  1  0
 44 97  1  0
 45 98  1  0
 46 99  1  0
 51100  1  0
 51101  1  0
 52102  1  0
 52103  1  0
 54104  1  0
 54105  1  0
 55106  1  0
 55107  1  0
M  END
$$$$
