@<TRIPOS>MOLECULE
*****
 107 111 0 0 0
SMALL
GASTEIGER

@<TRIPOS>ATOM
      1 O          -0.2522   -0.6089   -1.3344 O.2     1  UNL1       -0.2738
      2 C           0.1486   -0.4788   -0.1585 C.2     1  UNL1        0.2343
      3 N           1.5127   -0.6762    0.2238 N.am    1  UNL1       -0.3039
      4 C           2.5141   -1.0249   -0.7169 C.3     1  UNL1        0.0882
      5 C           2.1076   -2.1112   -1.6461 C.3     1  UNL1       -0.0245
      6 C           1.7722   -3.4292   -1.0014 C.3     1  UNL1       -0.0390
      7 C           1.3602   -4.3523   -2.1516 C.3     1  UNL1       -0.0501
      8 C           1.5880   -5.7736   -1.6904 C.3     1  UNL1       -0.0528
      9 C           3.0681   -6.0488   -1.7330 C.3     1  UNL1       -0.0530
     10 C           3.8179   -4.8601   -1.1699 C.3     1  UNL1       -0.0528
     11 C           2.9241   -4.0524   -0.2433 C.3     1  UNL1       -0.0501
     12 C           3.0032    0.1709   -1.4428 C.2     1  UNL1        0.2306
     13 O           3.8071   -0.0295   -2.3762 O.2     1  UNL1       -0.2885
     14 C           2.6420    1.5616   -1.1726 C.3     1  UNL1        0.3810
     15 F           1.3378    1.9000   -1.2840 F       1  UNL1       -0.1865
     16 F           3.3542    2.4313   -2.0116 F       1  UNL1       -0.1865
     17 C           3.0610    1.8512    0.2493 C.2     1  UNL1        0.2904
     18 O           2.2791    2.1950    1.1458 O.2     1  UNL1       -0.2688
     19 N           4.4468    1.7007    0.5066 N.am    1  UNL1       -0.3088
     20 C           5.0321    1.9312    1.8130 C.3     1  UNL1        0.0245
     21 C           6.5297    1.7015    1.7819 C.3     1  UNL1        0.0146
     22 N           7.1950    2.5730    0.8704 N.3     1  UNL1       -0.2965
     23 C           7.2132    3.9551    1.2358 C.3     1  UNL1        0.0225
     24 C           8.2967    4.6128    0.3712 C.3     1  UNL1        0.0604
     25 O           9.5598    4.1783    0.6935 O.3     1  UNL1       -0.3772
     26 C           9.5402    2.9175    1.3041 C.3     1  UNL1        0.0604
     27 C           8.5103    2.0806    0.5772 C.3     1  UNL1        0.0225
     28 C          -0.8580   -0.0944    0.8524 C.3     1  UNL1        0.1047
     29 C          -0.9502   -1.0992    1.9416 C.3     1  UNL1        0.0160
     30 C          -1.3684   -2.4484    1.5751 C.ar    1  UNL1        0.0375
     31 C          -1.7508   -3.0139    0.3975 C.ar    1  UNL1        0.0485
     32 N          -2.0730   -4.3248    0.6154 N.ar    1  UNL1       -0.2440
     33 C          -1.8930   -4.5660    1.9063 C.ar    1  UNL1        0.0935
     34 N          -1.4719   -3.4660    2.5101 N.ar    1  UNL1       -0.3481
     35 N          -2.1449    0.1781    0.2008 N.am    1  UNL1       -0.3023
     36 C          -3.0034    1.1942    0.6049 C.2     1  UNL1        0.2326
     37 O          -2.6275    1.9041    1.6036 O.2     1  UNL1       -0.2740
     38 C          -4.3157    1.5747    0.0312 C.3     1  UNL1        0.1097
     39 C          -5.3200    1.3288    1.1485 C.3     1  UNL1       -0.0021
     40 C          -5.3736   -0.0585    1.6038 C.ar    1  UNL1       -0.0454
     41 C          -6.2146   -0.9635    0.9442 C.ar    1  UNL1       -0.0585
     42 C          -6.2610   -2.2638    1.3890 C.ar    1  UNL1       -0.0615
     43 C          -5.4915   -2.6810    2.4721 C.ar    1  UNL1       -0.0617
     44 C          -4.6696   -1.7844    3.1139 C.ar    1  UNL1       -0.0615
     45 C          -4.6112   -0.4516    2.6710 C.ar    1  UNL1       -0.0585
     46 N          -4.6854    0.9531   -1.1746 N.3     1  UNL1       -0.1675
     47 S          -4.9788    1.9762   -2.5087 S.O2    1  UNL1        0.0978
     48 O          -3.7173    2.7307   -2.9054 O.2     1  UNL1       -0.1411
     49 O          -5.3011    1.0907   -3.7169 O.2     1  UNL1       -0.1411
     50 N          -6.2432    3.0803   -2.3613 N.3     1  UNL1       -0.1622
     51 C          -6.0607    4.0240   -1.3127 C.3     1  UNL1        0.0450
     52 C          -7.0247    5.2012   -1.5932 C.3     1  UNL1        0.0621
     53 O          -8.0828    4.7433   -2.3549 O.3     1  UNL1       -0.3771
     54 C          -8.5318    3.5197   -1.8276 C.3     1  UNL1        0.0621
     55 C          -7.5368    2.4731   -2.2893 C.3     1  UNL1        0.0450
     56 H           1.7121   -0.5387    1.2630 H       1  UNL1        0.1494
     57 H           3.3799   -1.4310   -0.0701 H       1  UNL1        0.0579
     58 H           3.0277   -2.3477   -2.2895 H       1  UNL1        0.0290
     59 H           1.2855   -1.8336   -2.3167 H       1  UNL1        0.0290
     60 H           0.9268   -3.3807   -0.3070 H       1  UNL1        0.0301
     61 H           0.2755   -4.2470   -2.3880 H       1  UNL1        0.0268
     62 H           1.9233   -4.1574   -3.0692 H       1  UNL1        0.0268
     63 H           1.2334   -5.8978   -0.6403 H       1  UNL1        0.0265
     64 H           1.0863   -6.5321   -2.3202 H       1  UNL1        0.0265
     65 H           3.3380   -7.0015   -1.2404 H       1  UNL1        0.0265
     66 H           3.3666   -6.1482   -2.8011 H       1  UNL1        0.0265
     67 H           4.6671   -5.2324   -0.5714 H       1  UNL1        0.0265
     68 H           4.2103   -4.1977   -1.9488 H       1  UNL1        0.0265
     69 H           3.5210   -3.3316    0.2941 H       1  UNL1        0.0268
     70 H           2.4877   -4.7777    0.5047 H       1  UNL1        0.0268
     71 H           5.1125    1.4051   -0.2681 H       1  UNL1        0.1489
     72 H           4.5829    1.1952    2.5032 H       1  UNL1        0.0474
     73 H           4.7785    2.9406    2.2011 H       1  UNL1        0.0474
     74 H           6.6557    0.6627    1.3939 H       1  UNL1        0.0442
     75 H           6.9518    1.7200    2.8034 H       1  UNL1        0.0442
     76 H           7.5536    4.1182    2.2974 H       1  UNL1        0.0449
     77 H           6.2806    4.5139    1.0024 H       1  UNL1        0.0449
     78 H           8.0282    4.3977   -0.6783 H       1  UNL1        0.0572
     79 H           8.2027    5.7019    0.5081 H       1  UNL1        0.0572
     80 H           9.2832    3.0004    2.3820 H       1  UNL1        0.0572
     81 H          10.5738    2.5005    1.1709 H       1  UNL1        0.0572
     82 H           8.6238    1.0322    0.9041 H       1  UNL1        0.0449
     83 H           8.7140    2.1902   -0.5258 H       1  UNL1        0.0449
     84 H          -0.5368    0.8758    1.3828 H       1  UNL1        0.0598
     85 H          -1.7288   -0.7353    2.6989 H       1  UNL1        0.0351
     86 H           0.0494   -1.1005    2.4665 H       1  UNL1        0.0351
     87 H          -1.8223   -2.6017   -0.5943 H       1  UNL1        0.0848
     88 H          -2.0628   -5.5204    2.4122 H       1  UNL1        0.1027
     89 H          -1.2483   -3.3663    3.5371 H       1  UNL1        0.1665
     90 H          -2.4109   -0.4067   -0.6003 H       1  UNL1        0.1495
     91 H          -4.2600    2.6687   -0.1086 H       1  UNL1        0.0576
     92 H          -5.0877    1.9920    1.9983 H       1  UNL1        0.0334
     93 H          -6.3359    1.5893    0.7891 H       1  UNL1        0.0334
     94 H          -6.7774   -0.5742    0.1198 H       1  UNL1        0.0620
     95 H          -6.9212   -2.9601    0.8677 H       1  UNL1        0.0618
     96 H          -5.5786   -3.7351    2.7721 H       1  UNL1        0.0618
     97 H          -4.0729   -2.0985    3.9523 H       1  UNL1        0.0618
     98 H          -3.9407    0.1894    3.2389 H       1  UNL1        0.0620
     99 H          -4.1115    0.1626   -1.4407 H       1  UNL1        0.1500
    100 H          -5.0505    4.5061   -1.3346 H       1  UNL1        0.0467
    101 H          -6.3624    3.6711   -0.3058 H       1  UNL1        0.0467
    102 H          -6.4987    6.0479   -2.0634 H       1  UNL1        0.0573
    103 H          -7.4659    5.5883   -0.6497 H       1  UNL1        0.0573
    104 H          -9.5433    3.2634   -2.1324 H       1  UNL1        0.0573
    105 H          -8.4709    3.5275   -0.6976 H       1  UNL1        0.0573
    106 H          -7.8413    1.9467   -3.2097 H       1  UNL1        0.0467
    107 H          -7.5117    1.6752   -1.4992 H       1  UNL1        0.0467
@<TRIPOS>BOND
     1     1     2    2
     2     2     3   am
     3     3     4    1
     4     4     5    1
     5     5     6    1
     6     6     7    1
     7     7     8    1
     8     8     9    1
     9     9    10    1
    10    10    11    1
    11     4    12    1
    12    12    13    2
    13    12    14    1
    14    14    15    1
    15    14    16    1
    16    14    17    1
    17    17    18    2
    18    17    19   am
    19    19    20    1
    20    20    21    1
    21    21    22    1
    22    22    23    1
    23    23    24    1
    24    24    25    1
    25    25    26    1
    26    26    27    1
    27     2    28    1
    28    28    29    1
    29    29    30    1
    30    30    31   ar
    31    31    32   ar
    32    32    33   ar
    33    33    34   ar
    34    28    35    1
    35    35    36   am
    36    36    37    2
    37    36    38    1
    38    38    39    1
    39    39    40    1
    40    40    41   ar
    41    41    42   ar
    42    42    43   ar
    43    43    44   ar
    44    44    45   ar
    45    38    46    1
    46    46    47    1
    47    47    48    2
    48    47    49    2
    49    47    50    1
    50    50    51    1
    51    51    52    1
    52    52    53    1
    53    53    54    1
    54    54    55    1
    55    11     6    1
    56    27    22    1
    57    34    30   ar
    58    45    40   ar
    59    55    50    1
    60     3    56    1
    61     4    57    1
    62     5    58    1
    63     5    59    1
    64     6    60    1
    65     7    61    1
    66     7    62    1
    67     8    63    1
    68     8    64    1
    69     9    65    1
    70     9    66    1
    71    10    67    1
    72    10    68    1
    73    11    69    1
    74    11    70    1
    75    19    71    1
    76    20    72    1
    77    20    73    1
    78    21    74    1
    79    21    75    1
    80    23    76    1
    81    23    77    1
    82    24    78    1
    83    24    79    1
    84    26    80    1
    85    26    81    1
    86    27    82    1
    87    27    83    1
    88    28    84    1
    89    29    85    1
    90    29    86    1
    91    31    87    1
    92    33    88    1
    93    34    89    1
    94    35    90    1
    95    38    91    1
    96    39    92    1
    97    39    93    1
    98    41    94    1
    99    42    95    1
   100    43    96    1
   101    44    97    1
   102    45    98    1
   103    46    99    1
   104    51   100    1
   105    51   101    1
   106    52   102    1
   107    52   103    1
   108    54   104    1
   109    54   105    1
   110    55   106    1
   111    55   107    1
