
     RDKit          3D

 54 59  0  0  0  0  0  0  0  0999 V2000
    6.9242   -0.7210    0.1168 C   0  0  0  0  0  0  0  0  0  0  0  0
    6.1242   -1.0358    1.2088 C   0  0  0  0  0  0  0  0  0  0  0  0
    4.7667   -0.8319    1.1581 C   0  0  0  0  0  0  0  0  0  0  0  0
    4.1887   -0.3119    0.0191 C   0  0  0  0  0  0  0  0  0  0  0  0
    2.7310   -0.0911   -0.0470 C   0  0  0  0  0  0  0  0  0  0  0  0
    2.0249    0.2402    1.0779 C   0  0  0  0  0  0  0  0  0  0  0  0
    0.6492    0.4524    1.0627 C   0  0  0  0  0  0  0  0  0  0  0  0
   -0.0530    0.3305   -0.1154 C   0  0  0  0  0  0  0  0  0  0  0  0
   -1.5195    0.5611   -0.1274 C   0  0  0  0  0  0  0  0  0  0  0  0
   -1.7978    2.0154   -0.4326 C   0  0  0  0  0  0  0  0  0  0  0  0
   -1.2125    2.9466    0.5343 C   0  0  0  0  0  0  0  0  0  0  0  0
   -1.7885    3.4028    1.6431 N   0  0  0  0  0  0  0  0  0  0  0  0
   -0.9554    4.2104    2.2386 N   0  0  0  0  0  0  0  0  0  0  0  0
    0.1506    4.2899    1.5413 N   0  0  0  0  0  0  0  0  0  0  0  0
    0.0028    3.5117    0.4841 N   0  0  0  0  0  0  0  0  0  0  0  0
   -2.1062   -0.2896   -1.2439 C   0  0  0  0  0  0  0  0  0  0  0  0
   -3.6380   -0.2107   -1.2710 C   0  0  0  0  0  0  0  0  0  0  0  0
   -4.1883   -0.6923    0.0269 C   0  0  0  0  0  0  0  0  0  0  0  0
   -3.7984   -2.1571    0.2628 C   0  0  0  0  0  0  0  0  0  0  0  0
   -2.2909   -2.2175    0.2754 C   0  0  0  0  0  0  0  0  0  0  0  0
   -1.7909   -1.7566   -1.0692 C   0  0  0  0  0  0  0  0  0  0  0  0
   -1.7175   -1.3469    1.3931 C   0  0  0  0  0  0  0  0  0  0  0  0
   -2.0978    0.0961    1.1552 C   0  0  0  0  0  0  0  0  0  0  0  0
   -3.6178    0.1078    1.1680 C   0  0  0  0  0  0  0  0  0  0  0  0
    0.6767   -0.0042   -1.2424 C   0  0  0  0  0  0  0  0  0  0  0  0
    2.0482   -0.2140   -1.2186 C   0  0  0  0  0  0  0  0  0  0  0  0
    4.9666    0.0068   -1.0754 C   0  0  0  0  0  0  0  0  0  0  0  0
    6.3318   -0.2012   -1.0166 C   0  0  0  0  0  0  0  0  0  0  0  0
    7.9922   -0.8756    0.1414 H   0  0  0  0  0  0  0  0  0  0  0  0
    6.5934   -1.4495    2.1116 H   0  0  0  0  0  0  0  0  0  0  0  0
    4.1797   -1.0851    2.0183 H   0  0  0  0  0  0  0  0  0  0  0  0
    2.5691    0.3362    1.9983 H   0  0  0  0  0  0  0  0  0  0  0  0
    0.2069    0.7086    2.0120 H   0  0  0  0  0  0  0  0  0  0  0  0
   -2.9211    2.1326   -0.4982 H   0  0  0  0  0  0  0  0  0  0  0  0
   -1.4384    2.2105   -1.4640 H   0  0  0  0  0  0  0  0  0  0  0  0
    0.7553    3.3974   -0.2425 H   0  0  0  0  0  0  0  0  0  0  0  0
   -1.8090    0.0748   -2.2530 H   0  0  0  0  0  0  0  0  0  0  0  0
   -4.0155    0.7831   -1.4951 H   0  0  0  0  0  0  0  0  0  0  0  0
   -3.9302   -0.9254   -2.0782 H   0  0  0  0  0  0  0  0  0  0  0  0
   -5.2797   -0.6028    0.0364 H   0  0  0  0  0  0  0  0  0  0  0  0
   -4.1278   -2.7002   -0.6532 H   0  0  0  0  0  0  0  0  0  0  0  0
   -4.2625   -2.5010    1.1838 H   0  0  0  0  0  0  0  0  0  0  0  0
   -1.9765   -3.2588    0.4915 H   0  0  0  0  0  0  0  0  0  0  0  0
   -2.3768   -2.2965   -1.8405 H   0  0  0  0  0  0  0  0  0  0  0  0
   -0.7452   -2.0282   -1.1727 H   0  0  0  0  0  0  0  0  0  0  0  0
   -2.2015   -1.7197    2.3215 H   0  0  0  0  0  0  0  0  0  0  0  0
   -0.6542   -1.5554    1.4267 H   0  0  0  0  0  0  0  0  0  0  0  0
   -1.8015    0.6908    2.0446 H   0  0  0  0  0  0  0  0  0  0  0  0
   -4.0424    1.1168    1.2480 H   0  0  0  0  0  0  0  0  0  0  0  0
   -3.9111   -0.4341    2.1024 H   0  0  0  0  0  0  0  0  0  0  0  0
    0.1991   -0.1084   -2.1891 H   0  0  0  0  0  0  0  0  0  0  0  0
    2.5649   -0.4722   -2.1273 H   0  0  0  0  0  0  0  0  0  0  0  0
    4.4970    0.4188   -1.9740 H   0  0  0  0  0  0  0  0  0  0  0  0
    6.9226    0.0534   -1.8807 H   0  0  0  0  0  0  0  0  0  0  0  0
  1  2  2  0
  2  3  1  0
  3  4  2  0
  4  5  1  0
  5  6  2  0
  6  7  1  0
  7  8  2  0
  8  9  1  0
  9 10  1  0
 10 11  1  0
 11 12  2  0
 12 13  1  0
 13 14  2  0
 14 15  1  0
  9 16  1  0
 16 17  1  0
 17 18  1  0
 18 19  1  0
 19 20  1  0
 20 21  1  0
 20 22  1  0
 22 23  1  0
 23 24  1  0
  8 25  1  0
 25 26  2  0
  4 27  1  0
 27 28  2  0
 28  1  1  0
 26  5  1  0
 23  9  1  0
 15 11  1  0
 21 16  1  0
 24 18  1  0
  1 29  1  0
  2 30  1  0
  3 31  1  0
  6 32  1  0
  7 33  1  0
 10 34  1  0
 10 35  1  0
 15 36  1  0
 16 37  1  0
 17 38  1  0
 17 39  1  0
 18 40  1  0
 19 41  1  0
 19 42  1  0
 20 43  1  0
 21 44  1  0
 21 45  1  0
 22 46  1  0
 22 47  1  0
 23 48  1  0
 24 49  1  0
 24 50  1  0
 25 51  1  0
 26 52  1  0
 27 53  1  0
 28 54  1  0
M  END
$$$$
