@<TRIPOS>MOLECULE
*****
 54 59 0 0 0
SMALL
GASTEIGER

@<TRIPOS>ATOM
      1 C           6.9242   -0.7210    0.1168 C.ar    1  UNL1       -0.0617
      2 C           6.1242   -1.0358    1.2088 C.ar    1  UNL1       -0.0612
      3 C           4.7667   -0.8319    1.1581 C.ar    1  UNL1       -0.0540
      4 C           4.1887   -0.3119    0.0191 C.ar    1  UNL1       -0.0179
      5 C           2.7310   -0.0911   -0.0470 C.ar    1  UNL1       -0.0179
      6 C           2.0249    0.2402    1.0779 C.ar    1  UNL1       -0.0538
      7 C           0.6492    0.4524    1.0627 C.ar    1  UNL1       -0.0574
      8 C          -0.0530    0.3305   -0.1154 C.ar    1  UNL1       -0.0402
      9 C          -1.5195    0.5611   -0.1274 C.3     1  UNL1        0.0083
     10 C          -1.7978    2.0154   -0.4326 C.3     1  UNL1        0.0188
     11 C          -1.2125    2.9466    0.5343 C.ar    1  UNL1        0.1494
     12 N          -1.7885    3.4028    1.6431 N.ar    1  UNL1       -0.1136
     13 N          -0.9554    4.2104    2.2386 N.ar    1  UNL1       -0.0232
     14 N           0.1506    4.2899    1.5413 N.ar    1  UNL1       -0.0466
     15 N           0.0028    3.5117    0.4841 N.ar    1  UNL1       -0.2427
     16 C          -2.1062   -0.2896   -1.2439 C.3     1  UNL1       -0.0302
     17 C          -3.6380   -0.2107   -1.2710 C.3     1  UNL1       -0.0465
     18 C          -4.1883   -0.6923    0.0269 C.3     1  UNL1       -0.0402
     19 C          -3.7984   -2.1571    0.2628 C.3     1  UNL1       -0.0473
     20 C          -2.2909   -2.2175    0.2754 C.3     1  UNL1       -0.0402
     21 C          -1.7909   -1.7566   -1.0692 C.3     1  UNL1       -0.0465
     22 C          -1.7175   -1.3469    1.3931 C.3     1  UNL1       -0.0465
     23 C          -2.0978    0.0961    1.1552 C.3     1  UNL1       -0.0302
     24 C          -3.6178    0.1078    1.1680 C.3     1  UNL1       -0.0465
     25 C           0.6767   -0.0042   -1.2424 C.ar    1  UNL1       -0.0574
     26 C           2.0482   -0.2140   -1.2186 C.ar    1  UNL1       -0.0538
     27 C           4.9666    0.0068   -1.0754 C.ar    1  UNL1       -0.0540
     28 C           6.3318   -0.2012   -1.0166 C.ar    1  UNL1       -0.0612
     29 H           7.9922   -0.8756    0.1414 H       1  UNL1        0.0618
     30 H           6.5934   -1.4495    2.1116 H       1  UNL1        0.0618
     31 H           4.1797   -1.0851    2.0183 H       1  UNL1        0.0624
     32 H           2.5691    0.3362    1.9983 H       1  UNL1        0.0624
     33 H           0.2069    0.7086    2.0120 H       1  UNL1        0.0621
     34 H          -2.9211    2.1326   -0.4982 H       1  UNL1        0.0353
     35 H          -1.4384    2.2105   -1.4640 H       1  UNL1        0.0353
     36 H           0.7553    3.3974   -0.2425 H       1  UNL1        0.1920
     37 H          -1.8090    0.0748   -2.2530 H       1  UNL1        0.0310
     38 H          -4.0155    0.7831   -1.4951 H       1  UNL1        0.0271
     39 H          -3.9302   -0.9254   -2.0782 H       1  UNL1        0.0271
     40 H          -5.2797   -0.6028    0.0364 H       1  UNL1        0.0301
     41 H          -4.1278   -2.7002   -0.6532 H       1  UNL1        0.0271
     42 H          -4.2625   -2.5010    1.1838 H       1  UNL1        0.0271
     43 H          -1.9765   -3.2588    0.4915 H       1  UNL1        0.0301
     44 H          -2.3768   -2.2965   -1.8405 H       1  UNL1        0.0271
     45 H          -0.7452   -2.0282   -1.1727 H       1  UNL1        0.0271
     46 H          -2.2015   -1.7197    2.3215 H       1  UNL1        0.0271
     47 H          -0.6542   -1.5554    1.4267 H       1  UNL1        0.0271
     48 H          -1.8015    0.6908    2.0446 H       1  UNL1        0.0310
     49 H          -4.0424    1.1168    1.2480 H       1  UNL1        0.0271
     50 H          -3.9111   -0.4341    2.1024 H       1  UNL1        0.0271
     51 H           0.1991   -0.1084   -2.1891 H       1  UNL1        0.0621
     52 H           2.5649   -0.4722   -2.1273 H       1  UNL1        0.0624
     53 H           4.4970    0.4188   -1.9740 H       1  UNL1        0.0624
     54 H           6.9226    0.0534   -1.8807 H       1  UNL1        0.0618
@<TRIPOS>BOND
     1     1     2   ar
     2     2     3   ar
     3     3     4   ar
     4     4     5    1
     5     5     6   ar
     6     6     7   ar
     7     7     8   ar
     8     8     9    1
     9     9    10    1
    10    10    11    1
    11    11    12   ar
    12    12    13   ar
    13    13    14   ar
    14    14    15   ar
    15     9    16    1
    16    16    17    1
    17    17    18    1
    18    18    19    1
    19    19    20    1
    20    20    21    1
    21    20    22    1
    22    22    23    1
    23    23    24    1
    24     8    25   ar
    25    25    26   ar
    26     4    27   ar
    27    27    28   ar
    28    28     1   ar
    29    26     5   ar
    30    23     9    1
    31    15    11   ar
    32    21    16    1
    33    24    18    1
    34     1    29    1
    35     2    30    1
    36     3    31    1
    37     6    32    1
    38     7    33    1
    39    10    34    1
    40    10    35    1
    41    15    36    1
    42    16    37    1
    43    17    38    1
    44    17    39    1
    45    18    40    1
    46    19    41    1
    47    19    42    1
    48    20    43    1
    49    21    44    1
    50    21    45    1
    51    22    46    1
    52    22    47    1
    53    23    48    1
    54    24    49    1
    55    24    50    1
    56    25    51    1
    57    26    52    1
    58    27    53    1
    59    28    54    1
