@<TRIPOS>MOLECULE
*****
 76 79 0 0 0
SMALL
GASTEIGER

@<TRIPOS>ATOM
      1 C          -7.5790   -6.3416   -0.3858 C.3     1  UNL1       -0.0653
      2 C          -7.4628   -5.2475   -1.4259 C.3     1  UNL1       -0.0559
      3 C          -6.9952   -3.9879   -0.7044 C.3     1  UNL1       -0.0519
      4 C          -5.6734   -4.2412   -0.0663 C.3     1  UNL1       -0.0374
      5 C          -5.1875   -3.0267    0.6639 C.3     1  UNL1        0.0118
      6 N          -5.0528   -1.9296   -0.2580 N.pl3   1  UNL1       -0.3134
      7 C          -3.8043   -1.1934   -0.1873 C.ar    1  UNL1        0.2169
      8 N          -2.6507   -1.8878   -0.1109 N.ar    1  UNL1       -0.2221
      9 C          -1.4733   -1.2886   -0.0317 C.ar    1  UNL1        0.0466
     10 C          -1.3874    0.1174   -0.0238 C.ar    1  UNL1        0.0948
     11 C          -0.0226    0.6287    0.1335 C.2     1  UNL1        0.2530
     12 O           0.2677    1.6512    0.7128 O.2     1  UNL1       -0.2697
     13 N           1.0634   -0.1099   -0.4420 N.am    1  UNL1       -0.2814
     14 C           2.4132    0.2032   -0.4113 C.ar    1  UNL1        0.0338
     15 C           3.2603   -0.6075   -1.1847 C.ar    1  UNL1       -0.0386
     16 C           4.6289   -0.4138   -1.2266 C.ar    1  UNL1       -0.0336
     17 C           5.2016    0.5949   -0.4979 C.ar    1  UNL1        0.1056
     18 S           6.9336    0.7924   -0.5987 S.O2    1  UNL1        0.0610
     19 O           7.3491    0.4079   -1.9846 O.2     1  UNL1       -0.1528
     20 O           7.2296    2.2235   -0.2772 O.2     1  UNL1       -0.1528
     21 N           7.7252   -0.2693    0.5268 N.3     1  UNL1       -0.1722
     22 C           7.4567   -1.6362    0.2515 C.3     1  UNL1        0.0440
     23 C           8.5046   -2.6068    0.6593 C.3     1  UNL1        0.0621
     24 O           9.7847   -2.0898    0.7196 O.3     1  UNL1       -0.3771
     25 C           9.9369   -0.9327   -0.0281 C.3     1  UNL1        0.0621
     26 C           9.0815    0.1202    0.6443 C.3     1  UNL1        0.0440
     27 C           4.4006    1.4033    0.2675 C.ar    1  UNL1       -0.0336
     28 C           3.0029    1.2065    0.3098 C.ar    1  UNL1       -0.0386
     29 C          -2.5168    0.8445   -0.0992 C.ar    1  UNL1        0.1363
     30 N          -2.6466    2.2335   -0.1218 N.pl3   1  UNL1       -0.3255
     31 C          -1.8390    3.3562    0.0337 C.3     1  UNL1        0.0221
     32 C          -2.5393    4.5579   -0.7053 C.3     1  UNL1       -0.0322
     33 C          -3.6709    5.1123    0.1076 C.3     1  UNL1       -0.0252
     34 C          -3.1183    5.8328    1.3478 C.3     1  UNL1        0.0554
     35 O          -3.0676    7.1887    1.1440 O.3     1  UNL1       -0.3918
     36 C          -1.7102    5.2640    1.6019 C.3     1  UNL1       -0.0252
     37 C          -1.8767    3.7700    1.5160 C.3     1  UNL1       -0.0322
     38 N          -3.7135    0.1134   -0.1799 N.ar    1  UNL1       -0.1990
     39 H          -6.6287   -6.9342   -0.4131 H       1  UNL1        0.0230
     40 H          -7.6819   -5.9368    0.6512 H       1  UNL1        0.0230
     41 H          -8.3893   -7.0295   -0.6356 H       1  UNL1        0.0230
     42 H          -8.4575   -5.0588   -1.8530 H       1  UNL1        0.0263
     43 H          -6.7095   -5.4683   -2.2063 H       1  UNL1        0.0263
     44 H          -7.7865   -3.7271    0.0259 H       1  UNL1        0.0266
     45 H          -6.9297   -3.1728   -1.4341 H       1  UNL1        0.0266
     46 H          -5.6756   -5.1230    0.6122 H       1  UNL1        0.0280
     47 H          -4.9089   -4.4422   -0.8722 H       1  UNL1        0.0280
     48 H          -5.9471   -2.7593    1.4425 H       1  UNL1        0.0462
     49 H          -4.2045   -3.2242    1.1721 H       1  UNL1        0.0462
     50 H          -5.7291   -1.6120   -0.9480 H       1  UNL1        0.1489
     51 H          -0.5992   -1.8859    0.0427 H       1  UNL1        0.0839
     52 H           0.7517   -0.9911   -0.9555 H       1  UNL1        0.1551
     53 H           2.8384   -1.4116   -1.7711 H       1  UNL1        0.0637
     54 H           5.2318   -1.0891   -1.8540 H       1  UNL1        0.0638
     55 H           6.4619   -1.8941    0.6843 H       1  UNL1        0.0466
     56 H           7.3232   -1.7428   -0.8575 H       1  UNL1        0.0466
     57 H           8.2575   -3.0004    1.6688 H       1  UNL1        0.0573
     58 H           8.5349   -3.4921   -0.0129 H       1  UNL1        0.0573
     59 H          11.0005   -0.6174    0.1262 H       1  UNL1        0.0573
     60 H           9.6981   -1.0765   -1.0910 H       1  UNL1        0.0573
     61 H           9.4360    0.1403    1.7163 H       1  UNL1        0.0466
     62 H           9.2319    1.1220    0.1906 H       1  UNL1        0.0466
     63 H           4.8137    2.2100    0.8624 H       1  UNL1        0.0638
     64 H           2.4198    1.8577    0.9250 H       1  UNL1        0.0637
     65 H          -3.7161    2.5126   -0.3355 H       1  UNL1        0.1478
     66 H          -0.8388    3.4259   -0.3338 H       1  UNL1        0.0498
     67 H          -2.9607    4.1551   -1.6533 H       1  UNL1        0.0284
     68 H          -1.8044    5.3234   -0.9746 H       1  UNL1        0.0284
     69 H          -4.1450    5.9162   -0.5318 H       1  UNL1        0.0291
     70 H          -4.3897    4.3352    0.3698 H       1  UNL1        0.0291
     71 H          -3.7213    5.5180    2.2208 H       1  UNL1        0.0593
     72 H          -2.6227    7.4032    0.2941 H       1  UNL1        0.2098
     73 H          -1.3407    5.5866    2.5987 H       1  UNL1        0.0291
     74 H          -1.0363    5.6143    0.8154 H       1  UNL1        0.0291
     75 H          -1.1200    3.2387    2.0922 H       1  UNL1        0.0284
     76 H          -2.9087    3.5180    1.8845 H       1  UNL1        0.0284
@<TRIPOS>BOND
     1     1     2    1
     2     2     3    1
     3     3     4    1
     4     4     5    1
     5     5     6    1
     6     6     7    1
     7     7     8   ar
     8     8     9   ar
     9     9    10   ar
    10    10    11    1
    11    11    12    2
    12    11    13   am
    13    13    14    1
    14    14    15   ar
    15    15    16   ar
    16    16    17   ar
    17    17    18    1
    18    18    19    2
    19    18    20    2
    20    18    21    1
    21    21    22    1
    22    22    23    1
    23    23    24    1
    24    24    25    1
    25    25    26    1
    26    17    27   ar
    27    27    28   ar
    28    10    29   ar
    29    29    30    1
    30    30    31    1
    31    31    32    1
    32    32    33    1
    33    33    34    1
    34    34    35    1
    35    34    36    1
    36    36    37    1
    37    29    38   ar
    38    38     7   ar
    39    28    14   ar
    40    37    31    1
    41    26    21    1
    42     1    39    1
    43     1    40    1
    44     1    41    1
    45     2    42    1
    46     2    43    1
    47     3    44    1
    48     3    45    1
    49     4    46    1
    50     4    47    1
    51     5    48    1
    52     5    49    1
    53     6    50    1
    54     9    51    1
    55    13    52    1
    56    15    53    1
    57    16    54    1
    58    22    55    1
    59    22    56    1
    60    23    57    1
    61    23    58    1
    62    25    59    1
    63    25    60    1
    64    26    61    1
    65    26    62    1
    66    27    63    1
    67    28    64    1
    68    30    65    1
    69    31    66    1
    70    32    67    1
    71    32    68    1
    72    33    69    1
    73    33    70    1
    74    34    71    1
    75    35    72    1
    76    36    73    1
    77    36    74    1
    78    37    75    1
    79    37    76    1
