
     RDKit          3D

 76 79  0  0  0  0  0  0  0  0999 V2000
   -7.5790   -6.3416   -0.3858 C   0  0  0  0  0  0  0  0  0  0  0  0
   -7.4628   -5.2475   -1.4259 C   0  0  0  0  0  0  0  0  0  0  0  0
   -6.9952   -3.9879   -0.7044 C   0  0  0  0  0  0  0  0  0  0  0  0
   -5.6734   -4.2412   -0.0663 C   0  0  0  0  0  0  0  0  0  0  0  0
   -5.1875   -3.0267    0.6639 C   0  0  0  0  0  0  0  0  0  0  0  0
   -5.0528   -1.9296   -0.2580 N   0  0  0  0  0  0  0  0  0  0  0  0
   -3.8043   -1.1934   -0.1873 C   0  0  0  0  0  0  0  0  0  0  0  0
   -2.6507   -1.8878   -0.1109 N   0  0  0  0  0  0  0  0  0  0  0  0
   -1.4733   -1.2886   -0.0317 C   0  0  0  0  0  0  0  0  0  0  0  0
   -1.3874    0.1174   -0.0238 C   0  0  0  0  0  0  0  0  0  0  0  0
   -0.0226    0.6287    0.1335 C   0  0  0  0  0  0  0  0  0  0  0  0
    0.2677    1.6512    0.7128 O   0  0  0  0  0  0  0  0  0  0  0  0
    1.0634   -0.1099   -0.4420 N   0  0  0  0  0  0  0  0  0  0  0  0
    2.4132    0.2032   -0.4113 C   0  0  0  0  0  0  0  0  0  0  0  0
    3.2603   -0.6075   -1.1847 C   0  0  0  0  0  0  0  0  0  0  0  0
    4.6289   -0.4138   -1.2266 C   0  0  0  0  0  0  0  0  0  0  0  0
    5.2016    0.5949   -0.4979 C   0  0  0  0  0  0  0  0  0  0  0  0
    6.9336    0.7924   -0.5987 S   0  0  0  0  0  6  0  0  0  0  0  0
    7.3491    0.4079   -1.9846 O   0  0  0  0  0  0  0  0  0  0  0  0
    7.2296    2.2235   -0.2772 O   0  0  0  0  0  0  0  0  0  0  0  0
    7.7252   -0.2693    0.5268 N   0  0  0  0  0  0  0  0  0  0  0  0
    7.4567   -1.6362    0.2515 C   0  0  0  0  0  0  0  0  0  0  0  0
    8.5046   -2.6068    0.6593 C   0  0  0  0  0  0  0  0  0  0  0  0
    9.7847   -2.0898    0.7196 O   0  0  0  0  0  0  0  0  0  0  0  0
    9.9369   -0.9327   -0.0281 C   0  0  0  0  0  0  0  0  0  0  0  0
    9.0815    0.1202    0.6443 C   0  0  0  0  0  0  0  0  0  0  0  0
    4.4006    1.4033    0.2675 C   0  0  0  0  0  0  0  0  0  0  0  0
    3.0029    1.2065    0.3098 C   0  0  0  0  0  0  0  0  0  0  0  0
   -2.5168    0.8445   -0.0992 C   0  0  0  0  0  0  0  0  0  0  0  0
   -2.6466    2.2335   -0.1218 N   0  0  0  0  0  0  0  0  0  0  0  0
   -1.8390    3.3562    0.0337 C   0  0  1  0  0  0  0  0  0  0  0  0
   -2.5393    4.5579   -0.7053 C   0  0  0  0  0  0  0  0  0  0  0  0
   -3.6709    5.1123    0.1076 C   0  0  0  0  0  0  0  0  0  0  0  0
   -3.1183    5.8328    1.3478 C   0  0  2  0  0  0  0  0  0  0  0  0
   -3.0676    7.1887    1.1440 O   0  0  0  0  0  0  0  0  0  0  0  0
   -1.7102    5.2640    1.6019 C   0  0  0  0  0  0  0  0  0  0  0  0
   -1.8767    3.7700    1.5160 C   0  0  0  0  0  0  0  0  0  0  0  0
   -3.7135    0.1134   -0.1799 N   0  0  0  0  0  0  0  0  0  0  0  0
   -6.6287   -6.9342   -0.4131 H   0  0  0  0  0  0  0  0  0  0  0  0
   -7.6819   -5.9368    0.6512 H   0  0  0  0  0  0  0  0  0  0  0  0
   -8.3893   -7.0295   -0.6356 H   0  0  0  0  0  0  0  0  0  0  0  0
   -8.4575   -5.0588   -1.8530 H   0  0  0  0  0  0  0  0  0  0  0  0
   -6.7095   -5.4683   -2.2063 H   0  0  0  0  0  0  0  0  0  0  0  0
   -7.7865   -3.7271    0.0259 H   0  0  0  0  0  0  0  0  0  0  0  0
   -6.9297   -3.1728   -1.4341 H   0  0  0  0  0  0  0  0  0  0  0  0
   -5.6756   -5.1230    0.6122 H   0  0  0  0  0  0  0  0  0  0  0  0
   -4.9089   -4.4422   -0.8722 H   0  0  0  0  0  0  0  0  0  0  0  0
   -5.9471   -2.7593    1.4425 H   0  0  0  0  0  0  0  0  0  0  0  0
   -4.2045   -3.2242    1.1721 H   0  0  0  0  0  0  0  0  0  0  0  0
   -5.7291   -1.6120   -0.9480 H   0  0  0  0  0  0  0  0  0  0  0  0
   -0.5992   -1.8859    0.0427 H   0  0  0  0  0  0  0  0  0  0  0  0
    0.7517   -0.9911   -0.9555 H   0  0  0  0  0  0  0  0  0  0  0  0
    2.8384   -1.4116   -1.7711 H   0  0  0  0  0  0  0  0  0  0  0  0
    5.2318   -1.0891   -1.8540 H   0  0  0  0  0  0  0  0  0  0  0  0
    6.4619   -1.8941    0.6843 H   0  0  0  0  0  0  0  0  0  0  0  0
    7.3232   -1.7428   -0.8575 H   0  0  0  0  0  0  0  0  0  0  0  0
    8.2575   -3.0004    1.6688 H   0  0  0  0  0  0  0  0  0  0  0  0
    8.5349   -3.4921   -0.0129 H   0  0  0  0  0  0  0  0  0  0  0  0
   11.0005   -0.6174    0.1262 H   0  0  0  0  0  0  0  0  0  0  0  0
    9.6981   -1.0765   -1.0910 H   0  0  0  0  0  0  0  0  0  0  0  0
    9.4360    0.1403    1.7163 H   0  0  0  0  0  0  0  0  0  0  0  0
    9.2319    1.1220    0.1906 H   0  0  0  0  0  0  0  0  0  0  0  0
    4.8137    2.2100    0.8624 H   0  0  0  0  0  0  0  0  0  0  0  0
    2.4198    1.8577    0.9250 H   0  0  0  0  0  0  0  0  0  0  0  0
   -3.7161    2.5126   -0.3355 H   0  0  0  0  0  0  0  0  0  0  0  0
   -0.8388    3.4259   -0.3338 H   0  0  0  0  0  0  0  0  0  0  0  0
   -2.9607    4.1551   -1.6533 H   0  0  0  0  0  0  0  0  0  0  0  0
   -1.8044    5.3234   -0.9746 H   0  0  0  0  0  0  0  0  0  0  0  0
   -4.1450    5.9162   -0.5318 H   0  0  0  0  0  0  0  0  0  0  0  0
   -4.3897    4.3352    0.3698 H   0  0  0  0  0  0  0  0  0  0  0  0
   -3.7213    5.5180    2.2208 H   0  0  0  0  0  0  0  0  0  0  0  0
   -2.6227    7.4032    0.2941 H   0  0  0  0  0  0  0  0  0  0  0  0
   -1.3407    5.5866    2.5987 H   0  0  0  0  0  0  0  0  0  0  0  0
   -1.0363    5.6143    0.8154 H   0  0  0  0  0  0  0  0  0  0  0  0
   -1.1200    3.2387    2.0922 H   0  0  0  0  0  0  0  0  0  0  0  0
   -2.9087    3.5180    1.8845 H   0  0  0  0  0  0  0  0  0  0  0  0
  1  2  1  0
  2  3  1  0
  3  4  1  0
  4  5  1  0
  5  6  1  0
  6  7  1  0
  7  8  2  0
  8  9  1  0
  9 10  2  0
 10 11  1  0
 11 12  2  0
 11 13  1  0
 13 14  1  0
 14 15  2  0
 15 16  1  0
 16 17  2  0
 17 18  1  0
 18 19  2  0
 18 20  2  0
 18 21  1  0
 21 22  1  0
 22 23  1  0
 23 24  1  0
 24 25  1  0
 25 26  1  0
 17 27  1  0
 27 28  2  0
 10 29  1  0
 29 30  1  0
 30 31  1  0
 31 32  1  0
 32 33  1  0
 33 34  1  0
 34 35  1  0
 34 36  1  0
 36 37  1  0
 29 38  2  0
 38  7  1  0
 28 14  1  0
 37 31  1  0
 26 21  1  0
  1 39  1  0
  1 40  1  0
  1 41  1  0
  2 42  1  0
  2 43  1  0
  3 44  1  0
  3 45  1  0
  4 46  1  0
  4 47  1  0
  5 48  1  0
  5 49  1  0
  6 50  1  0
  9 51  1  0
 13 52  1  0
 15 53  1  0
 16 54  1  0
 22 55  1  0
 22 56  1  0
 23 57  1  0
 23 58  1  0
 25 59  1  0
 25 60  1  0
 26 61  1  0
 26 62  1  0
 27 63  1  0
 28 64  1  0
 30 65  1  0
 31 66  1  6
 32 67  1  0
 32 68  1  0
 33 69  1  0
 33 70  1  0
 34 71  1  1
 35 72  1  0
 36 73  1  0
 36 74  1  0
 37 75  1  0
 37 76  1  0
M  END
$$$$
