@<TRIPOS>MOLECULE
*****
 39 41 0 0 0
SMALL
GASTEIGER

@<TRIPOS>ATOM
      1 C           6.8947   -0.5746   -1.0377 C.ar    1  UNL1       -0.0617
      2 C           6.7388   -0.6135    0.3288 C.ar    1  UNL1       -0.0611
      3 C           5.5036   -0.4019    0.9224 C.ar    1  UNL1       -0.0525
      4 C           4.4074   -0.1479    0.1465 C.ar    1  UNL1        0.0009
      5 C           3.1026    0.0735    0.8105 C.ar    1  UNL1        0.0803
      6 C           2.9472    0.0367    2.1268 C.ar    1  UNL1        0.0049
      7 S           1.1617    0.3739    2.3633 S.2     1  UNL1       -0.0586
      8 C           0.9166    0.5158    0.5227 C.ar    1  UNL1        0.1783
      9 N          -0.4543    0.8080    0.0520 N.pl3   1  UNL1       -0.2153
     10 N          -1.5090    0.9708    0.9250 N.2     1  UNL1       -0.1898
     11 C          -2.5521    0.2326    0.8360 C.2     1  UNL1        0.0369
     12 C          -3.6381    0.4887    1.8286 C.3     1  UNL1       -0.0128
     13 C          -4.8721   -0.2145    1.3694 C.3     1  UNL1       -0.0479
     14 C          -5.3554    0.1996    0.0180 C.3     1  UNL1       -0.0527
     15 C          -4.3082    0.7906   -0.8672 C.3     1  UNL1       -0.0527
     16 C          -3.3296   -0.2148   -1.4122 C.3     1  UNL1       -0.0479
     17 C          -2.4957   -0.7634   -0.2578 C.3     1  UNL1       -0.0128
     18 N           1.9905    0.3255    0.1351 N.ar    1  UNL1       -0.2236
     19 C           4.5332   -0.1036   -1.2098 C.ar    1  UNL1       -0.0525
     20 C           5.7643   -0.3154   -1.7842 C.ar    1  UNL1       -0.0611
     21 H           7.8685   -0.7422   -1.4926 H       1  UNL1        0.0618
     22 H           7.5913   -0.8134    0.9810 H       1  UNL1        0.0618
     23 H           5.4377   -0.4447    2.0229 H       1  UNL1        0.0624
     24 H           3.6569   -0.1482    3.0285 H       1  UNL1        0.0716
     25 H          -0.5363    0.8746   -0.9534 H       1  UNL1        0.1765
     26 H          -3.3479    0.0659    2.8069 H       1  UNL1        0.0325
     27 H          -3.8413    1.5525    1.9714 H       1  UNL1        0.0325
     28 H          -4.6432   -1.3193    1.3261 H       1  UNL1        0.0269
     29 H          -5.6781   -0.1406    2.1486 H       1  UNL1        0.0269
     30 H          -5.8234   -0.6479   -0.5052 H       1  UNL1        0.0265
     31 H          -6.1394    0.9850    0.1693 H       1  UNL1        0.0265
     32 H          -4.8427    1.2408   -1.7483 H       1  UNL1        0.0265
     33 H          -3.7654    1.6365   -0.3983 H       1  UNL1        0.0265
     34 H          -3.8801   -1.0225   -1.9400 H       1  UNL1        0.0269
     35 H          -2.6967    0.3057   -2.1603 H       1  UNL1        0.0269
     36 H          -1.4425   -0.9244   -0.5668 H       1  UNL1        0.0325
     37 H          -2.9242   -1.7358    0.0714 H       1  UNL1        0.0325
     38 H           3.6562    0.0997   -1.8357 H       1  UNL1        0.0624
     39 H           5.9047   -0.2878   -2.8666 H       1  UNL1        0.0618
@<TRIPOS>BOND
     1     1     2   ar
     2     2     3   ar
     3     3     4   ar
     4     4     5    1
     5     5     6   ar
     6     6     7   ar
     7     7     8   ar
     8     8     9    1
     9     9    10    1
    10    10    11    2
    11    11    12    1
    12    12    13    1
    13    13    14    1
    14    14    15    1
    15    15    16    1
    16    16    17    1
    17     8    18   ar
    18     4    19   ar
    19    19    20   ar
    20    20     1   ar
    21    18     5   ar
    22    17    11    1
    23     1    21    1
    24     2    22    1
    25     3    23    1
    26     6    24    1
    27     9    25    1
    28    12    26    1
    29    12    27    1
    30    13    28    1
    31    13    29    1
    32    14    30    1
    33    14    31    1
    34    15    32    1
    35    15    33    1
    36    16    34    1
    37    16    35    1
    38    17    36    1
    39    17    37    1
    40    19    38    1
    41    20    39    1
