@<TRIPOS>MOLECULE
*****
 57 61 0 0 0
SMALL
GASTEIGER

@<TRIPOS>ATOM
      1 C          -1.2611    3.0073   -2.7939 C.3     1  UNL1       -0.0443
      2 C          -1.6924    1.5647   -2.6021 C.3     1  UNL1        0.0455
      3 C          -3.1355    1.5579   -2.2399 C.3     1  UNL1        0.0670
      4 O          -3.2551    1.4801   -0.8526 O.3     1  UNL1       -0.3640
      5 C          -2.7922    0.2460   -0.4702 C.3     1  UNL1        0.1502
      6 C          -3.3855   -0.2674    0.7929 C.2     1  UNL1        0.2477
      7 O          -2.9878   -1.3849    1.1755 O.2     1  UNL1       -0.2726
      8 N          -4.3402    0.4268    1.5465 N.am    1  UNL1       -0.2833
      9 C          -4.9560    0.0174    2.7520 C.ar    1  UNL1        0.0335
     10 C          -4.7314   -1.1572    3.4225 C.ar    1  UNL1       -0.0405
     11 C          -5.4004   -1.4703    4.6213 C.ar    1  UNL1       -0.0600
     12 C          -6.3154   -0.6069    5.1783 C.ar    1  UNL1       -0.0616
     13 C          -6.5508    0.5783    4.5140 C.ar    1  UNL1       -0.0600
     14 C          -5.8903    0.8686    3.3460 C.ar    1  UNL1       -0.0405
     15 C          -1.2823    0.2924   -0.4268 C.3     1  UNL1        0.0487
     16 N          -0.8337    0.8714   -1.6653 N.pl3   1  UNL1       -0.3071
     17 C           0.5494    0.7710   -2.0208 C.ar    1  UNL1        0.1273
     18 C           1.4628    0.1474   -1.1617 C.ar    1  UNL1        0.0045
     19 C           2.7976    0.0376   -1.4873 C.ar    1  UNL1        0.0779
     20 C           3.7861   -0.6028   -0.6280 C.ar    1  UNL1        0.0026
     21 C           5.0976   -0.6592   -1.0508 C.ar    1  UNL1       -0.0518
     22 C           6.0844   -1.2599   -0.2738 C.ar    1  UNL1       -0.0486
     23 C           5.7846   -1.8207    0.9486 C.ar    1  UNL1        0.0410
     24 C           6.5456   -2.4666    1.9052 C.ar    1  UNL1        0.1456
     25 N           7.9558   -2.7288    1.8424 N.pl3   1  UNL1       -0.3413
     26 N           5.6850   -2.7973    2.9042 N.ar    1  UNL1       -0.1581
     27 N           4.4605   -2.3768    2.5780 N.ar    1  UNL1       -0.2752
     28 C           4.4762   -1.7691    1.3797 C.ar    1  UNL1        0.0682
     29 C           3.4888   -1.1630    0.5922 C.ar    1  UNL1       -0.0270
     30 N           3.1653    0.5608   -2.6682 N.ar    1  UNL1       -0.2146
     31 C           2.3365    1.1686   -3.5299 C.ar    1  UNL1        0.2148
     32 N           2.8059    1.7039   -4.7774 N.pl3   1  UNL1       -0.3274
     33 N           1.0417    1.2547   -3.1738 N.ar    1  UNL1       -0.1997
     34 H          -2.1282    3.6345   -3.1234 H       1  UNL1        0.0248
     35 H          -0.4888    3.0302   -3.5844 H       1  UNL1        0.0248
     36 H          -0.9244    3.4409   -1.8387 H       1  UNL1        0.0248
     37 H          -1.5779    1.0075   -3.5789 H       1  UNL1        0.0520
     38 H          -3.6900    0.6807   -2.6813 H       1  UNL1        0.0578
     39 H          -3.6180    2.4853   -2.6146 H       1  UNL1        0.0578
     40 H          -3.0783   -0.4869   -1.2696 H       1  UNL1        0.0709
     41 H          -4.6198    1.3677    1.1487 H       1  UNL1        0.1549
     42 H          -4.0217   -1.8595    3.0178 H       1  UNL1        0.0636
     43 H          -5.1715   -2.4083    5.0878 H       1  UNL1        0.0618
     44 H          -6.8117   -0.8750    6.0985 H       1  UNL1        0.0618
     45 H          -7.2746    1.2519    4.9622 H       1  UNL1        0.0618
     46 H          -6.1045    1.8008    2.8645 H       1  UNL1        0.0636
     47 H          -0.8630   -0.7547   -0.3589 H       1  UNL1        0.0495
     48 H          -0.8952    0.8424    0.4382 H       1  UNL1        0.0495
     49 H           1.0998   -0.2447   -0.2388 H       1  UNL1        0.0673
     50 H           5.4071   -0.2400   -1.9991 H       1  UNL1        0.0624
     51 H           7.1176   -1.3114   -0.5927 H       1  UNL1        0.0625
     52 H           8.3938   -3.4609    2.4281 H       1  UNL1        0.1438
     53 H           8.5185   -2.1359    1.1683 H       1  UNL1        0.1438
     54 H           3.6112   -2.5067    3.1784 H       1  UNL1        0.1890
     55 H           2.4789   -1.1318    0.9427 H       1  UNL1        0.0645
     56 H           3.2814    1.1285   -5.4874 H       1  UNL1        0.1452
     57 H           2.6454    2.7213   -4.9454 H       1  UNL1        0.1452
@<TRIPOS>BOND
     1     1     2    1
     2     2     3    1
     3     3     4    1
     4     4     5    1
     5     5     6    1
     6     6     7    2
     7     6     8   am
     8     8     9    1
     9     9    10   ar
    10    10    11   ar
    11    11    12   ar
    12    12    13   ar
    13    13    14   ar
    14     5    15    1
    15    15    16    1
    16    16    17    1
    17    17    18   ar
    18    18    19   ar
    19    19    20    1
    20    20    21   ar
    21    21    22   ar
    22    22    23   ar
    23    23    24   ar
    24    24    25    1
    25    24    26   ar
    26    26    27   ar
    27    27    28   ar
    28    28    29   ar
    29    19    30   ar
    30    30    31   ar
    31    31    32    1
    32    31    33   ar
    33    16     2    1
    34    33    17   ar
    35    14     9   ar
    36    29    20   ar
    37    28    23   ar
    38     1    34    1
    39     1    35    1
    40     1    36    1
    41     2    37    1
    42     3    38    1
    43     3    39    1
    44     5    40    1
    45     8    41    1
    46    10    42    1
    47    11    43    1
    48    12    44    1
    49    13    45    1
    50    14    46    1
    51    15    47    1
    52    15    48    1
    53    18    49    1
    54    21    50    1
    55    22    51    1
    56    25    52    1
    57    25    53    1
    58    27    54    1
    59    29    55    1
    60    32    56    1
    61    32    57    1
