
     RDKit          3D

 57 61  0  0  0  0  0  0  0  0999 V2000
   -1.2611    3.0073   -2.7939 C   0  0  0  0  0  0  0  0  0  0  0  0
   -1.6924    1.5647   -2.6021 C   0  0  2  0  0  0  0  0  0  0  0  0
   -3.1355    1.5579   -2.2399 C   0  0  0  0  0  0  0  0  0  0  0  0
   -3.2551    1.4801   -0.8526 O   0  0  0  0  0  0  0  0  0  0  0  0
   -2.7922    0.2460   -0.4702 C   0  0  2  0  0  0  0  0  0  0  0  0
   -3.3855   -0.2674    0.7929 C   0  0  0  0  0  0  0  0  0  0  0  0
   -2.9878   -1.3849    1.1755 O   0  0  0  0  0  0  0  0  0  0  0  0
   -4.3402    0.4268    1.5465 N   0  0  0  0  0  0  0  0  0  0  0  0
   -4.9560    0.0174    2.7520 C   0  0  0  0  0  0  0  0  0  0  0  0
   -4.7314   -1.1572    3.4225 C   0  0  0  0  0  0  0  0  0  0  0  0
   -5.4004   -1.4703    4.6213 C   0  0  0  0  0  0  0  0  0  0  0  0
   -6.3154   -0.6069    5.1783 C   0  0  0  0  0  0  0  0  0  0  0  0
   -6.5508    0.5783    4.5140 C   0  0  0  0  0  0  0  0  0  0  0  0
   -5.8903    0.8686    3.3460 C   0  0  0  0  0  0  0  0  0  0  0  0
   -1.2823    0.2924   -0.4268 C   0  0  0  0  0  0  0  0  0  0  0  0
   -0.8337    0.8714   -1.6653 N   0  0  0  0  0  0  0  0  0  0  0  0
    0.5494    0.7710   -2.0208 C   0  0  0  0  0  0  0  0  0  0  0  0
    1.4628    0.1474   -1.1617 C   0  0  0  0  0  0  0  0  0  0  0  0
    2.7976    0.0376   -1.4873 C   0  0  0  0  0  0  0  0  0  0  0  0
    3.7861   -0.6028   -0.6280 C   0  0  0  0  0  0  0  0  0  0  0  0
    5.0976   -0.6592   -1.0508 C   0  0  0  0  0  0  0  0  0  0  0  0
    6.0844   -1.2599   -0.2738 C   0  0  0  0  0  0  0  0  0  0  0  0
    5.7846   -1.8207    0.9486 C   0  0  0  0  0  0  0  0  0  0  0  0
    6.5456   -2.4666    1.9052 C   0  0  0  0  0  0  0  0  0  0  0  0
    7.9558   -2.7288    1.8424 N   0  0  0  0  0  0  0  0  0  0  0  0
    5.6850   -2.7973    2.9042 N   0  0  0  0  0  0  0  0  0  0  0  0
    4.4605   -2.3768    2.5780 N   0  0  0  0  0  0  0  0  0  0  0  0
    4.4762   -1.7691    1.3797 C   0  0  0  0  0  0  0  0  0  0  0  0
    3.4888   -1.1630    0.5922 C   0  0  0  0  0  0  0  0  0  0  0  0
    3.1653    0.5608   -2.6682 N   0  0  0  0  0  0  0  0  0  0  0  0
    2.3365    1.1686   -3.5299 C   0  0  0  0  0  0  0  0  0  0  0  0
    2.8059    1.7039   -4.7774 N   0  0  0  0  0  0  0  0  0  0  0  0
    1.0417    1.2547   -3.1738 N   0  0  0  0  0  0  0  0  0  0  0  0
   -2.1282    3.6345   -3.1234 H   0  0  0  0  0  0  0  0  0  0  0  0
   -0.4888    3.0302   -3.5844 H   0  0  0  0  0  0  0  0  0  0  0  0
   -0.9244    3.4409   -1.8387 H   0  0  0  0  0  0  0  0  0  0  0  0
   -1.5779    1.0075   -3.5789 H   0  0  0  0  0  0  0  0  0  0  0  0
   -3.6900    0.6807   -2.6813 H   0  0  0  0  0  0  0  0  0  0  0  0
   -3.6180    2.4853   -2.6146 H   0  0  0  0  0  0  0  0  0  0  0  0
   -3.0783   -0.4869   -1.2696 H   0  0  0  0  0  0  0  0  0  0  0  0
   -4.6198    1.3677    1.1487 H   0  0  0  0  0  0  0  0  0  0  0  0
   -4.0217   -1.8595    3.0178 H   0  0  0  0  0  0  0  0  0  0  0  0
   -5.1715   -2.4083    5.0878 H   0  0  0  0  0  0  0  0  0  0  0  0
   -6.8117   -0.8750    6.0985 H   0  0  0  0  0  0  0  0  0  0  0  0
   -7.2746    1.2519    4.9622 H   0  0  0  0  0  0  0  0  0  0  0  0
   -6.1045    1.8008    2.8645 H   0  0  0  0  0  0  0  0  0  0  0  0
   -0.8630   -0.7547   -0.3589 H   0  0  0  0  0  0  0  0  0  0  0  0
   -0.8952    0.8424    0.4382 H   0  0  0  0  0  0  0  0  0  0  0  0
    1.0998   -0.2447   -0.2388 H   0  0  0  0  0  0  0  0  0  0  0  0
    5.4071   -0.2400   -1.9991 H   0  0  0  0  0  0  0  0  0  0  0  0
    7.1176   -1.3114   -0.5927 H   0  0  0  0  0  0  0  0  0  0  0  0
    8.3938   -3.4609    2.4281 H   0  0  0  0  0  0  0  0  0  0  0  0
    8.5185   -2.1359    1.1683 H   0  0  0  0  0  0  0  0  0  0  0  0
    3.6112   -2.5067    3.1784 H   0  0  0  0  0  0  0  0  0  0  0  0
    2.4789   -1.1318    0.9427 H   0  0  0  0  0  0  0  0  0  0  0  0
    3.2814    1.1285   -5.4874 H   0  0  0  0  0  0  0  0  0  0  0  0
    2.6454    2.7213   -4.9454 H   0  0  0  0  0  0  0  0  0  0  0  0
  1  2  1  0
  2  3  1  0
  3  4  1  0
  4  5  1  0
  5  6  1  0
  6  7  2  0
  6  8  1  0
  8  9  1  0
  9 10  2  0
 10 11  1  0
 11 12  2  0
 12 13  1  0
 13 14  2  0
  5 15  1  0
 15 16  1  0
 16 17  1  0
 17 18  2  0
 18 19  1  0
 19 20  1  0
 20 21  2  0
 21 22  1  0
 22 23  2  0
 23 24  1  0
 24 25  1  0
 24 26  2  0
 26 27  1  0
 27 28  1  0
 28 29  2  0
 19 30  2  0
 30 31  1  0
 31 32  1  0
 31 33  2  0
 16  2  1  0
 33 17  1  0
 14  9  1  0
 29 20  1  0
 28 23  1  0
  1 34  1  0
  1 35  1  0
  1 36  1  0
  2 37  1  6
  3 38  1  0
  3 39  1  0
  5 40  1  6
  8 41  1  0
 10 42  1  0
 11 43  1  0
 12 44  1  0
 13 45  1  0
 14 46  1  0
 15 47  1  0
 15 48  1  0
 18 49  1  0
 21 50  1  0
 22 51  1  0
 25 52  1  0
 25 53  1  0
 27 54  1  0
 29 55  1  0
 32 56  1  0
 32 57  1  0
M  END
$$$$
