
     RDKit          3D

 37 40  0  0  0  0  0  0  0  0999 V2000
   -4.5217    1.2514    1.7745 C   0  0  0  0  0  0  0  0  0  0  0  0
   -3.4061    0.9913    0.8346 C   0  0  0  0  0  0  0  0  0  0  0  0
   -2.8593    2.0729    0.1638 C   0  0  0  0  0  0  0  0  0  0  0  0
   -1.8155    1.8299   -0.7021 C   0  0  0  0  0  0  0  0  0  0  0  0
   -1.3924    0.5150   -0.8354 C   0  0  0  0  0  0  0  0  0  0  0  0
   -1.9427   -0.5685   -0.1613 C   0  0  0  0  0  0  0  0  0  0  0  0
   -2.9518   -0.2626    0.6637 N   0  0  0  0  0  0  0  0  0  0  0  0
   -1.3310   -1.8547   -0.4438 C   0  0  0  0  0  0  0  0  0  0  0  0
    0.0020   -2.0143   -0.4905 C   0  0  0  0  0  0  0  0  0  0  0  0
    0.3065   -3.4342   -0.8020 C   0  0  0  0  0  0  0  0  0  0  0  0
   -0.9367   -4.0808   -0.3630 N   0  0  0  0  0  0  0  0  0  0  0  0
   -1.9101   -3.1254   -0.7113 N   0  0  0  0  0  0  0  0  0  0  0  0
    1.0203   -0.9857   -0.2392 C   0  0  0  0  0  0  0  0  0  0  0  0
    0.7627   -0.2246    0.9058 C   0  0  0  0  0  0  0  0  0  0  0  0
    1.5576    0.7983    1.3184 C   0  0  0  0  0  0  0  0  0  0  0  0
    2.6729    1.0462    0.5047 C   0  0  0  0  0  0  0  0  0  0  0  0
    3.5021    2.0630    0.8656 N   0  0  0  0  0  0  0  0  0  0  0  0
    4.5961    2.4042    0.1766 C   0  0  0  0  0  0  0  0  0  0  0  0
    4.8546    1.6434   -0.9664 C   0  0  0  0  0  0  0  0  0  0  0  0
    4.0261    0.6038   -1.3563 C   0  0  0  0  0  0  0  0  0  0  0  0
    2.9114    0.2883   -0.6169 C   0  0  0  0  0  0  0  0  0  0  0  0
    2.1035   -0.7100   -0.9867 N   0  0  0  0  0  0  0  0  0  0  0  0
   -5.3359    0.5003    1.6349 H   0  0  0  0  0  0  0  0  0  0  0  0
   -4.9348    2.2730    1.5856 H   0  0  0  0  0  0  0  0  0  0  0  0
   -4.1187    1.2548    2.7972 H   0  0  0  0  0  0  0  0  0  0  0  0
   -3.2113    3.0744    0.2943 H   0  0  0  0  0  0  0  0  0  0  0  0
   -1.3989    2.6668   -1.2138 H   0  0  0  0  0  0  0  0  0  0  0  0
   -0.5574    0.4471   -1.5542 H   0  0  0  0  0  0  0  0  0  0  0  0
    0.4101   -3.5020   -1.9123 H   0  0  0  0  0  0  0  0  0  0  0  0
    1.1850   -3.8066   -0.2649 H   0  0  0  0  0  0  0  0  0  0  0  0
   -0.8767   -4.0769    0.6926 H   0  0  0  0  0  0  0  0  0  0  0  0
   -2.8757   -3.2267   -1.0894 H   0  0  0  0  0  0  0  0  0  0  0  0
   -0.0995   -0.3920    1.5722 H   0  0  0  0  0  0  0  0  0  0  0  0
    1.3684    1.3935    2.2015 H   0  0  0  0  0  0  0  0  0  0  0  0
    5.2237    3.2237    0.5061 H   0  0  0  0  0  0  0  0  0  0  0  0
    5.7272    1.8948   -1.5385 H   0  0  0  0  0  0  0  0  0  0  0  0
    4.2460    0.0289   -2.2439 H   0  0  0  0  0  0  0  0  0  0  0  0
  1  2  1  0
  2  3  2  0
  3  4  1  0
  4  5  2  0
  5  6  1  0
  6  7  2  0
  6  8  1  0
  8  9  2  0
  9 10  1  0
 10 11  1  0
 11 12  1  0
  9 13  1  0
 13 14  2  0
 14 15  1  0
 15 16  2  0
 16 17  1  0
 17 18  2  0
 18 19  1  0
 19 20  2  0
 20 21  1  0
 21 22  2  0
  7  2  1  0
 12  8  1  0
 22 13  1  0
 21 16  1  0
  1 23  1  0
  1 24  1  0
  1 25  1  0
  3 26  1  0
  4 27  1  0
  5 28  1  0
 10 29  1  0
 10 30  1  0
 11 31  1  0
 12 32  1  0
 14 33  1  0
 15 34  1  0
 18 35  1  0
 19 36  1  0
 20 37  1  0
M  END
$$$$
