@<TRIPOS>MOLECULE
*****
 37 40 0 0 0
SMALL
GASTEIGER

@<TRIPOS>ATOM
      1 C          -4.5217    1.2514    1.7745 C.3     1  UNL1       -0.0223
      2 C          -3.4061    0.9913    0.8346 C.ar    1  UNL1        0.0390
      3 C          -2.8593    2.0729    0.1638 C.ar    1  UNL1       -0.0406
      4 C          -1.8155    1.8299   -0.7021 C.ar    1  UNL1       -0.0580
      5 C          -1.3924    0.5150   -0.8354 C.ar    1  UNL1       -0.0344
      6 C          -1.9427   -0.5685   -0.1613 C.ar    1  UNL1        0.0865
      7 N          -2.9518   -0.2626    0.6637 N.ar    1  UNL1       -0.2506
      8 C          -1.3310   -1.8547   -0.4438 C.2     1  UNL1        0.0732
      9 C           0.0020   -2.0143   -0.4905 C.2     1  UNL1        0.0174
     10 C           0.3065   -3.4342   -0.8020 C.3     1  UNL1        0.0425
     11 N          -0.9367   -4.0808   -0.3630 N.3     1  UNL1       -0.2382
     12 N          -1.9101   -3.1254   -0.7113 N.pl3   1  UNL1       -0.2778
     13 C           1.0203   -0.9857   -0.2392 C.ar    1  UNL1        0.0710
     14 C           0.7627   -0.2246    0.9058 C.ar    1  UNL1       -0.0339
     15 C           1.5576    0.7983    1.3184 C.ar    1  UNL1       -0.0322
     16 C           2.6729    1.0462    0.5047 C.ar    1  UNL1        0.0892
     17 N           3.5021    2.0630    0.8656 N.ar    1  UNL1       -0.2534
     18 C           4.5961    2.4042    0.1766 C.ar    1  UNL1        0.0284
     19 C           4.8546    1.6434   -0.9664 C.ar    1  UNL1       -0.0415
     20 C           4.0261    0.6038   -1.3563 C.ar    1  UNL1       -0.0328
     21 C           2.9114    0.2883   -0.6169 C.ar    1  UNL1        0.0898
     22 N           2.1035   -0.7100   -0.9867 N.ar    1  UNL1       -0.2454
     23 H          -5.3359    0.5003    1.6349 H       1  UNL1        0.0292
     24 H          -4.9348    2.2730    1.5856 H       1  UNL1        0.0292
     25 H          -4.1187    1.2548    2.7972 H       1  UNL1        0.0292
     26 H          -3.2113    3.0744    0.2943 H       1  UNL1        0.0635
     27 H          -1.3989    2.6668   -1.2138 H       1  UNL1        0.0619
     28 H          -0.5574    0.4471   -1.5542 H       1  UNL1        0.0639
     29 H           0.4101   -3.5020   -1.9123 H       1  UNL1        0.0491
     30 H           1.1850   -3.8066   -0.2649 H       1  UNL1        0.0491
     31 H          -0.8767   -4.0769    0.6926 H       1  UNL1        0.1445
     32 H          -2.8757   -3.2267   -1.0894 H       1  UNL1        0.1663
     33 H          -0.0995   -0.3920    1.5722 H       1  UNL1        0.0639
     34 H           1.3684    1.3935    2.2015 H       1  UNL1        0.0640
     35 H           5.2237    3.2237    0.5061 H       1  UNL1        0.0830
     36 H           5.7272    1.8948   -1.5385 H       1  UNL1        0.0633
     37 H           4.2460    0.0289   -2.2439 H       1  UNL1        0.0640
@<TRIPOS>BOND
     1     1     2    1
     2     2     3   ar
     3     3     4   ar
     4     4     5   ar
     5     5     6   ar
     6     6     7   ar
     7     6     8    1
     8     8     9    2
     9     9    10    1
    10    10    11    1
    11    11    12    1
    12     9    13    1
    13    13    14   ar
    14    14    15   ar
    15    15    16   ar
    16    16    17   ar
    17    17    18   ar
    18    18    19   ar
    19    19    20   ar
    20    20    21   ar
    21    21    22   ar
    22     7     2   ar
    23    12     8    1
    24    22    13   ar
    25    21    16   ar
    26     1    23    1
    27     1    24    1
    28     1    25    1
    29     3    26    1
    30     4    27    1
    31     5    28    1
    32    10    29    1
    33    10    30    1
    34    11    31    1
    35    12    32    1
    36    14    33    1
    37    15    34    1
    38    18    35    1
    39    19    36    1
    40    20    37    1
