
     RDKit          3D

 31 33  0  0  0  0  0  0  0  0999 V2000
    1.4087    3.1111   -0.3633 N   0  0  0  0  0  0  0  0  0  0  0  0
    0.3891    2.1546   -0.2953 C   0  0  0  0  0  0  0  0  0  0  0  0
   -0.3522    3.0984   -0.6548 O   0  0  0  0  0  0  0  0  0  0  0  0
    0.1304    0.7991   -0.0025 N   0  0  0  0  0  0  0  0  0  0  0  0
   -1.2534    0.4075   -0.1089 C   0  0  0  0  0  0  0  0  0  0  0  0
   -2.0926    1.4122    0.3868 C   0  0  0  0  0  0  0  0  0  0  0  0
   -3.4483    1.1952    0.3457 C   0  0  0  0  0  0  0  0  0  0  0  0
   -3.8953    0.0083   -0.1771 C   0  0  0  0  0  0  0  0  0  0  0  0
   -3.0639   -0.9989   -0.6726 C   0  0  0  0  0  0  0  0  0  0  0  0
   -1.6768   -0.8021   -0.6425 C   0  0  0  0  0  0  0  0  0  0  0  0
   -1.0225   -1.9807   -1.2029 C   0  0  0  0  0  0  0  0  0  0  0  0
    0.3308   -2.2754   -0.7078 C   0  0  0  0  0  0  0  0  0  0  0  0
    0.7183   -3.4517   -0.9309 O   0  0  0  0  0  0  0  0  0  0  0  0
    1.2809   -1.4065   -0.0007 C   0  0  0  0  0  0  0  0  0  0  0  0
    1.2159   -0.0492    0.3318 C   0  0  0  0  0  0  0  0  0  0  0  0
    2.1925    0.6395    1.0098 C   0  0  0  0  0  0  0  0  0  0  0  0
    3.3183   -0.0276    1.3969 C   0  0  0  0  0  0  0  0  0  0  0  0
    3.4232   -1.3775    1.0859 C   0  0  0  0  0  0  0  0  0  0  0  0
    2.4346   -2.0895    0.3963 C   0  0  0  0  0  0  0  0  0  0  0  0
    1.8559    3.8260    0.2513 H   0  0  0  0  0  0  0  0  0  0  0  0
    2.0652    3.3812   -1.1321 H   0  0  0  0  0  0  0  0  0  0  0  0
   -1.6632    2.2937    0.7881 H   0  0  0  0  0  0  0  0  0  0  0  0
   -4.1489    1.9194    0.7065 H   0  0  0  0  0  0  0  0  0  0  0  0
   -4.9787   -0.1644   -0.2096 H   0  0  0  0  0  0  0  0  0  0  0  0
   -3.4758   -1.9106   -1.0710 H   0  0  0  0  0  0  0  0  0  0  0  0
   -1.6406   -2.8770   -0.9158 H   0  0  0  0  0  0  0  0  0  0  0  0
   -1.0199   -1.9933   -2.3218 H   0  0  0  0  0  0  0  0  0  0  0  0
    2.0247    1.6621    1.2136 H   0  0  0  0  0  0  0  0  0  0  0  0
    4.0855    0.4925    1.9233 H   0  0  0  0  0  0  0  0  0  0  0  0
    4.3267   -1.8696    1.4081 H   0  0  0  0  0  0  0  0  0  0  0  0
    2.5315   -3.1268    0.1658 H   0  0  0  0  0  0  0  0  0  0  0  0
  1  2  1  0
  2  3  2  0
  2  4  1  0
  4  5  1  0
  5  6  2  0
  6  7  1  0
  7  8  2  0
  8  9  1  0
  9 10  2  0
 10 11  1  0
 11 12  1  0
 12 13  2  0
 12 14  1  0
 14 15  2  0
 15 16  1  0
 16 17  2  0
 17 18  1  0
 18 19  2  0
 15  4  1  0
 10  5  1  0
 19 14  1  0
  1 20  1  0
  1 21  1  0
  6 22  1  0
  7 23  1  0
  8 24  1  0
  9 25  1  0
 11 26  1  0
 11 27  1  0
 16 28  1  0
 17 29  1  0
 18 30  1  0
 19 31  1  0
M  END
$$$$
