
     RDKit          3D

 54 57  0  0  0  0  0  0  0  0999 V2000
   -5.1626   -1.9020   -5.0351 C   0  0  0  0  0  0  0  0  0  0  0  0
   -3.7635   -1.7188   -4.7158 N   0  0  0  0  0  0  0  0  0  0  0  0
   -2.7950   -2.2656   -5.6207 C   0  0  0  0  0  0  0  0  0  0  0  0
   -3.4733   -0.9504   -3.5514 C   0  0  0  0  0  0  0  0  0  0  0  0
   -4.4761   -0.4248   -2.9504 O   0  0  0  0  0  0  0  0  0  0  0  0
   -2.1368   -0.7195   -2.9830 C   0  0  2  0  0  0  0  0  0  0  0  0
   -1.5044   -1.8201   -2.1221 C   0  0  0  0  0  0  0  0  0  0  0  0
   -1.9524   -0.5008   -1.5527 C   0  0  1  0  0  0  0  0  0  0  0  0
   -0.9587    0.5499   -1.1804 C   0  0  1  0  0  0  0  0  0  0  0  0
   -1.4099    1.8700   -1.7703 C   0  0  0  0  0  0  0  0  0  0  0  0
   -0.8655    0.6519    0.2982 C   0  0  0  0  0  0  0  0  0  0  0  0
    0.2398    0.4064    1.0648 C   0  0  0  0  0  0  0  0  0  0  0  0
    0.2064    0.4869    2.4576 C   0  0  0  0  0  0  0  0  0  0  0  0
    1.3724    0.3297    3.2877 C   0  0  0  0  0  0  0  0  0  0  0  0
    2.5714    0.8481    2.9443 C   0  0  0  0  0  0  0  0  0  0  0  0
    2.5474    1.5060    1.7374 F   0  0  0  0  0  0  0  0  0  0  0  0
    3.6682    0.9356    3.8205 C   0  0  0  0  0  0  0  0  0  0  0  0
    3.2574    0.8962    5.2888 C   0  0  0  0  0  0  0  0  0  0  0  0
    4.1711    0.9313    6.2310 C   0  0  0  0  0  0  0  0  0  0  0  0
    5.5653    1.0015    6.0797 C   0  0  0  0  0  0  0  0  0  0  0  0
    6.4039    1.0105    7.1290 C   0  0  0  0  0  0  0  0  0  0  0  0
    7.2111    1.0382    8.1459 N   0  0  0  0  0  0  0  0  0  0  0  0
    5.9837    1.0351    4.6781 C   0  0  0  0  0  0  0  0  0  0  0  0
    4.9875    0.9955    3.8030 C   0  0  0  0  0  0  0  0  0  0  0  0
    5.4271    0.9605    2.4219 F   0  0  0  0  0  0  0  0  0  0  0  0
   -0.9896    0.8270    3.0696 C   0  0  0  0  0  0  0  0  0  0  0  0
   -2.1419    1.0908    2.3444 C   0  0  0  0  0  0  0  0  0  0  0  0
   -2.0617    0.9961    0.9924 C   0  0  0  0  0  0  0  0  0  0  0  0
   -3.1224    1.2862    0.2112 F   0  0  0  0  0  0  0  0  0  0  0  0
    0.3367    0.3116   -1.7614 N   0  0  0  0  0  0  0  0  0  0  0  0
    0.5618    0.1428   -3.0161 C   0  0  0  0  0  0  0  0  0  0  0  0
    1.8391   -0.0864   -3.5606 N   0  0  0  0  0  0  0  0  0  0  0  0
   -0.9447    0.1363   -4.0400 S   0  0  0  0  0  0  0  0  0  0  0  0
   -5.4766   -1.2375   -5.8613 H   0  0  0  0  0  0  0  0  0  0  0  0
   -5.8035   -1.7240   -4.1302 H   0  0  0  0  0  0  0  0  0  0  0  0
   -5.4337   -2.9739   -5.3076 H   0  0  0  0  0  0  0  0  0  0  0  0
   -1.8062   -2.4315   -5.1678 H   0  0  0  0  0  0  0  0  0  0  0  0
   -3.1557   -3.2770   -5.9609 H   0  0  0  0  0  0  0  0  0  0  0  0
   -2.7815   -1.5725   -6.4999 H   0  0  0  0  0  0  0  0  0  0  0  0
   -0.4542   -2.0623   -2.2793 H   0  0  0  0  0  0  0  0  0  0  0  0
   -2.1412   -2.7169   -1.9456 H   0  0  0  0  0  0  0  0  0  0  0  0
   -2.8557   -0.5893   -0.9615 H   0  0  0  0  0  0  0  0  0  0  0  0
   -0.8523    2.1627   -2.6531 H   0  0  0  0  0  0  0  0  0  0  0  0
   -1.5250    2.6191   -0.9579 H   0  0  0  0  0  0  0  0  0  0  0  0
   -2.4768    1.7177   -2.1175 H   0  0  0  0  0  0  0  0  0  0  0  0
    1.1677    0.1255    0.6209 H   0  0  0  0  0  0  0  0  0  0  0  0
    1.3459   -0.2303    4.2005 H   0  0  0  0  0  0  0  0  0  0  0  0
    2.2158    0.8712    5.4512 H   0  0  0  0  0  0  0  0  0  0  0  0
    3.8721    0.8874    7.3263 H   0  0  0  0  0  0  0  0  0  0  0  0
    7.0383    1.0479    4.5551 H   0  0  0  0  0  0  0  0  0  0  0  0
   -1.0831    0.8873    4.1698 H   0  0  0  0  0  0  0  0  0  0  0  0
   -3.0657    1.3738    2.9013 H   0  0  0  0  0  0  0  0  0  0  0  0
    2.3833    0.6784   -3.9834 H   0  0  0  0  0  0  0  0  0  0  0  0
    2.2963   -1.0556   -3.5445 H   0  0  0  0  0  0  0  0  0  0  0  0
  1  2  1  0
  2  3  1  0
  2  4  1  0
  4  5  2  0
  6  4  1  6
  6  7  1  0
  7  8  1  0
  8  9  1  0
  9 10  1  6
  9 11  1  0
 11 12  2  0
 12 13  1  0
 13 14  1  0
 14 15  2  0
 15 16  1  0
 15 17  1  0
 17 18  2  0
 18 19  1  0
 19 20  2  0
 20 21  1  0
 21 22  3  0
 20 23  1  0
 23 24  2  0
 24 25  1  0
 13 26  2  0
 26 27  1  0
 27 28  2  0
 28 29  1  0
  9 30  1  0
 30 31  2  0
 31 32  1  0
 31 33  1  0
  8  6  1  0
 28 11  1  0
 33  6  1  0
 24 17  1  0
  1 34  1  0
  1 35  1  0
  1 36  1  0
  3 37  1  0
  3 38  1  0
  3 39  1  0
  7 40  1  0
  7 41  1  0
  8 42  1  1
 10 43  1  0
 10 44  1  0
 10 45  1  0
 12 46  1  0
 14 47  1  0
 18 48  1  0
 19 49  1  0
 23 50  1  0
 26 51  1  0
 27 52  1  0
 32 53  1  0
 32 54  1  0
M  END
$$$$
