@<TRIPOS>MOLECULE
*****
 54 57 0 0 0
SMALL
GASTEIGER

@<TRIPOS>ATOM
      1 C          -5.1626   -1.9020   -5.0351 C.3     1  UNL1        0.0029
      2 N          -3.7635   -1.7188   -4.7158 N.am    1  UNL1       -0.3064
      3 C          -2.7950   -2.2656   -5.6207 C.3     1  UNL1        0.0029
      4 C          -3.4733   -0.9504   -3.5514 C.2     1  UNL1        0.2319
      5 O          -4.4761   -0.4248   -2.9504 O.2     1  UNL1       -0.2741
      6 C          -2.1368   -0.7195   -2.9830 C.3     1  UNL1        0.1054
      7 C          -1.5044   -1.8201   -2.1221 C.3     1  UNL1       -0.0220
      8 C          -1.9524   -0.5008   -1.5527 C.3     1  UNL1        0.0134
      9 C          -0.9587    0.5499   -1.1804 C.3     1  UNL1        0.0935
     10 C          -1.4099    1.8700   -1.7703 C.3     1  UNL1       -0.0351
     11 C          -0.8655    0.6519    0.2982 C.ar    1  UNL1        0.0158
     12 C           0.2398    0.4064    1.0648 C.ar    1  UNL1       -0.0463
     13 C           0.2064    0.4869    2.4576 C.ar    1  UNL1       -0.0218
     14 C           1.3724    0.3297    3.2877 C.2     1  UNL1       -0.0186
     15 C           2.5714    0.8481    2.9443 C.2     1  UNL1        0.1338
     16 F           2.5474    1.5060    1.7374 F       1  UNL1       -0.2048
     17 C           3.6682    0.9356    3.8205 C.ar    1  UNL1        0.0454
     18 C           3.2574    0.8962    5.2888 C.ar    1  UNL1       -0.0479
     19 C           4.1711    0.9313    6.2310 C.ar    1  UNL1       -0.0435
     20 C           5.5653    1.0015    6.0797 C.ar    1  UNL1        0.0545
     21 C           6.4039    1.0105    7.1290 C.1     1  UNL1        0.0992
     22 N           7.2111    1.0382    8.1459 N.1     1  UNL1       -0.1909
     23 C           5.9837    1.0351    4.6781 C.ar    1  UNL1       -0.0084
     24 C           4.9875    0.9955    3.8030 C.ar    1  UNL1        0.1345
     25 F           5.4271    0.9605    2.4219 F       1  UNL1       -0.2047
     26 C          -0.9896    0.8270    3.0696 C.ar    1  UNL1       -0.0518
     27 C          -2.1419    1.0908    2.3444 C.ar    1  UNL1       -0.0255
     28 C          -2.0617    0.9961    0.9924 C.ar    1  UNL1        0.1289
     29 F          -3.1224    1.2862    0.2112 F       1  UNL1       -0.2051
     30 N           0.3367    0.3116   -1.7614 N.2     1  UNL1       -0.2521
     31 C           0.5618    0.1428   -3.0161 C.2     1  UNL1        0.1485
     32 N           1.8391   -0.0864   -3.5606 N.pl3   1  UNL1       -0.3380
     33 S          -0.9447    0.1363   -4.0400 S.3     1  UNL1       -0.0746
     34 H          -5.4766   -1.2375   -5.8613 H       1  UNL1        0.0428
     35 H          -5.8035   -1.7240   -4.1302 H       1  UNL1        0.0428
     36 H          -5.4337   -2.9739   -5.3076 H       1  UNL1        0.0428
     37 H          -1.8062   -2.4315   -5.1678 H       1  UNL1        0.0428
     38 H          -3.1557   -3.2770   -5.9609 H       1  UNL1        0.0428
     39 H          -2.7815   -1.5725   -6.4999 H       1  UNL1        0.0428
     40 H          -0.4542   -2.0623   -2.2793 H       1  UNL1        0.0287
     41 H          -2.1412   -2.7169   -1.9456 H       1  UNL1        0.0287
     42 H          -2.8557   -0.5893   -0.9615 H       1  UNL1        0.0346
     43 H          -0.8523    2.1627   -2.6531 H       1  UNL1        0.0256
     44 H          -1.5250    2.6191   -0.9579 H       1  UNL1        0.0256
     45 H          -2.4768    1.7177   -2.1175 H       1  UNL1        0.0256
     46 H           1.1677    0.1255    0.6209 H       1  UNL1        0.0628
     47 H           1.3459   -0.2303    4.2005 H       1  UNL1        0.0652
     48 H           2.2158    0.8712    5.4512 H       1  UNL1        0.0626
     49 H           3.8721    0.8874    7.3263 H       1  UNL1        0.0631
     50 H           7.0383    1.0479    4.5551 H       1  UNL1        0.0659
     51 H          -1.0831    0.8873    4.1698 H       1  UNL1        0.0624
     52 H          -3.0657    1.3738    2.9013 H       1  UNL1        0.0646
     53 H           2.3833    0.6784   -3.9834 H       1  UNL1        0.1442
     54 H           2.2963   -1.0556   -3.5445 H       1  UNL1        0.1442
@<TRIPOS>BOND
     1     1     2    1
     2     2     3    1
     3     2     4   am
     4     4     5    2
     5     6     4    1
     6     6     7    1
     7     7     8    1
     8     8     9    1
     9     9    10    1
    10     9    11    1
    11    11    12   ar
    12    12    13   ar
    13    13    14    1
    14    14    15    2
    15    15    16    1
    16    15    17    1
    17    17    18   ar
    18    18    19   ar
    19    19    20   ar
    20    20    21    1
    21    21    22    3
    22    20    23   ar
    23    23    24   ar
    24    24    25    1
    25    13    26   ar
    26    26    27   ar
    27    27    28   ar
    28    28    29    1
    29     9    30    1
    30    30    31    2
    31    31    32    1
    32    31    33    1
    33     8     6    1
    34    28    11   ar
    35    33     6    1
    36    24    17   ar
    37     1    34    1
    38     1    35    1
    39     1    36    1
    40     3    37    1
    41     3    38    1
    42     3    39    1
    43     7    40    1
    44     7    41    1
    45     8    42    1
    46    10    43    1
    47    10    44    1
    48    10    45    1
    49    12    46    1
    50    14    47    1
    51    18    48    1
    52    19    49    1
    53    23    50    1
    54    26    51    1
    55    27    52    1
    56    32    53    1
    57    32    54    1
