@<TRIPOS>MOLECULE
*****
 49 53 0 0 0
SMALL
GASTEIGER

@<TRIPOS>ATOM
      1 C          -3.4417    2.5349   -1.8455 C.ar    1  UNL1       -0.0617
      2 C          -3.3325    2.9957   -0.5558 C.ar    1  UNL1       -0.0612
      3 C          -2.1028    2.9694    0.1077 C.ar    1  UNL1       -0.0540
      4 C          -0.9771    2.4835   -0.5120 C.ar    1  UNL1       -0.0171
      5 C           0.3240    2.5634    0.1192 C.ar    1  UNL1       -0.0054
      6 C           0.8445    3.8588    0.3343 C.ar    1  UNL1       -0.0532
      7 C           2.1244    4.0457    0.7646 C.ar    1  UNL1       -0.0591
      8 C           2.9478    2.9750    1.0017 C.ar    1  UNL1       -0.0355
      9 C           2.4683    1.7060    0.8042 C.ar    1  UNL1        0.0772
     10 N           3.2603    0.6391    1.0032 N.ar    1  UNL1       -0.2271
     11 C           2.8109   -0.6005    0.7944 C.ar    1  UNL1        0.1638
     12 C           3.7876   -1.6813    1.0470 C.ar    1  UNL1        0.0373
     13 C           3.3849   -2.9864    0.8495 C.ar    1  UNL1       -0.0482
     14 C           4.2884   -3.9773    1.0837 C.ar    1  UNL1       -0.0429
     15 C           5.5725   -3.7184    1.5054 C.ar    1  UNL1        0.0276
     16 N           5.9530   -2.4242    1.6953 N.ar    1  UNL1       -0.2626
     17 C           5.0596   -1.4410    1.4639 C.ar    1  UNL1        0.0382
     18 N           1.5758   -0.8658    0.3879 N.ar    1  UNL1       -0.2121
     19 C           0.7124    0.1999    0.1684 C.ar    1  UNL1        0.1312
     20 N          -0.6380   -0.1198   -0.0292 N.pl3   1  UNL1       -0.3229
     21 C          -0.9208   -1.5581   -0.3131 C.3     1  UNL1        0.0528
     22 C          -2.3296   -1.8292   -0.5221 C.ar    1  UNL1        0.0583
     23 C          -3.1348   -2.1616    0.5397 C.ar    1  UNL1       -0.0388
     24 C          -4.4967   -2.4269    0.3587 C.ar    1  UNL1       -0.0586
     25 C          -5.0038   -2.3440   -0.9170 C.ar    1  UNL1       -0.0436
     26 C          -4.1896   -2.0126   -1.9590 C.ar    1  UNL1        0.0279
     27 N          -2.8814   -1.7648   -1.7394 N.ar    1  UNL1       -0.2583
     28 C           1.1418    1.4898    0.3623 C.ar    1  UNL1        0.0478
     29 C          -1.0896    2.0196   -1.8121 C.ar    1  UNL1       -0.0540
     30 C          -2.3208    2.0476   -2.4720 C.ar    1  UNL1       -0.0612
     31 H          -4.4070    2.5505   -2.3798 H       1  UNL1        0.0618
     32 H          -4.2268    3.3757   -0.0794 H       1  UNL1        0.0618
     33 H          -2.0214    3.3378    1.1353 H       1  UNL1        0.0624
     34 H           0.1704    4.6710    0.1385 H       1  UNL1        0.0624
     35 H           2.5186    5.0577    0.9290 H       1  UNL1        0.0618
     36 H           3.9489    3.1145    1.3353 H       1  UNL1        0.0639
     37 H           2.3978   -3.2296    0.5230 H       1  UNL1        0.0626
     38 H           3.9918   -5.0066    0.9346 H       1  UNL1        0.0633
     39 H           6.2902   -4.5012    1.6917 H       1  UNL1        0.0829
     40 H           5.4039   -0.4086    1.6283 H       1  UNL1        0.0837
     41 H          -1.4548    0.4206    0.0605 H       1  UNL1        0.1479
     42 H          -0.2449   -1.8272   -1.1274 H       1  UNL1        0.0526
     43 H          -0.5674   -2.0541    0.6209 H       1  UNL1        0.0526
     44 H          -2.7736   -2.2366    1.5551 H       1  UNL1        0.0636
     45 H          -5.1015   -2.6844    1.2083 H       1  UNL1        0.0619
     46 H          -6.0657   -2.5504   -1.0609 H       1  UNL1        0.0633
     47 H          -4.5911   -1.9489   -2.9570 H       1  UNL1        0.0829
     48 H          -0.2593    1.6204   -2.3778 H       1  UNL1        0.0624
     49 H          -2.4053    1.6827   -3.4921 H       1  UNL1        0.0618
@<TRIPOS>BOND
     1     1     2   ar
     2     2     3   ar
     3     3     4   ar
     4     4     5    1
     5     5     6   ar
     6     6     7   ar
     7     7     8   ar
     8     8     9   ar
     9     9    10   ar
    10    10    11   ar
    11    11    12    1
    12    12    13   ar
    13    13    14   ar
    14    14    15   ar
    15    15    16   ar
    16    16    17   ar
    17    11    18   ar
    18    18    19   ar
    19    19    20    1
    20    20    21    1
    21    21    22    1
    22    22    23   ar
    23    23    24   ar
    24    24    25   ar
    25    25    26   ar
    26    26    27   ar
    27    19    28   ar
    28     4    29   ar
    29    29    30   ar
    30    30     1   ar
    31    28     5   ar
    32    28     9   ar
    33    17    12   ar
    34    27    22   ar
    35     1    31    1
    36     2    32    1
    37     3    33    1
    38     6    34    1
    39     7    35    1
    40     8    36    1
    41    13    37    1
    42    14    38    1
    43    15    39    1
    44    17    40    1
    45    20    41    1
    46    21    42    1
    47    21    43    1
    48    23    44    1
    49    24    45    1
    50    25    46    1
    51    26    47    1
    52    29    48    1
    53    30    49    1
