
     RDKit          3D

 49 53  0  0  0  0  0  0  0  0999 V2000
   -3.4417    2.5349   -1.8455 C   0  0  0  0  0  0  0  0  0  0  0  0
   -3.3325    2.9957   -0.5558 C   0  0  0  0  0  0  0  0  0  0  0  0
   -2.1028    2.9694    0.1077 C   0  0  0  0  0  0  0  0  0  0  0  0
   -0.9771    2.4835   -0.5120 C   0  0  0  0  0  0  0  0  0  0  0  0
    0.3240    2.5634    0.1192 C   0  0  0  0  0  0  0  0  0  0  0  0
    0.8445    3.8588    0.3343 C   0  0  0  0  0  0  0  0  0  0  0  0
    2.1244    4.0457    0.7646 C   0  0  0  0  0  0  0  0  0  0  0  0
    2.9478    2.9750    1.0017 C   0  0  0  0  0  0  0  0  0  0  0  0
    2.4683    1.7060    0.8042 C   0  0  0  0  0  0  0  0  0  0  0  0
    3.2603    0.6391    1.0032 N   0  0  0  0  0  0  0  0  0  0  0  0
    2.8109   -0.6005    0.7944 C   0  0  0  0  0  0  0  0  0  0  0  0
    3.7876   -1.6813    1.0470 C   0  0  0  0  0  0  0  0  0  0  0  0
    3.3849   -2.9864    0.8495 C   0  0  0  0  0  0  0  0  0  0  0  0
    4.2884   -3.9773    1.0837 C   0  0  0  0  0  0  0  0  0  0  0  0
    5.5725   -3.7184    1.5054 C   0  0  0  0  0  0  0  0  0  0  0  0
    5.9530   -2.4242    1.6953 N   0  0  0  0  0  0  0  0  0  0  0  0
    5.0596   -1.4410    1.4639 C   0  0  0  0  0  0  0  0  0  0  0  0
    1.5758   -0.8658    0.3879 N   0  0  0  0  0  0  0  0  0  0  0  0
    0.7124    0.1999    0.1684 C   0  0  0  0  0  0  0  0  0  0  0  0
   -0.6380   -0.1198   -0.0292 N   0  0  0  0  0  0  0  0  0  0  0  0
   -0.9208   -1.5581   -0.3131 C   0  0  0  0  0  0  0  0  0  0  0  0
   -2.3296   -1.8292   -0.5221 C   0  0  0  0  0  0  0  0  0  0  0  0
   -3.1348   -2.1616    0.5397 C   0  0  0  0  0  0  0  0  0  0  0  0
   -4.4967   -2.4269    0.3587 C   0  0  0  0  0  0  0  0  0  0  0  0
   -5.0038   -2.3440   -0.9170 C   0  0  0  0  0  0  0  0  0  0  0  0
   -4.1896   -2.0126   -1.9590 C   0  0  0  0  0  0  0  0  0  0  0  0
   -2.8814   -1.7648   -1.7394 N   0  0  0  0  0  0  0  0  0  0  0  0
    1.1418    1.4898    0.3623 C   0  0  0  0  0  0  0  0  0  0  0  0
   -1.0896    2.0196   -1.8121 C   0  0  0  0  0  0  0  0  0  0  0  0
   -2.3208    2.0476   -2.4720 C   0  0  0  0  0  0  0  0  0  0  0  0
   -4.4070    2.5505   -2.3798 H   0  0  0  0  0  0  0  0  0  0  0  0
   -4.2268    3.3757   -0.0794 H   0  0  0  0  0  0  0  0  0  0  0  0
   -2.0214    3.3378    1.1353 H   0  0  0  0  0  0  0  0  0  0  0  0
    0.1704    4.6710    0.1385 H   0  0  0  0  0  0  0  0  0  0  0  0
    2.5186    5.0577    0.9290 H   0  0  0  0  0  0  0  0  0  0  0  0
    3.9489    3.1145    1.3353 H   0  0  0  0  0  0  0  0  0  0  0  0
    2.3978   -3.2296    0.5230 H   0  0  0  0  0  0  0  0  0  0  0  0
    3.9918   -5.0066    0.9346 H   0  0  0  0  0  0  0  0  0  0  0  0
    6.2902   -4.5012    1.6917 H   0  0  0  0  0  0  0  0  0  0  0  0
    5.4039   -0.4086    1.6283 H   0  0  0  0  0  0  0  0  0  0  0  0
   -1.4548    0.4206    0.0605 H   0  0  0  0  0  0  0  0  0  0  0  0
   -0.2449   -1.8272   -1.1274 H   0  0  0  0  0  0  0  0  0  0  0  0
   -0.5674   -2.0541    0.6209 H   0  0  0  0  0  0  0  0  0  0  0  0
   -2.7736   -2.2366    1.5551 H   0  0  0  0  0  0  0  0  0  0  0  0
   -5.1015   -2.6844    1.2083 H   0  0  0  0  0  0  0  0  0  0  0  0
   -6.0657   -2.5504   -1.0609 H   0  0  0  0  0  0  0  0  0  0  0  0
   -4.5911   -1.9489   -2.9570 H   0  0  0  0  0  0  0  0  0  0  0  0
   -0.2593    1.6204   -2.3778 H   0  0  0  0  0  0  0  0  0  0  0  0
   -2.4053    1.6827   -3.4921 H   0  0  0  0  0  0  0  0  0  0  0  0
  1  2  2  0
  2  3  1  0
  3  4  2  0
  4  5  1  0
  5  6  2  0
  6  7  1  0
  7  8  2  0
  8  9  1  0
  9 10  2  0
 10 11  1  0
 11 12  1  0
 12 13  2  0
 13 14  1  0
 14 15  2  0
 15 16  1  0
 16 17  2  0
 11 18  2  0
 18 19  1  0
 19 20  1  0
 20 21  1  0
 21 22  1  0
 22 23  2  0
 23 24  1  0
 24 25  2  0
 25 26  1  0
 26 27  2  0
 19 28  2  0
  4 29  1  0
 29 30  2  0
 30  1  1  0
 28  5  1  0
 28  9  1  0
 17 12  1  0
 27 22  1  0
  1 31  1  0
  2 32  1  0
  3 33  1  0
  6 34  1  0
  7 35  1  0
  8 36  1  0
 13 37  1  0
 14 38  1  0
 15 39  1  0
 17 40  1  0
 20 41  1  0
 21 42  1  0
 21 43  1  0
 23 44  1  0
 24 45  1  0
 25 46  1  0
 26 47  1  0
 29 48  1  0
 30 49  1  0
M  END
$$$$
