@<TRIPOS>MOLECULE
*****
 117 125 0 0 0
SMALL
GASTEIGER

@<TRIPOS>ATOM
      1 C           7.7466    2.5489    2.4633 C.3     1  UNL1       -0.0626
      2 C           7.9729    1.6809    1.3140 C.3     1  UNL1       -0.0256
      3 C           6.9432    0.6900    0.9065 C.3     1  UNL1        0.0788
      4 O           7.5942    0.0876   -0.2239 O.3     1  UNL1       -0.3873
      5 C           5.6639    1.3362    0.3472 C.3     1  UNL1       -0.0188
      6 C           4.5785    1.5606    1.3010 C.3     1  UNL1       -0.0239
      7 C           4.7547    0.7877    2.6340 C.3     1  UNL1        0.0020
      8 N           5.3101   -0.4549    2.3194 N.3     1  UNL1       -0.2990
      9 C           4.5087   -1.5134    1.8552 C.3     1  UNL1        0.0031
     10 C           4.5136   -1.8573    0.4505 C.3     1  UNL1       -0.0126
     11 C           3.4958   -1.4195   -0.5303 C.ar    1  UNL1       -0.0165
     12 C           2.7830   -0.3509   -0.8020 C.ar    1  UNL1        0.0418
     13 N           1.9774   -0.6119   -1.9285 N.ar    1  UNL1       -0.3565
     14 C           2.1757   -1.8432   -2.3736 C.ar    1  UNL1        0.0470
     15 C           1.6242   -2.5472   -3.4322 C.ar    1  UNL1       -0.0378
     16 C           2.0046   -3.8284   -3.6791 C.ar    1  UNL1       -0.0598
     17 C           2.9388   -4.4058   -2.8654 C.ar    1  UNL1       -0.0611
     18 C           3.4685   -3.6854   -1.8236 C.ar    1  UNL1       -0.0523
     19 C           3.1047   -2.3773   -1.5406 C.ar    1  UNL1        0.0032
     20 C           2.5687    1.0467   -0.2884 C.3     1  UNL1        0.1360
     21 C           2.7949    2.0796   -1.3630 C.2     1  UNL1        0.3235
     22 O           3.7025    2.9337   -1.0885 O.2     1  UNL1       -0.2494
     23 O           2.0980    2.1262   -2.5512 O.3     1  UNL1       -0.4670
     24 C           2.4305    3.1668   -3.4656 C.3     1  UNL1        0.0817
     25 C           1.0636    1.2488    0.0100 C.ar    1  UNL1        0.0172
     26 C           0.2100    0.1722   -0.0005 C.ar    1  UNL1       -0.0481
     27 C          -1.1410    0.3224    0.3659 C.ar    1  UNL1       -0.0162
     28 C          -1.6164    1.5384    0.7370 C.ar    1  UNL1        0.0372
     29 C          -0.7652    2.6192    0.7481 C.ar    1  UNL1        0.0017
     30 C           0.5545    2.4502    0.3831 C.ar    1  UNL1        0.1265
     31 O           1.4301    3.5408    0.3770 O.3     1  UNL1       -0.4947
     32 C           0.9176    4.7945    0.7631 C.3     1  UNL1        0.0788
     33 N          -3.0432    1.4341    1.0857 N.pl3   1  UNL1       -0.3252
     34 C          -3.8447    2.6338    1.0731 C.3     1  UNL1        0.0011
     35 C          -3.2160    0.0554    1.3801 C.3     1  UNL1        0.0772
     36 C          -4.5579   -0.5583    1.2458 C.3     1  UNL1        0.2195
     37 O          -4.3453   -1.9631    1.0517 O.3     1  UNL1       -0.3733
     38 C          -5.4749   -0.4422    2.3400 C.2     1  UNL1        0.3446
     39 O          -5.9045    0.6327    2.7873 O.2     1  UNL1       -0.2474
     40 O          -5.9582   -1.5909    2.9940 O.3     1  UNL1       -0.4658
     41 C          -6.8684   -1.4610    4.0790 C.3     1  UNL1        0.0818
     42 C          -5.0933   -0.0994   -0.1259 C.3     1  UNL1        0.1542
     43 O          -6.4672   -0.4400   -0.2067 O.3     1  UNL1       -0.4570
     44 C          -7.4101    0.6071   -0.3078 C.2     1  UNL1        0.3043
     45 C          -8.8713    0.3383   -0.3963 C.3     1  UNL1        0.0332
     46 O          -7.0427    1.8096   -0.3263 O.2     1  UNL1       -0.2512
     47 C          -4.2903   -0.8512   -1.1267 C.3     1  UNL1        0.0453
     48 C          -4.5156   -0.1727   -2.4900 C.3     1  UNL1       -0.0418
     49 C          -5.9189   -0.1846   -2.9642 C.3     1  UNL1       -0.0643
     50 C          -4.9760   -2.1982   -1.2347 C.2     1  UNL1       -0.0755
     51 C          -4.3244   -3.1986   -1.7501 C.2     1  UNL1       -0.0733
     52 C          -2.9469   -2.9873   -2.2079 C.3     1  UNL1        0.0175
     53 N          -2.1848   -2.1433   -1.3303 N.3     1  UNL1       -0.2939
     54 C          -1.6703   -2.8209   -0.1884 C.3     1  UNL1        0.0005
     55 C          -1.6857   -1.9180    0.9954 C.3     1  UNL1       -0.0272
     56 C          -2.2646   -0.6459    0.4296 C.3     1  UNL1        0.0369
     57 C          -2.8292   -0.9341   -0.9030 C.3     1  UNL1        0.0348
     58 C           3.1713    1.3883    0.9757 C.3     1  UNL1       -0.0234
     59 C           6.6630   -0.4242    1.8448 C.3     1  UNL1        0.0278
     60 H           6.9655    3.3043    2.2515 H       1  UNL1        0.0231
     61 H           8.6815    3.1665    2.6183 H       1  UNL1        0.0231
     62 H           7.5654    2.0386    3.4301 H       1  UNL1        0.0231
     63 H           8.1453    2.3369    0.4097 H       1  UNL1        0.0291
     64 H           8.9658    1.1694    1.4424 H       1  UNL1        0.0291
     65 H           8.5350   -0.0885   -0.0065 H       1  UNL1        0.2102
     66 H           6.1072    2.2797   -0.1143 H       1  UNL1        0.0296
     67 H           5.3948    0.7285   -0.5306 H       1  UNL1        0.0296
     68 H           4.7809    2.6369    1.6483 H       1  UNL1        0.0314
     69 H           3.7594    0.6032    3.1211 H       1  UNL1        0.0429
     70 H           5.2823    1.3793    3.3989 H       1  UNL1        0.0429
     71 H           4.8552   -2.3973    2.5308 H       1  UNL1        0.0430
     72 H           3.4694   -1.3968    2.2890 H       1  UNL1        0.0430
     73 H           4.6575   -3.0073    0.4723 H       1  UNL1        0.0326
     74 H           5.5650   -1.6523   -0.0261 H       1  UNL1        0.0326
     75 H           1.2944    0.0318   -2.3867 H       1  UNL1        0.1656
     76 H           0.9000   -2.0632   -4.0413 H       1  UNL1        0.0638
     77 H           1.5646   -4.3963   -4.5257 H       1  UNL1        0.0618
     78 H           3.2618   -5.4101   -3.0292 H       1  UNL1        0.0618
     79 H           4.2113   -4.1610   -1.1841 H       1  UNL1        0.0624
     80 H           2.3960    4.1729   -2.9734 H       1  UNL1        0.0661
     81 H           1.6678    3.1871   -4.2739 H       1  UNL1        0.0661
     82 H           3.4668    3.0568   -3.8657 H       1  UNL1        0.0661
     83 H           0.5059   -0.8262   -0.2615 H       1  UNL1        0.0625
     84 H          -1.0935    3.5864    1.0305 H       1  UNL1        0.0673
     85 H           0.4978    4.7267    1.8072 H       1  UNL1        0.0660
     86 H           0.1222    5.1304    0.0594 H       1  UNL1        0.0660
     87 H           1.7667    5.5185    0.7478 H       1  UNL1        0.0660
     88 H          -3.8351    3.0596    0.0405 H       1  UNL1        0.0428
     89 H          -4.8200    2.5751    1.5048 H       1  UNL1        0.0428
     90 H          -3.2646    3.3571    1.7419 H       1  UNL1        0.0428
     91 H          -2.8049   -0.1882    2.4112 H       1  UNL1        0.0544
     92 H          -4.6256   -2.4412    1.8621 H       1  UNL1        0.2111
     93 H          -7.2125   -2.4372    4.4447 H       1  UNL1        0.0661
     94 H          -7.7477   -0.9167    3.6726 H       1  UNL1        0.0661
     95 H          -6.4479   -0.8169    4.8773 H       1  UNL1        0.0661
     96 H          -4.9206    0.9741   -0.2232 H       1  UNL1        0.0779
     97 H          -9.0225   -0.6422   -0.8917 H       1  UNL1        0.0342
     98 H          -9.3390    0.3618    0.6017 H       1  UNL1        0.0342
     99 H          -9.3305    1.1260   -1.0175 H       1  UNL1        0.0342
    100 H          -4.2474    0.9204   -2.3415 H       1  UNL1        0.0273
    101 H          -3.7821   -0.5107   -3.2439 H       1  UNL1        0.0273
    102 H          -5.8709   -0.4372   -4.0812 H       1  UNL1        0.0230
    103 H          -6.4360    0.7903   -2.9617 H       1  UNL1        0.0230
    104 H          -6.5768   -0.9515   -2.5246 H       1  UNL1        0.0230
    105 H          -5.9990   -2.3586   -0.8956 H       1  UNL1        0.0577
    106 H          -4.7645   -4.1889   -1.8560 H       1  UNL1        0.0582
    107 H          -2.4250   -3.9915   -2.1633 H       1  UNL1        0.0470
    108 H          -2.8932   -2.7197   -3.2797 H       1  UNL1        0.0470
    109 H          -2.1585   -3.8019    0.0056 H       1  UNL1        0.0427
    110 H          -0.5961   -3.0774   -0.4285 H       1  UNL1        0.0427
    111 H          -0.6465   -1.7564    1.3762 H       1  UNL1        0.0287
    112 H          -2.2357   -2.3595    1.8243 H       1  UNL1        0.0287
    113 H          -2.3688   -0.1452   -1.5999 H       1  UNL1        0.0482
    114 H           2.6577    2.3096    1.4265 H       1  UNL1        0.0286
    115 H           2.6479    0.6313    1.7069 H       1  UNL1        0.0286
    116 H           7.3219   -0.2807    2.7535 H       1  UNL1        0.0455
    117 H           6.9154   -1.4405    1.4773 H       1  UNL1        0.0455
@<TRIPOS>BOND
     1     1     2    1
     2     2     3    1
     3     3     4    1
     4     3     5    1
     5     5     6    1
     6     6     7    1
     7     7     8    1
     8     8     9    1
     9     9    10    1
    10    10    11    1
    11    11    12   ar
    12    12    13   ar
    13    13    14   ar
    14    14    15   ar
    15    15    16   ar
    16    16    17   ar
    17    17    18   ar
    18    18    19   ar
    19    12    20    1
    20    20    21    1
    21    21    22    2
    22    21    23    1
    23    23    24    1
    24    20    25    1
    25    25    26   ar
    26    26    27   ar
    27    27    28   ar
    28    28    29   ar
    29    29    30   ar
    30    30    31    1
    31    31    32    1
    32    28    33    1
    33    33    34    1
    34    33    35    1
    35    35    36    1
    36    36    37    1
    37    36    38    1
    38    38    39    2
    39    38    40    1
    40    40    41    1
    41    36    42    1
    42    42    43    1
    43    43    44    1
    44    44    45    1
    45    44    46    2
    46    42    47    1
    47    47    48    1
    48    48    49    1
    49    47    50    1
    50    50    51    2
    51    51    52    1
    52    52    53    1
    53    53    54    1
    54    54    55    1
    55    56    55    1
    56    56    57    1
    57    20    58    1
    58     8    59    1
    59    59     3    1
    60    58     6    1
    61    19    11   ar
    62    30    25   ar
    63    56    35    1
    64    19    14   ar
    65    56    27    1
    66    57    47    1
    67    57    53    1
    68     1    60    1
    69     1    61    1
    70     1    62    1
    71     2    63    1
    72     2    64    1
    73     4    65    1
    74     5    66    1
    75     5    67    1
    76     6    68    1
    77     7    69    1
    78     7    70    1
    79     9    71    1
    80     9    72    1
    81    10    73    1
    82    10    74    1
    83    13    75    1
    84    15    76    1
    85    16    77    1
    86    17    78    1
    87    18    79    1
    88    24    80    1
    89    24    81    1
    90    24    82    1
    91    26    83    1
    92    29    84    1
    93    32    85    1
    94    32    86    1
    95    32    87    1
    96    34    88    1
    97    34    89    1
    98    34    90    1
    99    35    91    1
   100    37    92    1
   101    41    93    1
   102    41    94    1
   103    41    95    1
   104    42    96    1
   105    45    97    1
   106    45    98    1
   107    45    99    1
   108    48   100    1
   109    48   101    1
   110    49   102    1
   111    49   103    1
   112    49   104    1
   113    50   105    1
   114    51   106    1
   115    52   107    1
   116    52   108    1
   117    54   109    1
   118    54   110    1
   119    55   111    1
   120    55   112    1
   121    57   113    1
   122    58   114    1
   123    58   115    1
   124    59   116    1
   125    59   117    1
