@<TRIPOS>MOLECULE
*****
 68 71 0 0 0
SMALL
GASTEIGER

@<TRIPOS>ATOM
      1 C           8.7532    2.4082   -0.0017 C.3     1  UNL1       -0.0345
      2 C           7.7694    1.3514   -0.3044 C.ar    1  UNL1        0.0175
      3 C           6.4886    1.4483    0.1789 C.ar    1  UNL1       -0.0259
      4 C           5.5809    0.4699   -0.1024 C.ar    1  UNL1        0.0918
      5 C           4.1903    0.4894    0.3713 C.ar    1  UNL1        0.0021
      6 C           3.3421   -0.5437    0.0376 C.ar    1  UNL1       -0.0522
      7 C           2.0193   -0.5797    0.4557 C.ar    1  UNL1       -0.0562
      8 C           1.5040    0.4238    1.2239 C.ar    1  UNL1       -0.0271
      9 C           0.1269    0.4577    1.6767 C.3     1  UNL1        0.0515
     10 C          -0.1743   -0.7652    2.5643 C.3     1  UNL1       -0.0421
     11 N          -0.8949    0.4348    0.6566 N.am    1  UNL1       -0.2605
     12 C          -0.9816   -0.5468   -0.4029 C.3     1  UNL1        0.0224
     13 C          -2.2419   -0.3941   -1.2197 C.3     1  UNL1        0.0076
     14 C          -3.4696   -0.0858   -0.3497 C.3     1  UNL1        0.1440
     15 C          -3.6283   -1.1836    0.6259 C.3     1  UNL1        0.0199
     16 C          -4.7362   -1.0974    1.6006 C.3     1  UNL1        0.0645
     17 C          -4.6575    0.1310    2.4866 C.3     1  UNL1       -0.0362
     18 C          -6.1248   -1.2069    1.0885 C.3     1  UNL1       -0.0362
     19 O          -4.5639   -2.1891    2.4977 O.3     1  UNL1       -0.3890
     20 C          -4.5816    0.0470   -1.3422 C.ar    1  UNL1       -0.0040
     21 C          -4.9477    1.2977   -1.7801 C.ar    1  UNL1       -0.0548
     22 C          -5.9448    1.4461   -2.7046 C.ar    1  UNL1       -0.0614
     23 C          -6.6265    0.3730   -3.2400 C.ar    1  UNL1       -0.0617
     24 C          -6.2284   -0.8719   -2.7733 C.ar    1  UNL1       -0.0614
     25 C          -5.2327   -1.0473   -1.8479 C.ar    1  UNL1       -0.0548
     26 O          -3.2235    1.1799    0.2071 O.3     1  UNL1       -0.4387
     27 C          -1.9348    1.4442    0.6413 C.2     1  UNL1        0.4042
     28 O          -1.6318    2.5920    1.0414 O.2     1  UNL1       -0.2262
     29 C           2.3531    1.4621    1.5608 C.ar    1  UNL1       -0.0562
     30 C           3.6828    1.4976    1.1405 C.ar    1  UNL1       -0.0522
     31 N           6.0025   -0.5584   -0.8551 N.ar    1  UNL1       -0.1685
     32 N           7.2052   -0.6987   -1.3383 N.ar    1  UNL1       -0.2318
     33 C           7.5925   -1.8324   -2.1423 C.3     1  UNL1        0.0340
     34 C           8.1288    0.2699   -1.0681 C.ar    1  UNL1        0.2699
     35 O           9.2897    0.1276   -1.5386 O.2     1  UNL1       -0.2659
     36 H           9.7814    2.0155    0.1097 H       1  UNL1        0.0279
     37 H           8.4441    2.8988    0.9419 H       1  UNL1        0.0279
     38 H           8.7462    3.1277   -0.8651 H       1  UNL1        0.0279
     39 H           6.2130    2.2969    0.7760 H       1  UNL1        0.0644
     40 H           3.7540   -1.3361   -0.5713 H       1  UNL1        0.0624
     41 H           1.4164   -1.4535    0.1549 H       1  UNL1        0.0621
     42 H          -0.0652    1.3311    2.3417 H       1  UNL1        0.0549
     43 H          -0.2447   -1.6868    1.9482 H       1  UNL1        0.0251
     44 H           0.6562   -0.8100    3.2922 H       1  UNL1        0.0251
     45 H          -1.1441   -0.5873    3.0445 H       1  UNL1        0.0251
     46 H          -0.9374   -1.5812   -0.0677 H       1  UNL1        0.0467
     47 H          -0.1503   -0.3057   -1.1254 H       1  UNL1        0.0467
     48 H          -2.4379   -1.3589   -1.7297 H       1  UNL1        0.0322
     49 H          -2.1130    0.3666   -2.0111 H       1  UNL1        0.0322
     50 H          -3.7160   -2.1334    0.0506 H       1  UNL1        0.0335
     51 H          -2.6773   -1.2425    1.2149 H       1  UNL1        0.0335
     52 H          -5.4915    0.0434    3.2168 H       1  UNL1        0.0257
     53 H          -4.8275    1.0574    1.9213 H       1  UNL1        0.0257
     54 H          -3.7232    0.1359    3.0857 H       1  UNL1        0.0257
     55 H          -6.5295   -0.3082    0.5883 H       1  UNL1        0.0257
     56 H          -6.3232   -2.1609    0.5472 H       1  UNL1        0.0257
     57 H          -6.7829   -1.3021    2.0150 H       1  UNL1        0.0257
     58 H          -3.6186   -2.3241    2.7061 H       1  UNL1        0.2101
     59 H          -4.4345    2.1396   -1.3799 H       1  UNL1        0.0622
     60 H          -6.2412    2.4460   -3.0580 H       1  UNL1        0.0618
     61 H          -7.4156    0.4874   -3.9713 H       1  UNL1        0.0618
     62 H          -6.7532   -1.7336   -3.1825 H       1  UNL1        0.0618
     63 H          -4.9800   -2.0484   -1.5348 H       1  UNL1        0.0622
     64 H           1.9720    2.2751    2.1718 H       1  UNL1        0.0621
     65 H           4.3097    2.3320    1.4297 H       1  UNL1        0.0624
     66 H           6.9438   -2.6868   -1.8743 H       1  UNL1        0.0474
     67 H           7.5167   -1.5698   -3.2248 H       1  UNL1        0.0474
     68 H           8.6486   -2.0749   -1.8839 H       1  UNL1        0.0474
@<TRIPOS>BOND
     1     1     2    1
     2     2     3   ar
     3     3     4   ar
     4     4     5    1
     5     5     6   ar
     6     6     7   ar
     7     7     8   ar
     8     8     9    1
     9     9    10    1
    10     9    11    1
    11    11    12    1
    12    12    13    1
    13    13    14    1
    14    14    15    1
    15    15    16    1
    16    16    17    1
    17    16    18    1
    18    16    19    1
    19    14    20    1
    20    20    21   ar
    21    21    22   ar
    22    22    23   ar
    23    23    24   ar
    24    24    25   ar
    25    14    26    1
    26    26    27    1
    27    27    28    2
    28     8    29   ar
    29    29    30   ar
    30     4    31   ar
    31    31    32   ar
    32    32    33    1
    33    32    34   ar
    34    34    35    2
    35    34     2   ar
    36    30     5   ar
    37    27    11   am
    38    25    20   ar
    39     1    36    1
    40     1    37    1
    41     1    38    1
    42     3    39    1
    43     6    40    1
    44     7    41    1
    45     9    42    1
    46    10    43    1
    47    10    44    1
    48    10    45    1
    49    12    46    1
    50    12    47    1
    51    13    48    1
    52    13    49    1
    53    15    50    1
    54    15    51    1
    55    17    52    1
    56    17    53    1
    57    17    54    1
    58    18    55    1
    59    18    56    1
    60    18    57    1
    61    19    58    1
    62    21    59    1
    63    22    60    1
    64    23    61    1
    65    24    62    1
    66    25    63    1
    67    29    64    1
    68    30    65    1
    69    33    66    1
    70    33    67    1
    71    33    68    1
