
     RDKit          3D

 68 71  0  0  0  0  0  0  0  0999 V2000
    8.7532    2.4082   -0.0017 C   0  0  0  0  0  0  0  0  0  0  0  0
    7.7694    1.3514   -0.3044 C   0  0  0  0  0  0  0  0  0  0  0  0
    6.4886    1.4483    0.1789 C   0  0  0  0  0  0  0  0  0  0  0  0
    5.5809    0.4699   -0.1024 C   0  0  0  0  0  0  0  0  0  0  0  0
    4.1903    0.4894    0.3713 C   0  0  0  0  0  0  0  0  0  0  0  0
    3.3421   -0.5437    0.0376 C   0  0  0  0  0  0  0  0  0  0  0  0
    2.0193   -0.5797    0.4557 C   0  0  0  0  0  0  0  0  0  0  0  0
    1.5040    0.4238    1.2239 C   0  0  0  0  0  0  0  0  0  0  0  0
    0.1269    0.4577    1.6767 C   0  0  2  0  0  0  0  0  0  0  0  0
   -0.1743   -0.7652    2.5643 C   0  0  0  0  0  0  0  0  0  0  0  0
   -0.8949    0.4348    0.6566 N   0  0  0  0  0  0  0  0  0  0  0  0
   -0.9816   -0.5468   -0.4029 C   0  0  0  0  0  0  0  0  0  0  0  0
   -2.2419   -0.3941   -1.2197 C   0  0  0  0  0  0  0  0  0  0  0  0
   -3.4696   -0.0858   -0.3497 C   0  0  2  0  0  0  0  0  0  0  0  0
   -3.6283   -1.1836    0.6259 C   0  0  0  0  0  0  0  0  0  0  0  0
   -4.7362   -1.0974    1.6006 C   0  0  0  0  0  0  0  0  0  0  0  0
   -4.6575    0.1310    2.4866 C   0  0  0  0  0  0  0  0  0  0  0  0
   -6.1248   -1.2069    1.0885 C   0  0  0  0  0  0  0  0  0  0  0  0
   -4.5639   -2.1891    2.4977 O   0  0  0  0  0  0  0  0  0  0  0  0
   -4.5816    0.0470   -1.3422 C   0  0  0  0  0  0  0  0  0  0  0  0
   -4.9477    1.2977   -1.7801 C   0  0  0  0  0  0  0  0  0  0  0  0
   -5.9448    1.4461   -2.7046 C   0  0  0  0  0  0  0  0  0  0  0  0
   -6.6265    0.3730   -3.2400 C   0  0  0  0  0  0  0  0  0  0  0  0
   -6.2284   -0.8719   -2.7733 C   0  0  0  0  0  0  0  0  0  0  0  0
   -5.2327   -1.0473   -1.8479 C   0  0  0  0  0  0  0  0  0  0  0  0
   -3.2235    1.1799    0.2071 O   0  0  0  0  0  0  0  0  0  0  0  0
   -1.9348    1.4442    0.6413 C   0  0  0  0  0  0  0  0  0  0  0  0
   -1.6318    2.5920    1.0414 O   0  0  0  0  0  0  0  0  0  0  0  0
    2.3531    1.4621    1.5608 C   0  0  0  0  0  0  0  0  0  0  0  0
    3.6828    1.4976    1.1405 C   0  0  0  0  0  0  0  0  0  0  0  0
    6.0025   -0.5584   -0.8551 N   0  0  0  0  0  0  0  0  0  0  0  0
    7.2052   -0.6987   -1.3383 N   0  0  0  0  0  0  0  0  0  0  0  0
    7.5925   -1.8324   -2.1423 C   0  0  0  0  0  0  0  0  0  0  0  0
    8.1288    0.2699   -1.0681 C   0  0  0  0  0  0  0  0  0  0  0  0
    9.2897    0.1276   -1.5386 O   0  0  0  0  0  0  0  0  0  0  0  0
    9.7814    2.0155    0.1097 H   0  0  0  0  0  0  0  0  0  0  0  0
    8.4441    2.8988    0.9419 H   0  0  0  0  0  0  0  0  0  0  0  0
    8.7462    3.1277   -0.8651 H   0  0  0  0  0  0  0  0  0  0  0  0
    6.2130    2.2969    0.7760 H   0  0  0  0  0  0  0  0  0  0  0  0
    3.7540   -1.3361   -0.5713 H   0  0  0  0  0  0  0  0  0  0  0  0
    1.4164   -1.4535    0.1549 H   0  0  0  0  0  0  0  0  0  0  0  0
   -0.0652    1.3311    2.3417 H   0  0  0  0  0  0  0  0  0  0  0  0
   -0.2447   -1.6868    1.9482 H   0  0  0  0  0  0  0  0  0  0  0  0
    0.6562   -0.8100    3.2922 H   0  0  0  0  0  0  0  0  0  0  0  0
   -1.1441   -0.5873    3.0445 H   0  0  0  0  0  0  0  0  0  0  0  0
   -0.9374   -1.5812   -0.0677 H   0  0  0  0  0  0  0  0  0  0  0  0
   -0.1503   -0.3057   -1.1254 H   0  0  0  0  0  0  0  0  0  0  0  0
   -2.4379   -1.3589   -1.7297 H   0  0  0  0  0  0  0  0  0  0  0  0
   -2.1130    0.3666   -2.0111 H   0  0  0  0  0  0  0  0  0  0  0  0
   -3.7160   -2.1334    0.0506 H   0  0  0  0  0  0  0  0  0  0  0  0
   -2.6773   -1.2425    1.2149 H   0  0  0  0  0  0  0  0  0  0  0  0
   -5.4915    0.0434    3.2168 H   0  0  0  0  0  0  0  0  0  0  0  0
   -4.8275    1.0574    1.9213 H   0  0  0  0  0  0  0  0  0  0  0  0
   -3.7232    0.1359    3.0857 H   0  0  0  0  0  0  0  0  0  0  0  0
   -6.5295   -0.3082    0.5883 H   0  0  0  0  0  0  0  0  0  0  0  0
   -6.3232   -2.1609    0.5472 H   0  0  0  0  0  0  0  0  0  0  0  0
   -6.7829   -1.3021    2.0150 H   0  0  0  0  0  0  0  0  0  0  0  0
   -3.6186   -2.3241    2.7061 H   0  0  0  0  0  0  0  0  0  0  0  0
   -4.4345    2.1396   -1.3799 H   0  0  0  0  0  0  0  0  0  0  0  0
   -6.2412    2.4460   -3.0580 H   0  0  0  0  0  0  0  0  0  0  0  0
   -7.4156    0.4874   -3.9713 H   0  0  0  0  0  0  0  0  0  0  0  0
   -6.7532   -1.7336   -3.1825 H   0  0  0  0  0  0  0  0  0  0  0  0
   -4.9800   -2.0484   -1.5348 H   0  0  0  0  0  0  0  0  0  0  0  0
    1.9720    2.2751    2.1718 H   0  0  0  0  0  0  0  0  0  0  0  0
    4.3097    2.3320    1.4297 H   0  0  0  0  0  0  0  0  0  0  0  0
    6.9438   -2.6868   -1.8743 H   0  0  0  0  0  0  0  0  0  0  0  0
    7.5167   -1.5698   -3.2248 H   0  0  0  0  0  0  0  0  0  0  0  0
    8.6486   -2.0749   -1.8839 H   0  0  0  0  0  0  0  0  0  0  0  0
  1  2  1  0
  2  3  2  0
  3  4  1  0
  4  5  1  0
  5  6  2  0
  6  7  1  0
  7  8  2  0
  8  9  1  0
  9 10  1  0
  9 11  1  0
 11 12  1  0
 12 13  1  0
 13 14  1  0
 14 15  1  1
 15 16  1  0
 16 17  1  0
 16 18  1  0
 16 19  1  0
 14 20  1  0
 20 21  2  0
 21 22  1  0
 22 23  2  0
 23 24  1  0
 24 25  2  0
 14 26  1  0
 26 27  1  0
 27 28  2  0
  8 29  1  0
 29 30  2  0
  4 31  2  0
 31 32  1  0
 32 33  1  0
 32 34  1  0
 34 35  2  0
 34  2  1  0
 30  5  1  0
 27 11  1  0
 25 20  1  0
  1 36  1  0
  1 37  1  0
  1 38  1  0
  3 39  1  0
  6 40  1  0
  7 41  1  0
  9 42  1  1
 10 43  1  0
 10 44  1  0
 10 45  1  0
 12 46  1  0
 12 47  1  0
 13 48  1  0
 13 49  1  0
 15 50  1  0
 15 51  1  0
 17 52  1  0
 17 53  1  0
 17 54  1  0
 18 55  1  0
 18 56  1  0
 18 57  1  0
 19 58  1  0
 21 59  1  0
 22 60  1  0
 23 61  1  0
 24 62  1  0
 25 63  1  0
 29 64  1  0
 30 65  1  0
 33 66  1  0
 33 67  1  0
 33 68  1  0
M  END
$$$$
