@<TRIPOS>MOLECULE
*****
 42 44 0 0 0
SMALL
GASTEIGER

@<TRIPOS>ATOM
      1 C           0.7275    0.0779    3.5796 C.3     1  UNL1        0.0329
      2 N           0.2252   -0.0345    2.1814 N.ar    1  UNL1       -0.2435
      3 N          -0.9840   -0.0610    1.9035 N.ar    1  UNL1       -0.1620
      4 C          -1.4911   -0.1592    0.6874 C.ar    1  UNL1        0.1318
      5 C          -2.7747   -0.2133    0.0654 C.ar    1  UNL1        0.0090
      6 C          -3.8698   -0.1525    0.8834 C.ar    1  UNL1       -0.0513
      7 C          -5.1403   -0.1987    0.3597 C.ar    1  UNL1       -0.0490
      8 C          -5.3663   -0.3072   -0.9982 C.ar    1  UNL1        0.0365
      9 C          -6.6992   -0.3574   -1.5679 C.2     1  UNL1        0.2415
     10 N          -7.8475   -0.2966   -0.7480 N.am    1  UNL1       -0.3253
     11 O          -6.8305   -0.4559   -2.8041 O.2     1  UNL1       -0.2704
     12 C          -4.2531   -0.3680   -1.8159 C.ar    1  UNL1       -0.0490
     13 C          -2.9846   -0.3209   -1.2824 C.ar    1  UNL1       -0.0513
     14 S           0.1363   -0.2244   -0.2113 S.2     1  UNL1       -0.0286
     15 C           1.1726   -0.1083    1.2060 C.ar    1  UNL1        0.1869
     16 N           2.3470   -0.1163    1.0502 N.2     1  UNL1       -0.2564
     17 C           3.1682   -0.2060   -0.1200 C.3     1  UNL1        0.0536
     18 C           2.9864    0.8733   -1.1237 C.3     1  UNL1       -0.0305
     19 C           3.8910    0.5979   -2.3027 C.3     1  UNL1       -0.0511
     20 C           5.1728   -0.0707   -1.9246 C.3     1  UNL1       -0.0529
     21 C           5.5704    0.4002   -0.5671 C.3     1  UNL1       -0.0511
     22 C           4.5781   -0.1115    0.4296 C.3     1  UNL1       -0.0305
     23 H          -0.0477    0.3935    4.2732 H       1  UNL1        0.0473
     24 H           1.2677   -0.8444    3.8648 H       1  UNL1        0.0473
     25 H           1.5053    0.8973    3.5899 H       1  UNL1        0.0473
     26 H          -3.7562   -0.0653    1.9781 H       1  UNL1        0.0624
     27 H          -5.9871   -0.1501    1.0126 H       1  UNL1        0.0625
     28 H          -8.7820   -0.6618   -1.0880 H       1  UNL1        0.1453
     29 H          -7.8595    0.1007    0.2246 H       1  UNL1        0.1453
     30 H          -4.4208   -0.4528   -2.8777 H       1  UNL1        0.0625
     31 H          -2.1565   -0.3725   -1.9711 H       1  UNL1        0.0624
     32 H           3.0273   -1.1903   -0.6284 H       1  UNL1        0.0545
     33 H           3.2942    1.8394   -0.6574 H       1  UNL1        0.0286
     34 H           1.9704    0.9282   -1.5567 H       1  UNL1        0.0286
     35 H           3.3888   -0.0659   -3.0607 H       1  UNL1        0.0266
     36 H           4.1339    1.5324   -2.8559 H       1  UNL1        0.0266
     37 H           5.0353   -1.1660   -1.8837 H       1  UNL1        0.0265
     38 H           5.9417    0.1944   -2.6971 H       1  UNL1        0.0265
     39 H           6.5590   -0.0369   -0.3104 H       1  UNL1        0.0266
     40 H           5.6996    1.5016   -0.5044 H       1  UNL1        0.0266
     41 H           4.6237    0.5591    1.3174 H       1  UNL1        0.0286
     42 H           4.8286   -1.1276    0.8141 H       1  UNL1        0.0286
@<TRIPOS>BOND
     1     1     2    1
     2     2     3   ar
     3     3     4   ar
     4     4     5    1
     5     5     6   ar
     6     6     7   ar
     7     7     8   ar
     8     8     9    1
     9     9    10   am
    10     9    11    2
    11     8    12   ar
    12    12    13   ar
    13     4    14   ar
    14    14    15   ar
    15    15    16    2
    16    16    17    1
    17    17    18    1
    18    18    19    1
    19    19    20    1
    20    20    21    1
    21    21    22    1
    22    15     2   ar
    23    22    17    1
    24    13     5   ar
    25     1    23    1
    26     1    24    1
    27     1    25    1
    28     6    26    1
    29     7    27    1
    30    10    28    1
    31    10    29    1
    32    12    30    1
    33    13    31    1
    34    17    32    1
    35    18    33    1
    36    18    34    1
    37    19    35    1
    38    19    36    1
    39    20    37    1
    40    20    38    1
    41    21    39    1
    42    21    40    1
    43    22    41    1
    44    22    42    1
