@<TRIPOS>MOLECULE
*****
 32 35 0 0 0
SMALL
GASTEIGER

@<TRIPOS>ATOM
      1 O          -1.0902    2.4892   -0.7157 O.2     1  UNL1       -0.2702
      2 C          -2.1110    1.7904   -0.5208 C.2     1  UNL1        0.2453
      3 N          -3.4658    2.2955   -0.6011 N.am    1  UNL1       -0.3072
      4 C          -4.3866    1.2364   -0.4098 C.3     1  UNL1        0.0379
      5 C          -3.5676    0.0663   -0.0568 C.ar    1  UNL1       -0.0176
      6 C          -3.9877   -1.1711    0.3313 C.ar    1  UNL1       -0.0563
      7 C          -3.0435   -2.1318    0.6090 C.ar    1  UNL1       -0.0608
      8 C          -1.7150   -1.8324    0.4899 C.ar    1  UNL1       -0.0519
      9 C          -1.2473   -0.5549    0.0862 C.ar    1  UNL1        0.0107
     10 C           0.1925   -0.3686    0.0308 C.ar    1  UNL1        0.0482
     11 C           1.0907   -1.1036    0.8408 C.ar    1  UNL1       -0.0285
     12 C           2.3664   -0.6760    0.6311 C.ar    1  UNL1        0.0037
     13 C           3.6254   -0.9988    1.1143 C.ar    1  UNL1       -0.0110
     14 C           4.7504   -0.3397    0.6691 C.ar    1  UNL1        0.1175
     15 O           6.0108   -0.6821    1.1707 O.3     1  UNL1       -0.5067
     16 C           4.6593    0.6590   -0.2685 C.ar    1  UNL1       -0.0182
     17 C           3.4092    0.9946   -0.7623 C.ar    1  UNL1       -0.0343
     18 C           2.2904    0.3233   -0.3050 C.ar    1  UNL1        0.0471
     19 N           0.9826    0.4644   -0.6278 N.ar    1  UNL1       -0.3541
     20 C          -2.2084    0.3833   -0.1795 C.ar    1  UNL1        0.0504
     21 H          -3.6891    3.2886   -0.7738 H       1  UNL1        0.1493
     22 H          -5.1404    1.4411    0.3794 H       1  UNL1        0.0512
     23 H          -4.9592    0.9781   -1.3500 H       1  UNL1        0.0512
     24 H          -5.0542   -1.4236    0.4288 H       1  UNL1        0.0621
     25 H          -3.3945   -3.1119    0.9186 H       1  UNL1        0.0618
     26 H          -0.9626   -2.5855    0.7066 H       1  UNL1        0.0624
     27 H           0.7718   -1.8753    1.5085 H       1  UNL1        0.0645
     28 H           3.7137   -1.7696    1.8406 H       1  UNL1        0.0661
     29 H           6.6424    0.0889    1.4003 H       1  UNL1        0.2921
     30 H           5.5344    1.1989   -0.6400 H       1  UNL1        0.0655
     31 H           3.2984    1.7873   -1.5120 H       1  UNL1        0.0639
     32 H           0.6846    1.1399   -1.3636 H       1  UNL1        0.1659
@<TRIPOS>BOND
     1     1     2    2
     2     2     3   am
     3     3     4    1
     4     4     5    1
     5     5     6   ar
     6     6     7   ar
     7     7     8   ar
     8     8     9   ar
     9     9    10    1
    10    10    11   ar
    11    11    12   ar
    12    12    13   ar
    13    13    14   ar
    14    14    15    1
    15    14    16   ar
    16    16    17   ar
    17    17    18   ar
    18    18    19   ar
    19     9    20   ar
    20    20     2    1
    21    20     5   ar
    22    19    10   ar
    23    18    12   ar
    24     3    21    1
    25     4    22    1
    26     4    23    1
    27     6    24    1
    28     7    25    1
    29     8    26    1
    30    11    27    1
    31    13    28    1
    32    15    29    1
    33    16    30    1
    34    17    31    1
    35    19    32    1
