@<TRIPOS>MOLECULE
*****
 59 63 0 0 0
SMALL
GASTEIGER

@<TRIPOS>ATOM
      1 C          -4.2622    1.7342    3.6991 C.3     1  UNL1        0.0788
      2 O          -5.0681    1.2411    2.6674 O.3     1  UNL1       -0.4948
      3 C          -4.5843    0.5738    1.5476 C.ar    1  UNL1        0.1238
      4 C          -3.2299    0.3721    1.4214 C.ar    1  UNL1       -0.0055
      5 C          -2.7648   -0.2899    0.3076 C.ar    1  UNL1        0.0674
      6 C          -1.3292   -0.4986    0.1830 C.2     1  UNL1        0.2492
      7 O          -0.8383   -1.5385    0.6588 O.2     1  UNL1       -0.2699
      8 N          -0.4925    0.4324   -0.4532 N.am    1  UNL1       -0.2897
      9 C          -1.1026    1.6345   -0.9973 C.3     1  UNL1        0.0388
     10 C          -0.0240    2.7089   -0.9824 C.3     1  UNL1        0.0635
     11 O           0.8256    2.5778    0.0868 O.3     1  UNL1       -0.3764
     12 C           1.5986    1.4488    0.0953 C.3     1  UNL1        0.0666
     13 C           0.9316    0.3126   -0.6268 C.3     1  UNL1        0.0537
     14 C           1.4979   -1.0280   -0.2233 C.3     1  UNL1       -0.0040
     15 C           2.9687   -0.9354   -0.4914 C.ar    1  UNL1       -0.0083
     16 C           3.8850   -0.7597    0.5216 C.ar    1  UNL1       -0.0286
     17 C           5.2437   -0.6707    0.2872 C.ar    1  UNL1        0.0866
     18 N           6.1839   -0.4881    1.3478 N.ar    1  UNL1       -0.1503
     19 N           7.1887   -1.2800    1.6118 N.ar    1  UNL1       -0.1556
     20 C           7.8693   -0.8107    2.6767 C.ar    1  UNL1        0.0697
     21 C           7.2334    0.3332    3.0757 C.ar    1  UNL1        0.0697
     22 N           6.2008    0.5070    2.2406 N.ar    1  UNL1       -0.1556
     23 C           5.7364   -0.7571   -0.9980 C.ar    1  UNL1       -0.0318
     24 C           4.8278   -0.9331   -2.0195 C.ar    1  UNL1       -0.0241
     25 C           3.4702   -1.0215   -1.7802 C.ar    1  UNL1        0.1267
     26 F           2.5735   -1.1954   -2.7899 F       1  UNL1       -0.2052
     27 C          -3.6231   -0.7530   -0.6798 C.ar    1  UNL1        0.0987
     28 N          -3.1080   -1.4375   -1.8264 N.ar    1  UNL1       -0.1496
     29 N          -3.2919   -1.0408   -3.0643 N.ar    1  UNL1       -0.1556
     30 C          -2.6933   -1.8786   -3.9298 C.ar    1  UNL1        0.0697
     31 C          -2.1028   -2.8568   -3.1508 C.ar    1  UNL1        0.0697
     32 N          -2.3974   -2.5230   -1.8758 N.ar    1  UNL1       -0.1556
     33 C          -4.9739   -0.5347   -0.5229 C.ar    1  UNL1       -0.0274
     34 C          -5.4704    0.1335    0.5966 C.ar    1  UNL1       -0.0067
     35 C          -6.9140    0.3673    0.7648 C.3     1  UNL1       -0.0362
     36 H          -3.4409    1.0785    4.0002 H       1  UNL1        0.0660
     37 H          -4.9067    1.8641    4.6102 H       1  UNL1        0.0660
     38 H          -3.8276    2.7288    3.3999 H       1  UNL1        0.0660
     39 H          -2.5308    0.7349    2.1999 H       1  UNL1        0.0662
     40 H          -1.9244    1.9893   -0.3572 H       1  UNL1        0.0487
     41 H          -1.3996    1.5125   -2.0643 H       1  UNL1        0.0487
     42 H          -0.5445    3.6832   -0.8855 H       1  UNL1        0.0575
     43 H           0.5094    2.7625   -1.9723 H       1  UNL1        0.0575
     44 H           2.6008    1.6995   -0.3517 H       1  UNL1        0.0578
     45 H           1.7896    1.1724    1.1693 H       1  UNL1        0.0578
     46 H           1.1760    0.4364   -1.7136 H       1  UNL1        0.0526
     47 H           1.4267   -1.1785    0.8943 H       1  UNL1        0.0333
     48 H           1.0072   -1.8303   -0.7713 H       1  UNL1        0.0333
     49 H           3.5222   -0.6891    1.5354 H       1  UNL1        0.0643
     50 H           8.7533   -1.2814    3.1078 H       1  UNL1        0.0864
     51 H           7.5556    0.9353    3.9147 H       1  UNL1        0.0864
     52 H           6.8078   -0.6843   -1.1563 H       1  UNL1        0.0640
     53 H           5.2112   -1.0012   -3.0273 H       1  UNL1        0.0647
     54 H          -2.6573   -1.8345   -4.9993 H       1  UNL1        0.0864
     55 H          -1.5338   -3.6962   -3.5094 H       1  UNL1        0.0864
     56 H          -5.6744   -0.8817   -1.2725 H       1  UNL1        0.0643
     57 H          -7.1004    0.8264    1.7513 H       1  UNL1        0.0279
     58 H          -7.4970   -0.5879    0.6919 H       1  UNL1        0.0279
     59 H          -7.2869    1.0954    0.0037 H       1  UNL1        0.0279
@<TRIPOS>BOND
     1     1     2    1
     2     2     3    1
     3     3     4   ar
     4     4     5   ar
     5     5     6    1
     6     6     7    2
     7     6     8   am
     8     8     9    1
     9     9    10    1
    10    10    11    1
    11    11    12    1
    12    12    13    1
    13    13    14    1
    14    14    15    1
    15    15    16   ar
    16    16    17   ar
    17    17    18    1
    18    18    19   ar
    19    19    20   ar
    20    20    21   ar
    21    21    22   ar
    22    17    23   ar
    23    23    24   ar
    24    24    25   ar
    25    25    26    1
    26     5    27   ar
    27    27    28    1
    28    28    29   ar
    29    29    30   ar
    30    30    31   ar
    31    31    32   ar
    32    27    33   ar
    33    33    34   ar
    34    34    35    1
    35    34     3   ar
    36    13     8    1
    37    25    15   ar
    38    32    28   ar
    39    22    18   ar
    40     1    36    1
    41     1    37    1
    42     1    38    1
    43     4    39    1
    44     9    40    1
    45     9    41    1
    46    10    42    1
    47    10    43    1
    48    12    44    1
    49    12    45    1
    50    13    46    1
    51    14    47    1
    52    14    48    1
    53    16    49    1
    54    20    50    1
    55    21    51    1
    56    23    52    1
    57    24    53    1
    58    30    54    1
    59    31    55    1
    60    33    56    1
    61    35    57    1
    62    35    58    1
    63    35    59    1
