@<TRIPOS>MOLECULE
*****
 37 38 0 0 0
SMALL
GASTEIGER

@<TRIPOS>ATOM
      1 C          -5.9093    0.5926    0.2305 C.3     1  UNL1       -0.0653
      2 C          -4.5945   -0.1420    0.4306 C.3     1  UNL1       -0.0559
      3 C          -4.0514   -0.5042   -0.9317 C.3     1  UNL1       -0.0532
      4 C          -2.7462   -1.2380   -0.8405 C.3     1  UNL1       -0.0500
      5 C          -1.6857   -0.4276   -0.1396 C.3     1  UNL1       -0.0186
      6 C          -1.4328    0.8491   -0.8882 C.3     1  UNL1        0.0912
      7 O          -0.4501    1.5883   -0.2307 O.3     1  UNL1       -0.4764
      8 C           0.8362    1.1075   -0.0700 C.ar    1  UNL1        0.2148
      9 C           1.7917    1.8853    0.6073 C.ar    1  UNL1        0.0019
     10 C           3.0727    1.4169    0.7700 C.ar    1  UNL1       -0.0313
     11 C           3.4780    0.1905    0.2898 C.ar    1  UNL1        0.0658
     12 N           4.7891   -0.3028    0.4495 N.ar    1  UNL1       -0.3044
     13 C           5.5910   -0.9355   -0.4245 C.ar    1  UNL1        0.0293
     14 C           6.8068   -1.2498    0.1440 C.ar    1  UNL1        0.0458
     15 N           6.7273   -0.7851    1.4108 N.ar    1  UNL1       -0.2437
     16 C           5.5311   -0.2240    1.5909 C.ar    1  UNL1        0.1004
     17 C           2.5063   -0.5338   -0.3661 C.ar    1  UNL1        0.0552
     18 N           1.2552   -0.0781   -0.5259 N.ar    1  UNL1       -0.2193
     19 H          -6.0213    1.3993    0.9771 H       1  UNL1        0.0230
     20 H          -5.9404    1.0021   -0.7942 H       1  UNL1        0.0230
     21 H          -6.7795   -0.0785    0.3485 H       1  UNL1        0.0230
     22 H          -4.7817   -1.0778    0.9916 H       1  UNL1        0.0263
     23 H          -3.9308    0.5474    0.9750 H       1  UNL1        0.0263
     24 H          -3.9806    0.3933   -1.5683 H       1  UNL1        0.0265
     25 H          -4.8282   -1.1675   -1.4279 H       1  UNL1        0.0265
     26 H          -2.9054   -2.1993   -0.2805 H       1  UNL1        0.0266
     27 H          -2.3739   -1.4978   -1.8442 H       1  UNL1        0.0266
     28 H          -0.7707   -1.0231   -0.0950 H       1  UNL1        0.0298
     29 H          -2.0362   -0.2128    0.9164 H       1  UNL1        0.0298
     30 H          -0.9984    0.5937   -1.9017 H       1  UNL1        0.0697
     31 H          -2.3638    1.4340   -1.0588 H       1  UNL1        0.0697
     32 H           1.4483    2.8462    0.9756 H       1  UNL1        0.0671
     33 H           3.8065    2.0250    1.2955 H       1  UNL1        0.0640
     34 H           5.3039   -1.1595   -1.4342 H       1  UNL1        0.0829
     35 H           7.6609   -1.7599   -0.3062 H       1  UNL1        0.0845
     36 H           5.1867    0.2306    2.5032 H       1  UNL1        0.1032
     37 H           2.7893   -1.5046   -0.7579 H       1  UNL1        0.0852
@<TRIPOS>BOND
     1     1     2    1
     2     2     3    1
     3     3     4    1
     4     4     5    1
     5     5     6    1
     6     6     7    1
     7     7     8    1
     8     8     9   ar
     9     9    10   ar
    10    10    11   ar
    11    11    12    1
    12    12    13   ar
    13    13    14   ar
    14    14    15   ar
    15    15    16   ar
    16    11    17   ar
    17    17    18   ar
    18    18     8   ar
    19    16    12   ar
    20     1    19    1
    21     1    20    1
    22     1    21    1
    23     2    22    1
    24     2    23    1
    25     3    24    1
    26     3    25    1
    27     4    26    1
    28     4    27    1
    29     5    28    1
    30     5    29    1
    31     6    30    1
    32     6    31    1
    33     9    32    1
    34    10    33    1
    35    13    34    1
    36    14    35    1
    37    16    36    1
    38    17    37    1
