@<TRIPOS>MOLECULE
*****
 60 61 0 0 0
SMALL
GASTEIGER

@<TRIPOS>ATOM
      1 C          -5.6425   -2.0042   -0.2496 C.3     1  UNL1        0.0108
      2 C          -5.2827   -0.5685    0.1574 C.3     1  UNL1        0.2648
      3 C          -4.2196   -0.7083    1.2328 C.3     1  UNL1        0.0108
      4 N          -6.4877    0.0023    0.7075 N.2     1  UNL1       -0.0662
      5 C          -7.0938    1.0358    0.2894 C.cat   1  UNL1        0.4202
      6 N          -8.2697    1.4684    0.9424 N.pl3   1  UNL1       -0.2468
      7 N          -6.5961    1.7531   -0.8271 N.2     1  UNL1       -0.0050
      8 C          -5.5204    1.3213   -1.3927 C.2     1  UNL1        0.4149
      9 N          -4.9606    2.0080   -2.5362 N.pl3   1  UNL1       -0.2472
     10 N          -4.7936    0.1750   -0.9805 N.3     1  UNL1       -0.0841
     11 O          -3.6728   -0.2388   -1.6112 O.3     1  UNL1       -0.2128
     12 C          -2.5888    0.5713   -1.3774 C.3     1  UNL1        0.0932
     13 C          -1.4220   -0.0386   -2.1836 C.3     1  UNL1        0.0086
     14 C          -1.2588   -1.4307   -1.6244 C.3     1  UNL1        0.0918
     15 O          -0.9618   -1.5141   -0.2834 O.3     1  UNL1       -0.4919
     16 C           0.1692   -1.0873    0.3392 C.ar    1  UNL1        0.1212
     17 C           0.2182   -1.2459    1.7405 C.ar    1  UNL1       -0.0199
     18 C           1.3377   -0.8306    2.3953 C.ar    1  UNL1       -0.0576
     19 C           2.4119   -0.2632    1.7125 C.ar    1  UNL1       -0.0507
     20 C           2.4041   -0.0968    0.3646 C.ar    1  UNL1        0.0251
     21 C           3.4638    0.3940   -0.4770 C.2     1  UNL1        0.1862
     22 O           3.1329    0.8054   -1.6772 O.2     1  UNL1       -0.2873
     23 C           4.8538    0.5032   -0.2056 C.2     1  UNL1       -0.0138
     24 C           5.5554    0.1326    0.8331 C.2     1  UNL1       -0.0510
     25 C           7.0014    0.3383    0.9359 C.ar    1  UNL1       -0.0249
     26 C           7.7354    0.9278   -0.0376 C.ar    1  UNL1       -0.0546
     27 C           9.1139    1.0807    0.1537 C.ar    1  UNL1       -0.0612
     28 C           9.7534    0.6582    1.2868 C.ar    1  UNL1       -0.0617
     29 C           8.9674    0.0616    2.2558 C.ar    1  UNL1       -0.0612
     30 C           7.6171   -0.1070    2.1084 C.ar    1  UNL1       -0.0546
     31 C           1.2234   -0.5373   -0.3003 C.ar    1  UNL1       -0.0091
     32 CL          0.6911    0.0000    0.0000 Cl      2  UNL2       -0.1454
     33 H          -4.7203   -2.6305   -0.1910 H       1  UNL1        0.0301
     34 H          -6.4510   -2.3728    0.3982 H       1  UNL1        0.0301
     35 H          -5.9371   -1.9407   -1.3244 H       1  UNL1        0.0301
     36 H          -3.8489    0.2896    1.5006 H       1  UNL1        0.0301
     37 H          -4.7410   -1.1848    2.1078 H       1  UNL1        0.0301
     38 H          -3.4529   -1.3936    0.8719 H       1  UNL1        0.0301
     39 H          -8.2781    2.4264    1.3543 H       1  UNL1        0.2415
     40 H          -9.1347    0.8933    1.0419 H       1  UNL1        0.2415
     41 H          -4.8584    1.4815   -3.4307 H       1  UNL1        0.2414
     42 H          -4.6671    2.9936   -2.4775 H       1  UNL1        0.2414
     43 H          -2.2877    0.4502   -0.3155 H       1  UNL1        0.0600
     44 H          -2.7420    1.6251   -1.6442 H       1  UNL1        0.0600
     45 H          -0.5672    0.6021   -2.1929 H       1  UNL1        0.0321
     46 H          -1.8642   -0.1959   -3.2186 H       1  UNL1        0.0321
     47 H          -2.1977   -2.0235   -1.7872 H       1  UNL1        0.0697
     48 H          -0.4935   -1.9808   -2.2608 H       1  UNL1        0.0697
     49 H          -0.6255   -1.6870    2.2430 H       1  UNL1        0.0654
     50 H           1.4282   -0.9297    3.4792 H       1  UNL1        0.0619
     51 H           3.2593    0.1053    2.2950 H       1  UNL1        0.0625
     52 H           5.4748    0.9881   -1.0038 H       1  UNL1        0.0656
     53 H           5.0597   -0.3863    1.6330 H       1  UNL1        0.0625
     54 H           7.3086    1.2989   -0.9826 H       1  UNL1        0.0623
     55 H           9.6885    1.5589   -0.6439 H       1  UNL1        0.0618
     56 H          10.8085    0.7648    1.4552 H       1  UNL1        0.0618
     57 H           9.4201   -0.2951    3.1799 H       1  UNL1        0.0618
     58 H           7.0193   -0.5850    2.8971 H       1  UNL1        0.0623
     59 H           1.2121   -0.4382   -1.3912 H       1  UNL1        0.0661
     60 H          -0.6911    0.0000    0.0000 H       1  UNL1        0.1454
@<TRIPOS>BOND
     1     1     2    1
     2     2     3    1
     3     2     4    1
     4     4     5    2
     5     5     6    1
     6     5     7    1
     7     7     8    2
     8     8     9    1
     9     8    10    1
    10    10    11    1
    11    11    12    1
    12    12    13    1
    13    13    14    1
    14    14    15    1
    15    15    16    1
    16    16    17   ar
    17    17    18   ar
    18    18    19   ar
    19    19    20   ar
    20    20    21    1
    21    21    22    2
    22    21    23    1
    23    23    24    2
    24    24    25    1
    25    25    26   ar
    26    26    27   ar
    27    27    28   ar
    28    28    29   ar
    29    29    30   ar
    30    20    31   ar
    31    10     2    1
    32    31    16   ar
    33    30    25   ar
    34     1    33    1
    35     1    34    1
    36     1    35    1
    37     3    36    1
    38     3    37    1
    39     3    38    1
    40     6    39    1
    41     6    40    1
    42     9    41    1
    43     9    42    1
    44    12    43    1
    45    12    44    1
    46    13    45    1
    47    13    46    1
    48    14    47    1
    49    14    48    1
    50    17    49    1
    51    18    50    1
    52    19    51    1
    53    23    52    1
    54    24    53    1
    55    26    54    1
    56    27    55    1
    57    28    56    1
    58    29    57    1
    59    30    58    1
    60    31    59    1
    61    32    60    1
