@<TRIPOS>MOLECULE
*****
 43 46 0 0 0
SMALL
GASTEIGER

@<TRIPOS>ATOM
      1 C          -3.0758    2.2880    0.7050 C.3     1  UNL1       -0.0443
      2 C          -2.9780    1.1402   -0.2876 C.3     1  UNL1        0.0454
      3 C          -4.2898    1.1306   -1.0842 C.3     1  UNL1        0.0660
      4 O          -5.3097    0.9426   -0.1559 O.3     1  UNL1       -0.3764
      5 C          -5.3144   -0.4405    0.1435 C.3     1  UNL1        0.0634
      6 C          -4.0866   -0.7006    0.9606 C.3     1  UNL1        0.0373
      7 N          -2.8944   -0.1145    0.4048 N.pl3   1  UNL1       -0.3079
      8 C          -1.6373   -0.7610    0.5306 C.ar    1  UNL1        0.1273
      9 C          -0.4315   -0.1938    0.1588 C.ar    1  UNL1        0.0045
     10 C           0.7204   -0.9127    0.3194 C.ar    1  UNL1        0.0779
     11 C           2.0317   -0.3815   -0.0503 C.ar    1  UNL1        0.0027
     12 C           3.1478   -1.1736    0.1443 C.ar    1  UNL1       -0.0518
     13 C           4.4081   -0.7468   -0.1767 C.ar    1  UNL1       -0.0486
     14 C           4.5941    0.4953   -0.7065 C.ar    1  UNL1        0.0410
     15 C           5.7300    1.1884   -1.1219 C.ar    1  UNL1        0.1193
     16 N           7.0548    0.6649   -1.0615 N.pl3   1  UNL1       -0.3430
     17 N           5.2837    2.3680   -1.5528 N.ar    1  UNL1       -0.2634
     18 N           3.9705    2.4418   -1.4305 N.ar    1  UNL1       -0.1722
     19 C           3.4840    1.2900   -0.9028 C.ar    1  UNL1        0.0950
     20 C           2.2093    0.8692   -0.5826 C.ar    1  UNL1       -0.0247
     21 N           0.6371   -2.1508    0.8357 N.ar    1  UNL1       -0.2146
     22 C          -0.5187   -2.7036    1.1960 C.ar    1  UNL1        0.2148
     23 N          -0.5243   -4.0152    1.7336 N.pl3   1  UNL1       -0.3274
     24 N          -1.6495   -2.0248    1.0494 N.ar    1  UNL1       -0.1997
     25 H          -2.4835    2.0596    1.6015 H       1  UNL1        0.0248
     26 H          -2.7186    3.2402    0.2672 H       1  UNL1        0.0248
     27 H          -4.1423    2.3825    1.0510 H       1  UNL1        0.0248
     28 H          -2.1741    1.3226   -1.0198 H       1  UNL1        0.0520
     29 H          -4.2608    0.2206   -1.7479 H       1  UNL1        0.0578
     30 H          -4.4124    2.0500   -1.6770 H       1  UNL1        0.0578
     31 H          -5.3095   -1.0147   -0.7916 H       1  UNL1        0.0575
     32 H          -6.2148   -0.6063    0.7690 H       1  UNL1        0.0575
     33 H          -4.2302   -0.2148    1.9661 H       1  UNL1        0.0487
     34 H          -3.9160   -1.7927    1.1268 H       1  UNL1        0.0487
     35 H          -0.4211    0.8089   -0.2483 H       1  UNL1        0.0673
     36 H           3.0522   -2.1850    0.5692 H       1  UNL1        0.0624
     37 H           5.2930   -1.3769   -0.0216 H       1  UNL1        0.0625
     38 H           7.7874    1.1412   -0.5118 H       1  UNL1        0.1437
     39 H           7.3447   -0.2119   -1.5622 H       1  UNL1        0.1437
     40 H           5.9208    3.1235   -1.9358 H       1  UNL1        0.1903
     41 H           1.3760    1.5139   -0.7497 H       1  UNL1        0.0646
     42 H          -0.4974   -4.1397    2.7564 H       1  UNL1        0.1452
     43 H          -0.5551   -4.8205    1.0901 H       1  UNL1        0.1452
@<TRIPOS>BOND
     1     1     2    1
     2     2     3    1
     3     3     4    1
     4     4     5    1
     5     5     6    1
     6     6     7    1
     7     7     8    1
     8     8     9   ar
     9     9    10   ar
    10    10    11    1
    11    11    12   ar
    12    12    13   ar
    13    13    14   ar
    14    14    15   ar
    15    15    16    1
    16    15    17   ar
    17    17    18   ar
    18    18    19   ar
    19    19    20   ar
    20    10    21   ar
    21    21    22   ar
    22    22    23    1
    23    22    24   ar
    24     7     2    1
    25    24     8   ar
    26    20    11   ar
    27    19    14   ar
    28     1    25    1
    29     1    26    1
    30     1    27    1
    31     2    28    1
    32     3    29    1
    33     3    30    1
    34     5    31    1
    35     5    32    1
    36     6    33    1
    37     6    34    1
    38     9    35    1
    39    12    36    1
    40    13    37    1
    41    16    38    1
    42    16    39    1
    43    17    40    1
    44    20    41    1
    45    23    42    1
    46    23    43    1
