
     RDKit          3D

 43 46  0  0  0  0  0  0  0  0999 V2000
   -3.0758    2.2880    0.7050 C   0  0  0  0  0  0  0  0  0  0  0  0
   -2.9780    1.1402   -0.2876 C   0  0  2  0  0  0  0  0  0  0  0  0
   -4.2898    1.1306   -1.0842 C   0  0  0  0  0  0  0  0  0  0  0  0
   -5.3097    0.9426   -0.1559 O   0  0  0  0  0  0  0  0  0  0  0  0
   -5.3144   -0.4405    0.1435 C   0  0  0  0  0  0  0  0  0  0  0  0
   -4.0866   -0.7006    0.9606 C   0  0  0  0  0  0  0  0  0  0  0  0
   -2.8944   -0.1145    0.4048 N   0  0  0  0  0  0  0  0  0  0  0  0
   -1.6373   -0.7610    0.5306 C   0  0  0  0  0  0  0  0  0  0  0  0
   -0.4315   -0.1938    0.1588 C   0  0  0  0  0  0  0  0  0  0  0  0
    0.7204   -0.9127    0.3194 C   0  0  0  0  0  0  0  0  0  0  0  0
    2.0317   -0.3815   -0.0503 C   0  0  0  0  0  0  0  0  0  0  0  0
    3.1478   -1.1736    0.1443 C   0  0  0  0  0  0  0  0  0  0  0  0
    4.4081   -0.7468   -0.1767 C   0  0  0  0  0  0  0  0  0  0  0  0
    4.5941    0.4953   -0.7065 C   0  0  0  0  0  0  0  0  0  0  0  0
    5.7300    1.1884   -1.1219 C   0  0  0  0  0  0  0  0  0  0  0  0
    7.0548    0.6649   -1.0615 N   0  0  0  0  0  0  0  0  0  0  0  0
    5.2837    2.3680   -1.5528 N   0  0  0  0  0  0  0  0  0  0  0  0
    3.9705    2.4418   -1.4305 N   0  0  0  0  0  0  0  0  0  0  0  0
    3.4840    1.2900   -0.9028 C   0  0  0  0  0  0  0  0  0  0  0  0
    2.2093    0.8692   -0.5826 C   0  0  0  0  0  0  0  0  0  0  0  0
    0.6371   -2.1508    0.8357 N   0  0  0  0  0  0  0  0  0  0  0  0
   -0.5187   -2.7036    1.1960 C   0  0  0  0  0  0  0  0  0  0  0  0
   -0.5243   -4.0152    1.7336 N   0  0  0  0  0  0  0  0  0  0  0  0
   -1.6495   -2.0248    1.0494 N   0  0  0  0  0  0  0  0  0  0  0  0
   -2.4835    2.0596    1.6015 H   0  0  0  0  0  0  0  0  0  0  0  0
   -2.7186    3.2402    0.2672 H   0  0  0  0  0  0  0  0  0  0  0  0
   -4.1423    2.3825    1.0510 H   0  0  0  0  0  0  0  0  0  0  0  0
   -2.1741    1.3226   -1.0198 H   0  0  0  0  0  0  0  0  0  0  0  0
   -4.2608    0.2206   -1.7479 H   0  0  0  0  0  0  0  0  0  0  0  0
   -4.4124    2.0500   -1.6770 H   0  0  0  0  0  0  0  0  0  0  0  0
   -5.3095   -1.0147   -0.7916 H   0  0  0  0  0  0  0  0  0  0  0  0
   -6.2148   -0.6063    0.7690 H   0  0  0  0  0  0  0  0  0  0  0  0
   -4.2302   -0.2148    1.9661 H   0  0  0  0  0  0  0  0  0  0  0  0
   -3.9160   -1.7927    1.1268 H   0  0  0  0  0  0  0  0  0  0  0  0
   -0.4211    0.8089   -0.2483 H   0  0  0  0  0  0  0  0  0  0  0  0
    3.0522   -2.1850    0.5692 H   0  0  0  0  0  0  0  0  0  0  0  0
    5.2930   -1.3769   -0.0216 H   0  0  0  0  0  0  0  0  0  0  0  0
    7.7874    1.1412   -0.5118 H   0  0  0  0  0  0  0  0  0  0  0  0
    7.3447   -0.2119   -1.5622 H   0  0  0  0  0  0  0  0  0  0  0  0
    5.9208    3.1235   -1.9358 H   0  0  0  0  0  0  0  0  0  0  0  0
    1.3760    1.5139   -0.7497 H   0  0  0  0  0  0  0  0  0  0  0  0
   -0.4974   -4.1397    2.7564 H   0  0  0  0  0  0  0  0  0  0  0  0
   -0.5551   -4.8205    1.0901 H   0  0  0  0  0  0  0  0  0  0  0  0
  1  2  1  0
  2  3  1  0
  3  4  1  0
  4  5  1  0
  5  6  1  0
  6  7  1  0
  7  8  1  0
  8  9  2  0
  9 10  1  0
 10 11  1  0
 11 12  1  0
 12 13  2  0
 13 14  1  0
 14 15  2  0
 15 16  1  0
 15 17  1  0
 17 18  1  0
 18 19  2  0
 19 20  1  0
 10 21  2  0
 21 22  1  0
 22 23  1  0
 22 24  2  0
  7  2  1  0
 24  8  1  0
 20 11  2  0
 19 14  1  0
  1 25  1  0
  1 26  1  0
  1 27  1  0
  2 28  1  6
  3 29  1  0
  3 30  1  0
  5 31  1  0
  5 32  1  0
  6 33  1  0
  6 34  1  0
  9 35  1  0
 12 36  1  0
 13 37  1  0
 16 38  1  0
 16 39  1  0
 17 40  1  0
 20 41  1  0
 23 42  1  0
 23 43  1  0
M  END
$$$$
