@<TRIPOS>MOLECULE
*****
 53 56 0 0 0
SMALL
GASTEIGER

@<TRIPOS>ATOM
      1 C          -6.4959   -1.2497    1.0833 C.3     1  UNL1        0.0790
      2 O          -5.3021   -1.7871    1.5583 O.3     1  UNL1       -0.4899
      3 C          -4.1432   -1.0271    1.7817 C.ar    1  UNL1        0.1814
      4 C          -4.1279    0.3352    1.5323 C.ar    1  UNL1       -0.0129
      5 C          -3.0088    1.1083    1.7420 C.ar    1  UNL1       -0.0351
      6 C          -1.8696    0.4539    2.2234 C.ar    1  UNL1        0.0624
      7 C          -0.6886    1.2998    2.4570 C.3     1  UNL1        0.0544
      8 N           0.0625    1.4013    1.2111 N.am    1  UNL1       -0.3057
      9 C           0.9655    0.3965    0.7714 C.2     1  UNL1        0.2465
     10 O           1.1431   -0.6434    1.4754 O.2     1  UNL1       -0.2701
     11 C           1.6845    0.5796   -0.4935 C.ar    1  UNL1        0.0647
     12 C           1.9180    1.8677   -0.9722 C.ar    1  UNL1       -0.0383
     13 C           2.6221    2.1139   -2.1262 C.ar    1  UNL1        0.0025
     14 C           2.7723    3.5118   -2.5536 C.ar    1  UNL1        0.0031
     15 C           1.7340    4.4177   -2.2896 C.ar    1  UNL1        0.0354
     16 N           1.8313    5.7078   -2.6492 N.ar    1  UNL1       -0.2612
     17 C           2.8833    6.2162   -3.2655 C.ar    1  UNL1        0.0459
     18 C           3.9334    5.3555   -3.5467 C.ar    1  UNL1        0.0596
     19 CL          5.3574    6.0062   -4.3622 Cl      1  UNL1       -0.0820
     20 C           3.8707    4.0184   -3.1910 C.ar    1  UNL1       -0.0327
     21 C           3.1145    1.0408   -2.8292 C.ar    1  UNL1        0.0361
     22 N           2.8850   -0.1893   -2.3628 N.ar    1  UNL1       -0.2521
     23 C           2.1869   -0.4598   -1.2217 C.ar    1  UNL1        0.1012
     24 C           1.9974   -1.8430   -0.8056 C.ar    1  UNL1        0.0898
     25 C           0.7761   -2.3949   -0.5159 C.ar    1  UNL1       -0.0342
     26 C           0.6475   -3.7086   -0.1162 C.ar    1  UNL1       -0.0583
     27 C           1.7507   -4.5227    0.0080 C.ar    1  UNL1       -0.0436
     28 C           2.9662   -3.9466   -0.2881 C.ar    1  UNL1        0.0283
     29 N           3.0909   -2.6533   -0.6811 N.ar    1  UNL1       -0.2534
     30 N          -1.9104   -0.8501    2.4531 N.ar    1  UNL1       -0.2132
     31 C          -2.9948   -1.6135    2.2533 C.ar    1  UNL1        0.2579
     32 O          -2.9172   -2.9630    2.5302 O.3     1  UNL1       -0.4772
     33 C          -1.7691   -3.6143    3.0130 C.3     1  UNL1        0.0805
     34 H          -7.3489   -1.9514    1.2826 H       1  UNL1        0.0660
     35 H          -6.7332   -0.2263    1.4419 H       1  UNL1        0.0660
     36 H          -6.4186   -1.1801   -0.0282 H       1  UNL1        0.0660
     37 H          -5.0461    0.8236    1.1476 H       1  UNL1        0.0656
     38 H          -3.0160    2.1656    1.5413 H       1  UNL1        0.0637
     39 H          -0.9113    2.2999    2.8709 H       1  UNL1        0.0527
     40 H           0.0135    0.7688    3.1643 H       1  UNL1        0.0527
     41 H          -0.0620    2.2392    0.5949 H       1  UNL1        0.1494
     42 H           1.5267    2.7092   -0.3923 H       1  UNL1        0.0632
     43 H           0.8509    4.0312   -1.7876 H       1  UNL1        0.0836
     44 H           2.9826    7.2590   -3.5701 H       1  UNL1        0.0844
     45 H           4.7062    3.3496   -3.4139 H       1  UNL1        0.0639
     46 H           3.6727    1.2335   -3.7441 H       1  UNL1        0.0836
     47 H          -0.1197   -1.8050   -0.6079 H       1  UNL1        0.0639
     48 H          -0.3157   -4.1418    0.1096 H       1  UNL1        0.0619
     49 H           1.7059   -5.5561    0.3111 H       1  UNL1        0.0633
     50 H           3.8494   -4.5843   -0.1907 H       1  UNL1        0.0830
     51 H          -1.9611   -4.0962    3.9947 H       1  UNL1        0.0660
     52 H          -0.9931   -2.8381    3.1793 H       1  UNL1        0.0660
     53 H          -1.3475   -4.3405    2.2733 H       1  UNL1        0.0660
@<TRIPOS>BOND
     1     1     2    1
     2     2     3    1
     3     3     4   ar
     4     4     5   ar
     5     5     6   ar
     6     6     7    1
     7     7     8    1
     8     8     9   am
     9     9    10    2
    10     9    11    1
    11    11    12   ar
    12    12    13   ar
    13    13    14    1
    14    14    15   ar
    15    15    16   ar
    16    16    17   ar
    17    17    18   ar
    18    18    19    1
    19    18    20   ar
    20    13    21   ar
    21    21    22   ar
    22    22    23   ar
    23    23    24    1
    24    24    25   ar
    25    25    26   ar
    26    26    27   ar
    27    27    28   ar
    28    28    29   ar
    29     6    30   ar
    30    30    31   ar
    31    31    32    1
    32    32    33    1
    33    31     3   ar
    34    23    11   ar
    35    29    24   ar
    36    20    14   ar
    37     1    34    1
    38     1    35    1
    39     1    36    1
    40     4    37    1
    41     5    38    1
    42     7    39    1
    43     7    40    1
    44     8    41    1
    45    12    42    1
    46    15    43    1
    47    17    44    1
    48    20    45    1
    49    21    46    1
    50    25    47    1
    51    26    48    1
    52    27    49    1
    53    28    50    1
    54    33    51    1
    55    33    52    1
    56    33    53    1
