
     RDKit          3D

 52 54  0  0  0  0  0  0  0  0999 V2000
    6.8033    2.2747   -2.7341 C   0  0  0  0  0  0  0  0  0  0  0  0
    6.5115    1.4365   -1.9275 C   0  0  0  0  0  0  0  0  0  0  0  0
    6.1349    0.4309   -0.9481 C   0  0  0  0  0  0  0  0  0  0  0  0
    7.0108   -0.3038   -0.2058 C   0  0  0  0  0  0  0  0  0  0  0  0
    6.5523   -1.2782    0.6840 C   0  0  0  0  0  0  0  0  0  0  0  0
    5.1770   -1.5059    0.8192 C   0  0  0  0  0  0  0  0  0  0  0  0
    4.2776   -0.7832    0.0896 C   0  0  0  0  0  0  0  0  0  0  0  0
    2.8419   -0.9492    0.1620 N   0  0  0  0  0  0  0  0  0  0  0  0
    2.1717   -0.0185    1.0149 C   0  0  0  0  0  0  0  0  0  0  0  0
    2.8521    0.7287    1.8925 N   0  0  0  0  0  0  0  0  0  0  0  0
    2.2726    1.6547    2.7199 C   0  0  0  0  0  0  0  0  0  0  0  0
    0.9393    1.7681    2.5900 N   0  0  0  0  0  0  0  0  0  0  0  0
    0.1695    1.0872    1.7614 C   0  0  0  0  0  0  0  0  0  0  0  0
   -1.1833    1.2335    1.6267 C   0  0  0  0  0  0  0  0  0  0  0  0
   -1.9616    0.5304    0.7440 C   0  0  0  0  0  0  0  0  0  0  0  0
   -3.3462    0.7354    0.6613 O   0  0  0  0  0  0  0  0  0  0  0  0
   -3.9251    1.7090    1.5296 C   0  0  0  0  0  0  0  0  0  0  0  0
   -5.3947    1.8313    1.3438 C   0  0  0  0  0  0  0  0  0  0  0  0
   -5.9284    2.7767    2.1828 O   0  0  0  0  0  0  0  0  0  0  0  0
   -5.7627    2.4895    3.5198 C   0  0  0  0  0  0  0  0  0  0  0  0
   -1.3263   -0.4012   -0.0774 C   0  0  0  0  0  0  0  0  0  0  0  0
   -2.0348   -1.1451   -0.9960 O   0  0  0  0  0  0  0  0  0  0  0  0
   -1.3555   -2.0698   -1.8174 C   0  0  0  0  0  0  0  0  0  0  0  0
   -2.2725   -2.7864   -2.7566 C   0  0  0  0  0  0  0  0  0  0  0  0
   -2.9413   -1.9106   -3.6170 O   0  0  0  0  0  0  0  0  0  0  0  0
   -3.7753   -2.6303   -4.4797 C   0  0  0  0  0  0  0  0  0  0  0  0
    0.0634   -0.5813    0.0287 C   0  0  0  0  0  0  0  0  0  0  0  0
    0.8082    0.1361    0.9199 C   0  0  0  0  0  0  0  0  0  0  0  0
    4.7882    0.1704   -0.7788 C   0  0  0  0  0  0  0  0  0  0  0  0
    7.0682    3.0374   -3.4545 H   0  0  0  0  0  0  0  0  0  0  0  0
    8.0822   -0.0993   -0.3389 H   0  0  0  0  0  0  0  0  0  0  0  0
    7.2678   -1.8334    1.2438 H   0  0  0  0  0  0  0  0  0  0  0  0
    4.8593   -2.2628    1.5071 H   0  0  0  0  0  0  0  0  0  0  0  0
    2.4474   -1.6962   -0.3876 H   0  0  0  0  0  0  0  0  0  0  0  0
    2.8689    2.2359    3.4169 H   0  0  0  0  0  0  0  0  0  0  0  0
   -1.6374    1.9711    2.2919 H   0  0  0  0  0  0  0  0  0  0  0  0
   -3.5789    1.4523    2.5402 H   0  0  0  0  0  0  0  0  0  0  0  0
   -3.4460    2.6776    1.2556 H   0  0  0  0  0  0  0  0  0  0  0  0
   -5.8784    0.8359    1.4867 H   0  0  0  0  0  0  0  0  0  0  0  0
   -5.5683    2.2094    0.3043 H   0  0  0  0  0  0  0  0  0  0  0  0
   -6.2428    3.2832    4.1692 H   0  0  0  0  0  0  0  0  0  0  0  0
   -4.6968    2.4118    3.7931 H   0  0  0  0  0  0  0  0  0  0  0  0
   -6.2617    1.5377    3.7795 H   0  0  0  0  0  0  0  0  0  0  0  0
   -0.8449   -2.8529   -1.2053 H   0  0  0  0  0  0  0  0  0  0  0  0
   -0.6028   -1.5232   -2.4530 H   0  0  0  0  0  0  0  0  0  0  0  0
   -1.6211   -3.4178   -3.4225 H   0  0  0  0  0  0  0  0  0  0  0  0
   -2.9586   -3.4817   -2.2694 H   0  0  0  0  0  0  0  0  0  0  0  0
   -3.2091   -3.3555   -5.1142 H   0  0  0  0  0  0  0  0  0  0  0  0
   -4.3079   -1.9404   -5.1563 H   0  0  0  0  0  0  0  0  0  0  0  0
   -4.5374   -3.2348   -3.9467 H   0  0  0  0  0  0  0  0  0  0  0  0
    0.5397   -1.3268   -0.6351 H   0  0  0  0  0  0  0  0  0  0  0  0
    4.0925    0.7428   -1.3567 H   0  0  0  0  0  0  0  0  0  0  0  0
  1  2  3  0
  2  3  1  0
  3  4  2  0
  4  5  1  0
  5  6  2  0
  6  7  1  0
  7  8  1  0
  8  9  1  0
  9 10  2  0
 10 11  1  0
 11 12  2  0
 12 13  1  0
 13 14  2  0
 14 15  1  0
 15 16  1  0
 16 17  1  0
 17 18  1  0
 18 19  1  0
 19 20  1  0
 15 21  2  0
 21 22  1  0
 22 23  1  0
 23 24  1  0
 24 25  1  0
 25 26  1  0
 21 27  1  0
 27 28  2  0
  7 29  2  0
 29  3  1  0
 28  9  1  0
 28 13  1  0
  1 30  1  0
  4 31  1  0
  5 32  1  0
  6 33  1  0
  8 34  1  0
 11 35  1  0
 14 36  1  0
 17 37  1  0
 17 38  1  0
 18 39  1  0
 18 40  1  0
 20 41  1  0
 20 42  1  0
 20 43  1  0
 23 44  1  0
 23 45  1  0
 24 46  1  0
 24 47  1  0
 26 48  1  0
 26 49  1  0
 26 50  1  0
 27 51  1  0
 29 52  1  0
M  END
$$$$
