@<TRIPOS>MOLECULE
*****
 52 54 0 0 0
SMALL
GASTEIGER

@<TRIPOS>ATOM
      1 C           6.8033    2.2747   -2.7341 C.1     1  UNL1       -0.1139
      2 C           6.5115    1.4365   -1.9275 C.1     1  UNL1       -0.0696
      3 C           6.1349    0.4309   -0.9481 C.ar    1  UNL1        0.0264
      4 C           7.0108   -0.3038   -0.2058 C.ar    1  UNL1       -0.0462
      5 C           6.5523   -1.2782    0.6840 C.ar    1  UNL1       -0.0589
      6 C           5.1770   -1.5059    0.8192 C.ar    1  UNL1       -0.0404
      7 C           4.2776   -0.7832    0.0896 C.ar    1  UNL1        0.0335
      8 N           2.8419   -0.9492    0.1620 N.pl3   1  UNL1       -0.2988
      9 C           2.1717   -0.0185    1.0149 C.ar    1  UNL1        0.1340
     10 N           2.8521    0.7287    1.8925 N.ar    1  UNL1       -0.2200
     11 C           2.2726    1.6547    2.7199 C.ar    1  UNL1        0.1187
     12 N           0.9393    1.7681    2.5900 N.ar    1  UNL1       -0.2352
     13 C           0.1695    1.0872    1.7614 C.ar    1  UNL1        0.0797
     14 C          -1.1833    1.2335    1.6267 C.ar    1  UNL1        0.0098
     15 C          -1.9616    0.5304    0.7440 C.ar    1  UNL1        0.1641
     16 O          -3.3462    0.7354    0.6613 O.3     1  UNL1       -0.4860
     17 C          -3.9251    1.7090    1.5296 C.3     1  UNL1        0.1130
     18 C          -5.3947    1.8313    1.3438 C.3     1  UNL1        0.0814
     19 O          -5.9284    2.7767    2.1828 O.3     1  UNL1       -0.3796
     20 C          -5.7627    2.4895    3.5198 C.3     1  UNL1        0.0366
     21 C          -1.3263   -0.4012   -0.0774 C.ar    1  UNL1        0.1628
     22 O          -2.0348   -1.1451   -0.9960 O.3     1  UNL1       -0.4860
     23 C          -1.3555   -2.0698   -1.8174 C.3     1  UNL1        0.1130
     24 C          -2.2725   -2.7864   -2.7566 C.3     1  UNL1        0.0814
     25 O          -2.9413   -1.9106   -3.6170 O.3     1  UNL1       -0.3796
     26 C          -3.7753   -2.6303   -4.4797 C.3     1  UNL1        0.0366
     27 C           0.0634   -0.5813    0.0287 C.ar    1  UNL1       -0.0038
     28 C           0.8082    0.1361    0.9199 C.ar    1  UNL1        0.0441
     29 C           4.7882    0.1704   -0.7788 C.ar    1  UNL1       -0.0251
     30 H           7.0682    3.0374   -3.4545 H       1  UNL1        0.1232
     31 H           8.0822   -0.0993   -0.3389 H       1  UNL1        0.0630
     32 H           7.2678   -1.8334    1.2438 H       1  UNL1        0.0619
     33 H           4.8593   -2.2628    1.5071 H       1  UNL1        0.0636
     34 H           2.4474   -1.6962   -0.3876 H       1  UNL1        0.1536
     35 H           2.8689    2.2359    3.4169 H       1  UNL1        0.1048
     36 H          -1.6374    1.9711    2.2919 H       1  UNL1        0.0677
     37 H          -3.5789    1.4523    2.5402 H       1  UNL1        0.0720
     38 H          -3.4460    2.6776    1.2556 H       1  UNL1        0.0720
     39 H          -5.8784    0.8359    1.4867 H       1  UNL1        0.0593
     40 H          -5.5683    2.2094    0.3043 H       1  UNL1        0.0593
     41 H          -6.2428    3.2832    4.1692 H       1  UNL1        0.0524
     42 H          -4.6968    2.4118    3.7931 H       1  UNL1        0.0524
     43 H          -6.2617    1.5377    3.7795 H       1  UNL1        0.0524
     44 H          -0.8449   -2.8529   -1.2053 H       1  UNL1        0.0720
     45 H          -0.6028   -1.5232   -2.4530 H       1  UNL1        0.0720
     46 H          -1.6211   -3.4178   -3.4225 H       1  UNL1        0.0593
     47 H          -2.9586   -3.4817   -2.2694 H       1  UNL1        0.0593
     48 H          -3.2091   -3.3555   -5.1142 H       1  UNL1        0.0524
     49 H          -4.3079   -1.9404   -5.1563 H       1  UNL1        0.0524
     50 H          -4.5374   -3.2348   -3.9467 H       1  UNL1        0.0524
     51 H           0.5397   -1.3268   -0.6351 H       1  UNL1        0.0663
     52 H           4.0925    0.7428   -1.3567 H       1  UNL1        0.0648
@<TRIPOS>BOND
     1     1     2    3
     2     2     3    1
     3     3     4   ar
     4     4     5   ar
     5     5     6   ar
     6     6     7   ar
     7     7     8    1
     8     8     9    1
     9     9    10   ar
    10    10    11   ar
    11    11    12   ar
    12    12    13   ar
    13    13    14   ar
    14    14    15   ar
    15    15    16    1
    16    16    17    1
    17    17    18    1
    18    18    19    1
    19    19    20    1
    20    15    21   ar
    21    21    22    1
    22    22    23    1
    23    23    24    1
    24    24    25    1
    25    25    26    1
    26    21    27   ar
    27    27    28   ar
    28     7    29   ar
    29    29     3   ar
    30    28     9   ar
    31    28    13   ar
    32     1    30    1
    33     4    31    1
    34     5    32    1
    35     6    33    1
    36     8    34    1
    37    11    35    1
    38    14    36    1
    39    17    37    1
    40    17    38    1
    41    18    39    1
    42    18    40    1
    43    20    41    1
    44    20    42    1
    45    20    43    1
    46    23    44    1
    47    23    45    1
    48    24    46    1
    49    24    47    1
    50    26    48    1
    51    26    49    1
    52    26    50    1
    53    27    51    1
    54    29    52    1
