@<TRIPOS>MOLECULE
*****
 79 82 0 0 0
SMALL
GASTEIGER

@<TRIPOS>ATOM
      1 C           1.9961    2.2501   -2.5922 C.3     1  UNL1        0.0804
      2 O           1.0711    1.6528   -1.7403 O.3     1  UNL1       -0.4790
      3 C           1.3883    1.1313   -0.4942 C.ar    1  UNL1        0.2313
      4 N           2.6894    1.2295   -0.1199 N.ar    1  UNL1       -0.1788
      5 C           3.1103    0.7632    1.0570 C.ar    1  UNL1        0.2183
      6 N           4.4653    0.8790    1.4184 N.pl3   1  UNL1       -0.3133
      7 C           5.4496    1.4777    0.5778 C.3     1  UNL1        0.0130
      8 C           5.6151    0.7293   -0.7123 C.3     1  UNL1       -0.0246
      9 C           6.0333   -0.6780   -0.4124 C.3     1  UNL1        0.0004
     10 N           7.2677   -0.6889    0.2993 N.3     1  UNL1       -0.2999
     11 C           7.6687   -2.0429    0.6749 C.3     1  UNL1        0.0117
     12 C           8.8810   -1.8479    1.5923 C.3     1  UNL1        0.0114
     13 N           9.9865   -1.4676    0.7803 N.3     1  UNL1       -0.3029
     14 C          11.1334   -0.9650    1.4662 C.3     1  UNL1       -0.0127
     15 C           9.6252   -0.8167   -0.4243 C.3     1  UNL1        0.0114
     16 C           8.3617   -0.0073   -0.3682 C.3     1  UNL1        0.0117
     17 N           2.2157    0.1836    1.8847 N.ar    1  UNL1       -0.2220
     18 C           0.9264    0.0677    1.5531 C.ar    1  UNL1        0.0485
     19 C           0.4591    0.5499    0.3218 C.ar    1  UNL1        0.1165
     20 C          -0.9460    0.4157   -0.0267 C.2     1  UNL1        0.2549
     21 O          -1.6578   -0.1546    0.8735 O.2     1  UNL1       -0.2696
     22 N          -1.5896    0.8259   -1.1963 N.am    1  UNL1       -0.2811
     23 C          -2.9687    0.6718   -1.4836 C.ar    1  UNL1        0.0373
     24 C          -3.9398    0.1365   -0.6977 C.ar    1  UNL1       -0.0281
     25 C          -5.2906    0.0297   -1.1024 C.ar    1  UNL1        0.0388
     26 C          -6.2216   -0.5642   -0.1521 C.2     1  UNL1        0.2483
     27 O          -5.8128   -0.9327    1.0007 O.2     1  UNL1       -0.2699
     28 N          -7.5881   -0.7629   -0.4386 N.am    1  UNL1       -0.2813
     29 C          -8.4967   -1.3426    0.4909 C.ar    1  UNL1        0.0371
     30 C          -8.6887   -2.7009    0.5153 C.ar    1  UNL1       -0.0402
     31 C          -9.5595   -3.3143    1.3928 C.ar    1  UNL1       -0.0595
     32 C         -10.2401   -2.4791    2.2610 C.ar    1  UNL1       -0.0497
     33 C         -10.0597   -1.1068    2.2509 C.ar    1  UNL1        0.0595
     34 C         -10.8053   -0.2651    3.1938 C.3     1  UNL1        0.4177
     35 F         -11.5728    0.6268    2.4479 F       1  UNL1       -0.1659
     36 F         -10.0071    0.3869    4.1058 F       1  UNL1       -0.1659
     37 F         -11.6505   -1.0771    3.9542 F       1  UNL1       -0.1659
     38 C          -9.1709   -0.5092    1.3513 C.ar    1  UNL1       -0.0176
     39 C          -8.9619    0.9568    1.3230 C.3     1  UNL1       -0.0374
     40 C          -5.6476    0.4859   -2.3471 C.ar    1  UNL1       -0.0493
     41 C          -4.6897    1.0370   -3.1757 C.ar    1  UNL1       -0.0564
     42 C          -3.3942    1.1225   -2.7482 C.ar    1  UNL1       -0.0292
     43 C          -2.4146    1.7302   -3.7063 C.3     1  UNL1       -0.0380
     44 H           1.6814    3.2966   -2.8780 H       1  UNL1        0.0660
     45 H           2.1012    1.6551   -3.5210 H       1  UNL1        0.0660
     46 H           3.0178    2.2695   -2.1360 H       1  UNL1        0.0660
     47 H           4.7753    0.5083    2.3557 H       1  UNL1        0.1489
     48 H           6.4415    1.5397    1.0700 H       1  UNL1        0.0462
     49 H           5.1064    2.5118    0.3134 H       1  UNL1        0.0462
     50 H           4.6471    0.6582   -1.2778 H       1  UNL1        0.0293
     51 H           6.3606    1.2114   -1.3690 H       1  UNL1        0.0293
     52 H           6.0383   -1.3304   -1.3099 H       1  UNL1        0.0427
     53 H           5.2501   -1.0966    0.2850 H       1  UNL1        0.0427
     54 H           8.0452   -2.5392   -0.2377 H       1  UNL1        0.0439
     55 H           6.8616   -2.5980    1.1487 H       1  UNL1        0.0439
     56 H           8.6028   -1.0626    2.3463 H       1  UNL1        0.0439
     57 H           9.1224   -2.7659    2.1413 H       1  UNL1        0.0439
     58 H          11.2596    0.1246    1.3966 H       1  UNL1        0.0391
     59 H          12.0392   -1.4054    0.9518 H       1  UNL1        0.0391
     60 H          11.1588   -1.3603    2.5067 H       1  UNL1        0.0391
     61 H          10.4327   -0.0933   -0.7458 H       1  UNL1        0.0439
     62 H           9.5319   -1.5849   -1.2507 H       1  UNL1        0.0439
     63 H           8.5646    0.9652    0.0842 H       1  UNL1        0.0439
     64 H           8.0567    0.1814   -1.4380 H       1  UNL1        0.0439
     65 H           0.2188   -0.4058    2.2382 H       1  UNL1        0.0840
     66 H          -0.9677    1.2930   -1.9195 H       1  UNL1        0.1551
     67 H          -3.6748   -0.2208    0.2767 H       1  UNL1        0.0644
     68 H          -7.9279   -0.4580   -1.3994 H       1  UNL1        0.1551
     69 H          -8.1474   -3.3454   -0.1708 H       1  UNL1        0.0636
     70 H          -9.7179   -4.3817    1.4196 H       1  UNL1        0.0618
     71 H         -10.9353   -2.9525    2.9635 H       1  UNL1        0.0623
     72 H          -7.8768    1.2154    1.3809 H       1  UNL1        0.0278
     73 H          -9.4605    1.4444    2.1562 H       1  UNL1        0.0278
     74 H          -9.3964    1.3852    0.3756 H       1  UNL1        0.0278
     75 H          -6.6898    0.4057   -2.6667 H       1  UNL1        0.0625
     76 H          -4.9888    1.3918   -4.1507 H       1  UNL1        0.0621
     77 H          -1.5873    0.9954   -3.8524 H       1  UNL1        0.0278
     78 H          -2.8685    1.9083   -4.6939 H       1  UNL1        0.0278
     79 H          -2.0447    2.6602   -3.2414 H       1  UNL1        0.0278
@<TRIPOS>BOND
     1     1     2    1
     2     2     3    1
     3     3     4   ar
     4     4     5   ar
     5     5     6    1
     6     6     7    1
     7     7     8    1
     8     8     9    1
     9     9    10    1
    10    10    11    1
    11    11    12    1
    12    12    13    1
    13    13    14    1
    14    13    15    1
    15    15    16    1
    16     5    17   ar
    17    17    18   ar
    18    18    19   ar
    19    19    20    1
    20    20    21    2
    21    20    22   am
    22    22    23    1
    23    23    24   ar
    24    24    25   ar
    25    25    26    1
    26    26    27    2
    27    26    28   am
    28    28    29    1
    29    29    30   ar
    30    30    31   ar
    31    31    32   ar
    32    32    33   ar
    33    33    34    1
    34    34    35    1
    35    34    36    1
    36    34    37    1
    37    33    38   ar
    38    38    39    1
    39    25    40   ar
    40    40    41   ar
    41    41    42   ar
    42    42    43    1
    43    19     3   ar
    44    42    23   ar
    45    16    10    1
    46    38    29   ar
    47     1    44    1
    48     1    45    1
    49     1    46    1
    50     6    47    1
    51     7    48    1
    52     7    49    1
    53     8    50    1
    54     8    51    1
    55     9    52    1
    56     9    53    1
    57    11    54    1
    58    11    55    1
    59    12    56    1
    60    12    57    1
    61    14    58    1
    62    14    59    1
    63    14    60    1
    64    15    61    1
    65    15    62    1
    66    16    63    1
    67    16    64    1
    68    18    65    1
    69    22    66    1
    70    24    67    1
    71    28    68    1
    72    30    69    1
    73    31    70    1
    74    32    71    1
    75    39    72    1
    76    39    73    1
    77    39    74    1
    78    40    75    1
    79    41    76    1
    80    43    77    1
    81    43    78    1
    82    43    79    1
