@<TRIPOS>MOLECULE
*****
 61 65 0 0 0
SMALL
GASTEIGER

@<TRIPOS>ATOM
      1 C          -7.7660    4.2432    0.7061 C.3     1  UNL1       -0.0209
      2 C          -6.4827    3.4609    0.7636 C.ar    1  UNL1        0.0563
      3 C          -6.0054    2.6019   -0.2007 C.ar    1  UNL1        0.0322
      4 N          -4.8161    2.0791    0.2036 N.ar    1  UNL1       -0.3055
      5 C          -4.0841    1.1565   -0.5902 C.ar    1  UNL1        0.0497
      6 C          -3.2957    0.2029    0.0372 C.ar    1  UNL1       -0.0165
      7 C          -2.5612   -0.7200   -0.6581 C.ar    1  UNL1        0.0362
      8 N          -1.7338   -1.7226   -0.0528 N.am    1  UNL1       -0.2814
      9 C          -0.3717   -1.4874    0.2426 C.2     1  UNL1        0.2483
     10 O           0.0883   -0.3366   -0.0562 O.2     1  UNL1       -0.2699
     11 C           0.5007   -2.4937    0.8621 C.ar    1  UNL1        0.0388
     12 C           0.0479   -3.7415    1.2118 C.ar    1  UNL1       -0.0493
     13 C           0.9285   -4.6318    1.7909 C.ar    1  UNL1       -0.0564
     14 C           2.2465   -4.2926    2.0230 C.ar    1  UNL1       -0.0292
     15 C           3.1729   -5.2574    2.6420 C.3     1  UNL1       -0.0380
     16 C           2.7461   -3.0385    1.6836 C.ar    1  UNL1        0.0372
     17 N           4.0764   -2.7325    1.9433 N.pl3   1  UNL1       -0.2834
     18 C           4.8372   -1.5937    1.6695 C.ar    1  UNL1        0.2200
     19 N           6.1014   -1.5369    2.1005 N.ar    1  UNL1       -0.2226
     20 C           6.8679   -0.4854    1.8591 C.ar    1  UNL1        0.0332
     21 C           6.3501    0.5837    1.1424 C.ar    1  UNL1       -0.0174
     22 C           5.0561    0.5656    0.6810 C.ar    1  UNL1        0.0775
     23 C           4.4595    1.6634   -0.0892 C.ar    1  UNL1        0.0186
     24 C           3.1769    1.6281   -0.5530 C.ar    1  UNL1       -0.0497
     25 C           2.6836    2.6964   -1.2654 C.ar    1  UNL1       -0.0430
     26 C           3.4667    3.8009   -1.5170 C.ar    1  UNL1        0.0276
     27 N           4.7148    3.8449   -1.0705 N.ar    1  UNL1       -0.2626
     28 C           5.2115    2.7858   -0.3613 C.ar    1  UNL1        0.0367
     29 N           4.3561   -0.5573    0.9823 N.ar    1  UNL1       -0.2142
     30 C           1.8459   -2.1756    1.1096 C.ar    1  UNL1       -0.0281
     31 C          -2.6182   -0.6868   -2.0320 C.ar    1  UNL1       -0.0287
     32 C          -3.4059    0.2650   -2.6981 C.ar    1  UNL1        0.0585
     33 C          -3.4766    0.3121   -4.1782 C.3     1  UNL1        0.4175
     34 F          -2.3950   -0.3159   -4.7577 F       1  UNL1       -0.1659
     35 F          -3.4083    1.6638   -4.5314 F       1  UNL1       -0.1659
     36 F          -4.6127   -0.2847   -4.6670 F       1  UNL1       -0.1659
     37 C          -4.1253    1.1704   -1.9614 C.ar    1  UNL1       -0.0261
     38 C          -4.5587    2.6020    1.3949 C.ar    1  UNL1        0.1007
     39 N          -5.5636    3.4427    1.7456 N.ar    1  UNL1       -0.2406
     40 H          -7.8819    4.8047    1.6556 H       1  UNL1        0.0293
     41 H          -8.6342    3.5467    0.5454 H       1  UNL1        0.0293
     42 H          -7.6800    4.9764   -0.1044 H       1  UNL1        0.0293
     43 H          -6.5224    2.3938   -1.1321 H       1  UNL1        0.0831
     44 H          -3.2701    0.1998    1.0969 H       1  UNL1        0.0657
     45 H          -2.1155   -2.6657    0.1903 H       1  UNL1        0.1551
     46 H          -0.9923   -4.0372    1.0394 H       1  UNL1        0.0625
     47 H           0.5683   -5.6352    2.0734 H       1  UNL1        0.0621
     48 H           3.5927   -4.8790    3.6074 H       1  UNL1        0.0278
     49 H           3.9654   -5.6082    1.9549 H       1  UNL1        0.0278
     50 H           2.5839   -6.1571    2.9145 H       1  UNL1        0.0278
     51 H           4.6349   -3.5073    2.4487 H       1  UNL1        0.1550
     52 H           7.9023   -0.4006    2.1929 H       1  UNL1        0.0831
     53 H           6.9819    1.4565    0.9402 H       1  UNL1        0.0654
     54 H           2.5623    0.7778   -0.3669 H       1  UNL1        0.0625
     55 H           1.6696    2.7300   -1.6624 H       1  UNL1        0.0633
     56 H           3.0910    4.6574   -2.0807 H       1  UNL1        0.0829
     57 H           6.2354    2.9299   -0.0481 H       1  UNL1        0.0836
     58 H           2.1460   -1.1855    0.8208 H       1  UNL1        0.0644
     59 H          -2.0717   -1.3764   -2.6628 H       1  UNL1        0.0642
     60 H          -4.7557    1.9335   -2.4384 H       1  UNL1        0.0644
     61 H          -3.6636    2.3678    1.9755 H       1  UNL1        0.1032
@<TRIPOS>BOND
     1     1     2    1
     2     2     3   ar
     3     3     4   ar
     4     4     5    1
     5     5     6   ar
     6     6     7   ar
     7     7     8    1
     8     8     9   am
     9     9    10    2
    10     9    11    1
    11    11    12   ar
    12    12    13   ar
    13    13    14   ar
    14    14    15    1
    15    14    16   ar
    16    16    17    1
    17    17    18    1
    18    18    19   ar
    19    19    20   ar
    20    20    21   ar
    21    21    22   ar
    22    22    23    1
    23    23    24   ar
    24    24    25   ar
    25    25    26   ar
    26    26    27   ar
    27    27    28   ar
    28    22    29   ar
    29    16    30   ar
    30     7    31   ar
    31    31    32   ar
    32    32    33    1
    33    33    34    1
    34    33    35    1
    35    33    36    1
    36    32    37   ar
    37     4    38   ar
    38    38    39   ar
    39    39     2   ar
    40    37     5   ar
    41    30    11   ar
    42    29    18   ar
    43    28    23   ar
    44     1    40    1
    45     1    41    1
    46     1    42    1
    47     3    43    1
    48     6    44    1
    49     8    45    1
    50    12    46    1
    51    13    47    1
    52    15    48    1
    53    15    49    1
    54    15    50    1
    55    17    51    1
    56    20    52    1
    57    21    53    1
    58    24    54    1
    59    25    55    1
    60    26    56    1
    61    28    57    1
    62    30    58    1
    63    31    59    1
    64    37    60    1
    65    38    61    1
