@<TRIPOS>MOLECULE
*****
 72 77 0 0 0
SMALL
GASTEIGER

@<TRIPOS>ATOM
      1 C          -1.4500   -5.6628   -0.9749 C.3     1  UNL1       -0.0653
      2 C          -2.5984   -4.8299   -1.4724 C.3     1  UNL1       -0.0556
      3 C          -2.6572   -3.4870   -0.8245 C.3     1  UNL1       -0.0478
      4 C          -1.4060   -2.6520   -1.0382 C.3     1  UNL1       -0.0084
      5 C          -1.6501   -1.3502   -0.3387 C.ar    1  UNL1        0.0677
      6 N          -2.5084   -1.1326    0.6687 N.ar    1  UNL1       -0.1703
      7 N          -2.4975    0.1516    1.0415 N.ar    1  UNL1       -0.2246
      8 C          -3.3550    0.6484    2.0710 C.ar    1  UNL1        0.0740
      9 C          -3.2298    0.1362    3.3739 C.ar    1  UNL1       -0.0356
     10 C          -4.0505    0.5563    4.3681 C.ar    1  UNL1       -0.0597
     11 C          -5.0172    1.4992    4.0863 C.ar    1  UNL1       -0.0611
     12 C          -5.1897    2.0363    2.8342 C.ar    1  UNL1       -0.0520
     13 C          -4.3270    1.5880    1.8134 C.ar    1  UNL1        0.0076
     14 C          -4.5136    2.1526    0.4777 C.ar    1  UNL1       -0.0159
     15 C          -4.5276    1.4020   -0.6691 C.ar    1  UNL1       -0.0540
     16 C          -4.6996    2.0088   -1.9140 C.ar    1  UNL1       -0.0612
     17 C          -4.8587    3.3554   -2.0344 C.ar    1  UNL1       -0.0617
     18 C          -4.8479    4.1207   -0.8949 C.ar    1  UNL1       -0.0612
     19 C          -4.6780    3.5263    0.3376 C.ar    1  UNL1       -0.0540
     20 C          -1.6085    0.7611    0.2555 C.ar    1  UNL1        0.1547
     21 C          -1.1977    2.1576    0.3707 C.2     1  UNL1        0.3557
     22 O          -1.6282    2.9243    1.2585 O.2     1  UNL1       -0.2434
     23 O          -0.2681    2.6948   -0.5459 O.3     1  UNL1       -0.4761
     24 C          -1.0526   -0.1494   -0.6353 C.ar    1  UNL1        0.0123
     25 C          -0.0546    0.0775   -1.6714 C.3     1  UNL1        0.0016
     26 C           1.3628   -0.1376   -1.2981 C.ar    1  UNL1       -0.0429
     27 C           1.8177   -1.0481   -0.3909 C.ar    1  UNL1       -0.0577
     28 C           3.1674   -1.1945   -0.1094 C.ar    1  UNL1       -0.0537
     29 C           4.1303   -0.4325   -0.7263 C.ar    1  UNL1       -0.0172
     30 C           5.5517   -0.5701   -0.4377 C.ar    1  UNL1       -0.0072
     31 C           6.1879   -1.7719   -0.7068 C.ar    1  UNL1       -0.0534
     32 C           7.5349   -1.9446   -0.4908 C.ar    1  UNL1       -0.0611
     33 C           8.2712   -0.8984    0.0046 C.ar    1  UNL1       -0.0611
     34 C           7.6458    0.2867    0.2704 C.ar    1  UNL1       -0.0504
     35 C           6.2792    0.4914    0.0616 C.ar    1  UNL1        0.0282
     36 C           5.7110    1.7716    0.4052 C.ar    1  UNL1        0.1799
     37 N           4.4055    2.0891    0.4250 N.ar    1  UNL1       -0.1084
     38 N           4.3200    3.3460    0.8110 N.ar    1  UNL1       -0.0229
     39 N           5.5211    3.8271    1.0322 N.ar    1  UNL1       -0.0464
     40 N           6.3828    2.8610    0.7836 N.ar    1  UNL1       -0.2388
     41 C           3.6707    0.4984   -1.6544 C.ar    1  UNL1       -0.0537
     42 C           2.3486    0.6514   -1.9394 C.ar    1  UNL1       -0.0577
     43 H          -0.8857   -5.1609   -0.1595 H       1  UNL1        0.0230
     44 H          -1.7573   -6.6931   -0.6613 H       1  UNL1        0.0230
     45 H          -0.7541   -5.8121   -1.8136 H       1  UNL1        0.0230
     46 H          -3.5366   -5.3873   -1.1681 H       1  UNL1        0.0263
     47 H          -2.6112   -4.7645   -2.5779 H       1  UNL1        0.0263
     48 H          -2.8412   -3.6410    0.2574 H       1  UNL1        0.0269
     49 H          -3.5142   -2.9110   -1.2156 H       1  UNL1        0.0269
     50 H          -1.2441   -2.4911   -2.1070 H       1  UNL1        0.0329
     51 H          -0.5793   -3.1912   -0.5639 H       1  UNL1        0.0329
     52 H          -2.4386   -0.6136    3.5267 H       1  UNL1        0.0639
     53 H          -3.9246    0.1306    5.3670 H       1  UNL1        0.0618
     54 H          -5.6794    1.8429    4.8734 H       1  UNL1        0.0618
     55 H          -5.9282    2.7743    2.5664 H       1  UNL1        0.0624
     56 H          -4.4124    0.3125   -0.6544 H       1  UNL1        0.0624
     57 H          -4.7102    1.4076   -2.8308 H       1  UNL1        0.0618
     58 H          -4.9949    3.8545   -3.0074 H       1  UNL1        0.0618
     59 H          -4.9788    5.1867   -1.0230 H       1  UNL1        0.0618
     60 H          -4.6853    4.2112    1.1858 H       1  UNL1        0.0624
     61 H          -0.2189    3.7108   -0.6804 H       1  UNL1        0.2955
     62 H          -0.1368    1.0867   -2.1442 H       1  UNL1        0.0363
     63 H          -0.2531   -0.6249   -2.5592 H       1  UNL1        0.0363
     64 H           1.1118   -1.6704    0.1220 H       1  UNL1        0.0621
     65 H           3.5048   -1.9358    0.6328 H       1  UNL1        0.0624
     66 H           5.6046   -2.6043   -1.0980 H       1  UNL1        0.0624
     67 H           7.9985   -2.8920   -0.7111 H       1  UNL1        0.0618
     68 H           9.3327   -1.0668    0.1628 H       1  UNL1        0.0618
     69 H           8.2750    1.0849    0.6609 H       1  UNL1        0.0625
     70 H           7.4259    2.9958    0.8891 H       1  UNL1        0.1923
     71 H           4.4025    1.1288   -2.1810 H       1  UNL1        0.0624
     72 H           1.9925    1.3744   -2.6660 H       1  UNL1        0.0621
@<TRIPOS>BOND
     1     1     2    1
     2     2     3    1
     3     3     4    1
     4     4     5    1
     5     5     6   ar
     6     6     7   ar
     7     7     8    1
     8     8     9   ar
     9     9    10   ar
    10    10    11   ar
    11    11    12   ar
    12    12    13   ar
    13    13    14    1
    14    14    15   ar
    15    15    16   ar
    16    16    17   ar
    17    17    18   ar
    18    18    19   ar
    19     7    20   ar
    20    20    21    1
    21    21    22    2
    22    21    23    1
    23    20    24   ar
    24    24    25    1
    25    25    26    1
    26    26    27   ar
    27    27    28   ar
    28    28    29   ar
    29    29    30    1
    30    30    31   ar
    31    31    32   ar
    32    32    33   ar
    33    33    34   ar
    34    34    35   ar
    35    35    36    1
    36    36    37   ar
    37    37    38   ar
    38    38    39   ar
    39    39    40   ar
    40    29    41   ar
    41    41    42   ar
    42    24     5   ar
    43    42    26   ar
    44    13     8   ar
    45    19    14   ar
    46    35    30   ar
    47    40    36   ar
    48     1    43    1
    49     1    44    1
    50     1    45    1
    51     2    46    1
    52     2    47    1
    53     3    48    1
    54     3    49    1
    55     4    50    1
    56     4    51    1
    57     9    52    1
    58    10    53    1
    59    11    54    1
    60    12    55    1
    61    15    56    1
    62    16    57    1
    63    17    58    1
    64    18    59    1
    65    19    60    1
    66    23    61    1
    67    25    62    1
    68    25    63    1
    69    27    64    1
    70    28    65    1
    71    31    66    1
    72    32    67    1
    73    33    68    1
    74    34    69    1
    75    40    70    1
    76    41    71    1
    77    42    72    1
