
     RDKit          3D

 72 77  0  0  0  0  0  0  0  0999 V2000
   -1.4500   -5.6628   -0.9749 C   0  0  0  0  0  0  0  0  0  0  0  0
   -2.5984   -4.8299   -1.4724 C   0  0  0  0  0  0  0  0  0  0  0  0
   -2.6572   -3.4870   -0.8245 C   0  0  0  0  0  0  0  0  0  0  0  0
   -1.4060   -2.6520   -1.0382 C   0  0  0  0  0  0  0  0  0  0  0  0
   -1.6501   -1.3502   -0.3387 C   0  0  0  0  0  0  0  0  0  0  0  0
   -2.5084   -1.1326    0.6687 N   0  0  0  0  0  0  0  0  0  0  0  0
   -2.4975    0.1516    1.0415 N   0  0  0  0  0  0  0  0  0  0  0  0
   -3.3550    0.6484    2.0710 C   0  0  0  0  0  0  0  0  0  0  0  0
   -3.2298    0.1362    3.3739 C   0  0  0  0  0  0  0  0  0  0  0  0
   -4.0505    0.5563    4.3681 C   0  0  0  0  0  0  0  0  0  0  0  0
   -5.0172    1.4992    4.0863 C   0  0  0  0  0  0  0  0  0  0  0  0
   -5.1897    2.0363    2.8342 C   0  0  0  0  0  0  0  0  0  0  0  0
   -4.3270    1.5880    1.8134 C   0  0  0  0  0  0  0  0  0  0  0  0
   -4.5136    2.1526    0.4777 C   0  0  0  0  0  0  0  0  0  0  0  0
   -4.5276    1.4020   -0.6691 C   0  0  0  0  0  0  0  0  0  0  0  0
   -4.6996    2.0088   -1.9140 C   0  0  0  0  0  0  0  0  0  0  0  0
   -4.8587    3.3554   -2.0344 C   0  0  0  0  0  0  0  0  0  0  0  0
   -4.8479    4.1207   -0.8949 C   0  0  0  0  0  0  0  0  0  0  0  0
   -4.6780    3.5263    0.3376 C   0  0  0  0  0  0  0  0  0  0  0  0
   -1.6085    0.7611    0.2555 C   0  0  0  0  0  0  0  0  0  0  0  0
   -1.1977    2.1576    0.3707 C   0  0  0  0  0  0  0  0  0  0  0  0
   -1.6282    2.9243    1.2585 O   0  0  0  0  0  0  0  0  0  0  0  0
   -0.2681    2.6948   -0.5459 O   0  0  0  0  0  0  0  0  0  0  0  0
   -1.0526   -0.1494   -0.6353 C   0  0  0  0  0  0  0  0  0  0  0  0
   -0.0546    0.0775   -1.6714 C   0  0  0  0  0  0  0  0  0  0  0  0
    1.3628   -0.1376   -1.2981 C   0  0  0  0  0  0  0  0  0  0  0  0
    1.8177   -1.0481   -0.3909 C   0  0  0  0  0  0  0  0  0  0  0  0
    3.1674   -1.1945   -0.1094 C   0  0  0  0  0  0  0  0  0  0  0  0
    4.1303   -0.4325   -0.7263 C   0  0  0  0  0  0  0  0  0  0  0  0
    5.5517   -0.5701   -0.4377 C   0  0  0  0  0  0  0  0  0  0  0  0
    6.1879   -1.7719   -0.7068 C   0  0  0  0  0  0  0  0  0  0  0  0
    7.5349   -1.9446   -0.4908 C   0  0  0  0  0  0  0  0  0  0  0  0
    8.2712   -0.8984    0.0046 C   0  0  0  0  0  0  0  0  0  0  0  0
    7.6458    0.2867    0.2704 C   0  0  0  0  0  0  0  0  0  0  0  0
    6.2792    0.4914    0.0616 C   0  0  0  0  0  0  0  0  0  0  0  0
    5.7110    1.7716    0.4052 C   0  0  0  0  0  0  0  0  0  0  0  0
    4.4055    2.0891    0.4250 N   0  0  0  0  0  0  0  0  0  0  0  0
    4.3200    3.3460    0.8110 N   0  0  0  0  0  0  0  0  0  0  0  0
    5.5211    3.8271    1.0322 N   0  0  0  0  0  0  0  0  0  0  0  0
    6.3828    2.8610    0.7836 N   0  0  0  0  0  0  0  0  0  0  0  0
    3.6707    0.4984   -1.6544 C   0  0  0  0  0  0  0  0  0  0  0  0
    2.3486    0.6514   -1.9394 C   0  0  0  0  0  0  0  0  0  0  0  0
   -0.8857   -5.1609   -0.1595 H   0  0  0  0  0  0  0  0  0  0  0  0
   -1.7573   -6.6931   -0.6613 H   0  0  0  0  0  0  0  0  0  0  0  0
   -0.7541   -5.8121   -1.8136 H   0  0  0  0  0  0  0  0  0  0  0  0
   -3.5366   -5.3873   -1.1681 H   0  0  0  0  0  0  0  0  0  0  0  0
   -2.6112   -4.7645   -2.5779 H   0  0  0  0  0  0  0  0  0  0  0  0
   -2.8412   -3.6410    0.2574 H   0  0  0  0  0  0  0  0  0  0  0  0
   -3.5142   -2.9110   -1.2156 H   0  0  0  0  0  0  0  0  0  0  0  0
   -1.2441   -2.4911   -2.1070 H   0  0  0  0  0  0  0  0  0  0  0  0
   -0.5793   -3.1912   -0.5639 H   0  0  0  0  0  0  0  0  0  0  0  0
   -2.4386   -0.6136    3.5267 H   0  0  0  0  0  0  0  0  0  0  0  0
   -3.9246    0.1306    5.3670 H   0  0  0  0  0  0  0  0  0  0  0  0
   -5.6794    1.8429    4.8734 H   0  0  0  0  0  0  0  0  0  0  0  0
   -5.9282    2.7743    2.5664 H   0  0  0  0  0  0  0  0  0  0  0  0
   -4.4124    0.3125   -0.6544 H   0  0  0  0  0  0  0  0  0  0  0  0
   -4.7102    1.4076   -2.8308 H   0  0  0  0  0  0  0  0  0  0  0  0
   -4.9949    3.8545   -3.0074 H   0  0  0  0  0  0  0  0  0  0  0  0
   -4.9788    5.1867   -1.0230 H   0  0  0  0  0  0  0  0  0  0  0  0
   -4.6853    4.2112    1.1858 H   0  0  0  0  0  0  0  0  0  0  0  0
   -0.2189    3.7108   -0.6804 H   0  0  0  0  0  0  0  0  0  0  0  0
   -0.1368    1.0867   -2.1442 H   0  0  0  0  0  0  0  0  0  0  0  0
   -0.2531   -0.6249   -2.5592 H   0  0  0  0  0  0  0  0  0  0  0  0
    1.1118   -1.6704    0.1220 H   0  0  0  0  0  0  0  0  0  0  0  0
    3.5048   -1.9358    0.6328 H   0  0  0  0  0  0  0  0  0  0  0  0
    5.6046   -2.6043   -1.0980 H   0  0  0  0  0  0  0  0  0  0  0  0
    7.9985   -2.8920   -0.7111 H   0  0  0  0  0  0  0  0  0  0  0  0
    9.3327   -1.0668    0.1628 H   0  0  0  0  0  0  0  0  0  0  0  0
    8.2750    1.0849    0.6609 H   0  0  0  0  0  0  0  0  0  0  0  0
    7.4259    2.9958    0.8891 H   0  0  0  0  0  0  0  0  0  0  0  0
    4.4025    1.1288   -2.1810 H   0  0  0  0  0  0  0  0  0  0  0  0
    1.9925    1.3744   -2.6660 H   0  0  0  0  0  0  0  0  0  0  0  0
  1  2  1  0
  2  3  1  0
  3  4  1  0
  4  5  1  0
  5  6  2  0
  6  7  1  0
  7  8  1  0
  8  9  2  0
  9 10  1  0
 10 11  2  0
 11 12  1  0
 12 13  2  0
 13 14  1  0
 14 15  2  0
 15 16  1  0
 16 17  2  0
 17 18  1  0
 18 19  2  0
  7 20  1  0
 20 21  1  0
 21 22  2  0
 21 23  1  0
 20 24  2  0
 24 25  1  0
 25 26  1  0
 26 27  2  0
 27 28  1  0
 28 29  2  0
 29 30  1  0
 30 31  2  0
 31 32  1  0
 32 33  2  0
 33 34  1  0
 34 35  2  0
 35 36  1  0
 36 37  2  0
 37 38  1  0
 38 39  2  0
 39 40  1  0
 29 41  1  0
 41 42  2  0
 24  5  1  0
 42 26  1  0
 13  8  1  0
 19 14  1  0
 35 30  1  0
 40 36  1  0
  1 43  1  0
  1 44  1  0
  1 45  1  0
  2 46  1  0
  2 47  1  0
  3 48  1  0
  3 49  1  0
  4 50  1  0
  4 51  1  0
  9 52  1  0
 10 53  1  0
 11 54  1  0
 12 55  1  0
 15 56  1  0
 16 57  1  0
 17 58  1  0
 18 59  1  0
 19 60  1  0
 23 61  1  0
 25 62  1  0
 25 63  1  0
 27 64  1  0
 28 65  1  0
 31 66  1  0
 32 67  1  0
 33 68  1  0
 34 69  1  0
 40 70  1  0
 41 71  1  0
 42 72  1  0
M  END
$$$$
