@<TRIPOS>MOLECULE
*****
 35 37 0 0 0
SMALL
GASTEIGER

@<TRIPOS>ATOM
      1 C          -6.2450   -0.0751    1.9285 C.3     1  UNL1        0.0788
      2 O          -4.8448    0.0929    1.9642 O.3     1  UNL1       -0.4950
      3 C          -4.0616    0.1188    0.8190 C.ar    1  UNL1        0.1219
      4 C          -2.6964    0.2887    0.9576 C.ar    1  UNL1        0.0031
      5 C          -1.8584    0.3226   -0.1629 C.ar    1  UNL1        0.0597
      6 C          -2.4217    0.1826   -1.4139 C.ar    1  UNL1       -0.0385
      7 C          -3.7925    0.0093   -1.5990 C.ar    1  UNL1       -0.0565
      8 C          -4.5730   -0.0163   -0.4542 C.ar    1  UNL1       -0.0198
      9 N          -0.4938    0.4847   -0.1565 N.pl3   1  UNL1       -0.1783
     10 C           0.3790    1.5631   -0.2074 C.2     1  UNL1        0.0212
     11 C           1.6811    1.6226   -0.1927 C.2     1  UNL1       -0.0363
     12 C           2.4891    0.4255   -0.1114 C.ar    1  UNL1        0.0120
     13 C           1.8844   -0.8762   -0.0440 C.ar    1  UNL1        0.1552
     14 S           3.3123   -2.0003    0.0439 S.2     1  UNL1       -0.0478
     15 C           4.5396   -0.7587   -0.0105 C.ar    1  UNL1        0.1446
     16 C           3.8556    0.4492   -0.0920 C.ar    1  UNL1       -0.0189
     17 S           6.2273   -1.2073    0.0416 S.O2    1  UNL1        0.0623
     18 N           7.1628    0.2264   -0.0285 N.3     1  UNL1       -0.2030
     19 O           6.4837   -2.0765   -1.1464 O.2     1  UNL1       -0.1527
     20 O           6.5515   -1.9118    1.3346 O.2     1  UNL1       -0.1527
     21 S           0.1692   -1.1011   -0.0583 S.O2    1  UNL1        0.0852
     22 O          -0.2144   -1.7430    1.2430 O.2     1  UNL1       -0.1489
     23 O          -0.2922   -1.9261   -1.2255 O.2     1  UNL1       -0.1489
     24 H          -6.5973   -0.7435    1.1128 H       1  UNL1        0.0660
     25 H          -6.6029   -0.5082    2.9054 H       1  UNL1        0.0660
     26 H          -6.6914    0.9225    1.7515 H       1  UNL1        0.0660
     27 H          -2.1980    0.4042    1.9220 H       1  UNL1        0.0673
     28 H          -1.8588    0.1954   -2.3357 H       1  UNL1        0.0637
     29 H          -4.2297   -0.1000   -2.5810 H       1  UNL1        0.0619
     30 H          -5.6434   -0.1511   -0.5903 H       1  UNL1        0.0654
     31 H          -0.2270    2.4769   -0.2694 H       1  UNL1        0.0802
     32 H           2.0700    2.6269   -0.2459 H       1  UNL1        0.0637
     33 H           4.5542    1.2664   -0.1295 H       1  UNL1        0.0649
     34 H           6.7968    0.9921    0.5535 H       1  UNL1        0.1443
     35 H           7.3854    0.5243   -1.0065 H       1  UNL1        0.1443
@<TRIPOS>BOND
     1     1     2    1
     2     2     3    1
     3     3     4   ar
     4     4     5   ar
     5     5     6   ar
     6     6     7   ar
     7     7     8   ar
     8     5     9    1
     9     9    10    1
    10    10    11    2
    11    11    12    1
    12    12    13   ar
    13    13    14   ar
    14    14    15   ar
    15    15    16   ar
    16    15    17    1
    17    17    18    1
    18    17    19    2
    19    17    20    2
    20    13    21    1
    21    21    22    2
    22    21    23    2
    23     8     3   ar
    24    21     9    1
    25    16    12   ar
    26     1    24    1
    27     1    25    1
    28     1    26    1
    29     4    27    1
    30     6    28    1
    31     7    29    1
    32     8    30    1
    33    10    31    1
    34    11    32    1
    35    16    33    1
    36    18    34    1
    37    18    35    1
