@<TRIPOS>MOLECULE
*****
 12 11 0 0 0
SMALL
GASTEIGER

@<TRIPOS>ATOM
      1 C           1.3638   -0.2938   -0.0680 C.3     1  UNL1        0.0026
      2 N          -0.0322    0.0934    0.0035 N.am    1  UNL1       -0.3101
      3 C          -1.1456   -0.8329   -0.0892 C.3     1  UNL1        0.0026
      4 C          -0.3301    1.4752    0.1764 C.2     1  UNL1        0.2020
      5 O           0.5287    2.3726    0.2701 O.2     1  UNL1       -0.2793
      6 H           1.4802   -1.3486    0.3191 H       1  UNL1        0.0428
      7 H           1.6976   -0.3418   -1.1235 H       1  UNL1        0.0428
      8 H           2.0145    0.3304    0.5717 H       1  UNL1        0.0428
      9 H          -1.7277   -0.8161    0.8571 H       1  UNL1        0.0428
     10 H          -0.7585   -1.8771   -0.1734 H       1  UNL1        0.0428
     11 H          -1.7662   -0.6371   -0.9864 H       1  UNL1        0.0428
     12 H          -1.3245    1.8758    0.2425 H       1  UNL1        0.1253
@<TRIPOS>BOND
     1     1     2    1
     2     2     3    1
     3     2     4   am
     4     4     5    2
     5     1     6    1
     6     1     7    1
     7     1     8    1
     8     3     9    1
     9     3    10    1
    10     3    11    1
    11     4    12    1
