@<TRIPOS>MOLECULE
*****
 56 59 0 0 0
SMALL
GASTEIGER

@<TRIPOS>ATOM
      1 C           6.7984   -0.3471   -0.8983 C.3     1  UNL1        0.0584
      2 C           6.2807    0.4736    0.2617 C.3     1  UNL1       -0.0259
      3 C           5.4234    1.6093   -0.2699 C.3     1  UNL1       -0.0396
      4 C           4.1605    1.1162   -0.9132 C.3     1  UNL1        0.0361
      5 C           4.3779   -0.2496   -1.5285 C.3     1  UNL1       -0.0396
      6 C           5.8098   -0.4271   -2.0167 C.3     1  UNL1       -0.0259
      7 C           3.0958    1.0829    0.1239 C.2     1  UNL1        0.2213
      8 O           3.4684    1.4443    1.2691 O.2     1  UNL1       -0.2751
      9 N           1.7456    0.6939   -0.0572 N.am    1  UNL1       -0.2701
     10 C           0.8196    0.7061    1.0235 C.ar    1  UNL1        0.1254
     11 C          -0.4874    0.3226    0.7719 C.ar    1  UNL1       -0.0138
     12 C          -1.3590    0.3424    1.8306 C.ar    1  UNL1       -0.0131
     13 C          -0.8582    0.7469    3.0743 C.ar    1  UNL1       -0.0357
     14 C           0.4478    1.1269    3.3117 C.ar    1  UNL1        0.0303
     15 N           1.2575    1.0881    2.2371 N.ar    1  UNL1       -0.2401
     16 C          -2.7715   -0.0173    1.7917 C.ar    1  UNL1       -0.0131
     17 C          -3.5454    0.1917    0.6748 C.ar    1  UNL1       -0.0139
     18 C          -4.8844   -0.1226    0.5691 C.ar    1  UNL1        0.1234
     19 N          -5.5814    0.1407   -0.6385 N.pl3   1  UNL1       -0.2994
     20 C          -6.9311   -0.1057   -0.9169 C.ar    1  UNL1        0.0325
     21 C          -7.8737   -0.6453   -0.0890 C.ar    1  UNL1       -0.0378
     22 C          -9.1947   -0.8736   -0.3964 C.ar    1  UNL1       -0.0247
     23 C          -9.6297   -0.5310   -1.6593 C.ar    1  UNL1        0.1235
     24 F         -10.9192   -0.7336   -2.0152 F       1  UNL1       -0.2055
     25 C          -8.7350    0.0173   -2.5459 C.ar    1  UNL1       -0.0247
     26 C          -7.4425    0.2139   -2.1710 C.ar    1  UNL1       -0.0378
     27 N          -5.4250   -0.6711    1.6654 N.ar    1  UNL1       -0.2402
     28 C          -4.6903   -0.8835    2.7638 C.ar    1  UNL1        0.0303
     29 C          -3.3540   -0.5831    2.9056 C.ar    1  UNL1       -0.0357
     30 O           8.0014    0.1176   -1.3828 O.3     1  UNL1       -0.3798
     31 C           9.0575   -0.7587   -1.2608 C.3     1  UNL1        0.0368
     32 H           6.9695   -1.3694   -0.5052 H       1  UNL1        0.0596
     33 H           5.6400   -0.1131    0.9523 H       1  UNL1        0.0290
     34 H           7.1187    0.9259    0.8060 H       1  UNL1        0.0290
     35 H           5.1495    2.2297    0.6072 H       1  UNL1        0.0273
     36 H           5.9773    2.2115   -1.0264 H       1  UNL1        0.0273
     37 H           3.8598    1.8505   -1.6882 H       1  UNL1        0.0394
     38 H           3.7288   -0.3324   -2.4244 H       1  UNL1        0.0273
     39 H           4.1451   -1.0667   -0.8316 H       1  UNL1        0.0273
     40 H           6.0419    0.2944   -2.8332 H       1  UNL1        0.0290
     41 H           5.8635   -1.4397   -2.4657 H       1  UNL1        0.0290
     42 H           1.4810    0.4024   -1.0232 H       1  UNL1        0.1562
     43 H          -0.8733    0.0148   -0.1693 H       1  UNL1        0.0658
     44 H          -1.5211    0.7745    3.9375 H       1  UNL1        0.0639
     45 H           0.7664    1.4273    4.2949 H       1  UNL1        0.0830
     46 H          -3.0226    0.6407   -0.1645 H       1  UNL1        0.0658
     47 H          -5.0057    0.5743   -1.4152 H       1  UNL1        0.1536
     48 H          -7.5945   -0.9282    0.8985 H       1  UNL1        0.0637
     49 H          -9.8906   -1.3049    0.3054 H       1  UNL1        0.0647
     50 H          -9.1211    0.2684   -3.5192 H       1  UNL1        0.0647
     51 H          -6.8226    0.6510   -2.9441 H       1  UNL1        0.0637
     52 H          -5.1852   -1.3359    3.6334 H       1  UNL1        0.0830
     53 H          -2.8327   -0.7871    3.8299 H       1  UNL1        0.0639
     54 H           9.2890   -1.0502   -0.2353 H       1  UNL1        0.0524
     55 H           8.8287   -1.6887   -1.8516 H       1  UNL1        0.0524
     56 H           9.9483   -0.2419   -1.6824 H       1  UNL1        0.0524
@<TRIPOS>BOND
     1     1     2    1
     2     2     3    1
     3     3     4    1
     4     4     5    1
     5     5     6    1
     6     4     7    1
     7     7     8    2
     8     7     9   am
     9     9    10    1
    10    10    11   ar
    11    11    12   ar
    12    12    13   ar
    13    13    14   ar
    14    14    15   ar
    15    12    16    1
    16    16    17   ar
    17    17    18   ar
    18    18    19    1
    19    19    20    1
    20    20    21   ar
    21    21    22   ar
    22    22    23   ar
    23    23    24    1
    24    23    25   ar
    25    25    26   ar
    26    18    27   ar
    27    27    28   ar
    28    28    29   ar
    29     1    30    1
    30    30    31    1
    31     6     1    1
    32    15    10   ar
    33    29    16   ar
    34    26    20   ar
    35     1    32    1
    36     2    33    1
    37     2    34    1
    38     3    35    1
    39     3    36    1
    40     4    37    1
    41     5    38    1
    42     5    39    1
    43     6    40    1
    44     6    41    1
    45     9    42    1
    46    11    43    1
    47    13    44    1
    48    14    45    1
    49    17    46    1
    50    19    47    1
    51    21    48    1
    52    22    49    1
    53    25    50    1
    54    26    51    1
    55    28    52    1
    56    29    53    1
    57    31    54    1
    58    31    55    1
    59    31    56    1
