@<TRIPOS>MOLECULE
*****
 47 51 0 0 0
SMALL
GASTEIGER

@<TRIPOS>ATOM
      1 O           1.1132    0.6881    3.9643 O.2     1  UNL1       -0.2677
      2 C           1.2928    0.4013    2.7475 C.ar    1  UNL1        0.2533
      3 C           2.3093    1.0162    2.0089 C.ar    1  UNL1        0.0427
      4 C           2.4608    0.6679    0.6902 C.ar    1  UNL1        0.1285
      5 N           3.4480    1.2259   -0.1368 N.pl3   1  UNL1       -0.3106
      6 C           3.5853    0.8065   -1.5472 C.3     1  UNL1        0.0370
      7 C           5.0130    0.3122   -1.6718 C.3     1  UNL1        0.0634
      8 O           5.9201    1.2896   -1.2734 O.3     1  UNL1       -0.3767
      9 C           5.7798    1.6074    0.0843 C.3     1  UNL1        0.0634
     10 C           4.3903    2.2257    0.2900 C.3     1  UNL1        0.0370
     11 N           1.6230   -0.2474    0.1766 N.ar    1  UNL1       -0.2186
     12 C           0.6626   -0.8130    0.9166 C.ar    1  UNL1        0.1191
     13 C          -0.1946   -1.8130    0.2270 C.3     1  UNL1        0.0639
     14 C          -1.3561   -1.1813   -0.4636 C.ar    1  UNL1        0.1183
     15 N          -1.3101   -0.6303   -1.6875 N.ar    1  UNL1       -0.2317
     16 C          -2.5348   -0.1826   -1.9475 C.ar    1  UNL1        0.0920
     17 C          -3.0620    0.4684   -3.0510 C.ar    1  UNL1        0.0010
     18 C          -4.3855    0.8430   -3.0909 C.ar    1  UNL1        0.1255
     19 F          -4.9030    1.4860   -4.1828 F       1  UNL1       -0.2054
     20 C          -5.1929    0.5527   -1.9900 C.ar    1  UNL1       -0.0244
     21 C          -4.6761   -0.0945   -0.8886 C.ar    1  UNL1       -0.0333
     22 C          -3.3576   -0.4686   -0.8475 C.ar    1  UNL1        0.0692
     23 N          -2.5874   -1.1015    0.0782 N.ar    1  UNL1       -0.3241
     24 C          -2.9964   -1.5953    1.3678 C.3     1  UNL1        0.0363
     25 C          -4.3016   -2.2445    1.6264 C.3     1  UNL1       -0.0302
     26 C          -3.9664   -0.9653    2.2525 C.3     1  UNL1       -0.0302
     27 N           0.4704   -0.5130    2.1999 N.ar    1  UNL1       -0.3104
     28 H           2.9290    1.7306    2.4927 H       1  UNL1        0.0706
     29 H           2.8968   -0.0076   -1.7869 H       1  UNL1        0.0487
     30 H           3.4540    1.7177   -2.1505 H       1  UNL1        0.0487
     31 H           5.2007    0.0984   -2.7338 H       1  UNL1        0.0575
     32 H           5.1355   -0.6116   -1.0690 H       1  UNL1        0.0575
     33 H           5.8917    0.7225    0.7265 H       1  UNL1        0.0575
     34 H           6.5477    2.3841    0.2999 H       1  UNL1        0.0575
     35 H           4.3126    3.0741   -0.4510 H       1  UNL1        0.0487
     36 H           4.2900    2.5596    1.3160 H       1  UNL1        0.0487
     37 H           0.4186   -2.3175   -0.5743 H       1  UNL1        0.0422
     38 H          -0.4754   -2.6191    0.9166 H       1  UNL1        0.0422
     39 H          -2.3929    0.6778   -3.8958 H       1  UNL1        0.0668
     40 H          -6.2257    0.8621   -2.0577 H       1  UNL1        0.0647
     41 H          -5.3210   -0.2984   -0.0645 H       1  UNL1        0.0640
     42 H          -2.1552   -2.1254    1.9102 H       1  UNL1        0.0528
     43 H          -4.3277   -3.1707    2.2884 H       1  UNL1        0.0286
     44 H          -4.9197   -2.4258    0.7528 H       1  UNL1        0.0286
     45 H          -3.7851   -1.0314    3.3781 H       1  UNL1        0.0286
     46 H          -4.4389    0.0047    2.0676 H       1  UNL1        0.0286
     47 H          -0.2792   -0.9644    2.7566 H       1  UNL1        0.1700
@<TRIPOS>BOND
     1     1     2    2
     2     2     3   ar
     3     3     4   ar
     4     4     5    1
     5     5     6    1
     6     6     7    1
     7     7     8    1
     8     8     9    1
     9     9    10    1
    10     4    11   ar
    11    11    12   ar
    12    12    13    1
    13    13    14    1
    14    14    15   ar
    15    15    16   ar
    16    16    17   ar
    17    17    18   ar
    18    18    19    1
    19    18    20   ar
    20    20    21   ar
    21    21    22   ar
    22    22    23   ar
    23    23    24    1
    24    24    25    1
    25    25    26    1
    26    12    27   ar
    27    27     2   ar
    28    10     5    1
    29    23    14   ar
    30    26    24    1
    31    22    16   ar
    32     3    28    1
    33     6    29    1
    34     6    30    1
    35     7    31    1
    36     7    32    1
    37     9    33    1
    38     9    34    1
    39    10    35    1
    40    10    36    1
    41    13    37    1
    42    13    38    1
    43    17    39    1
    44    20    40    1
    45    21    41    1
    46    24    42    1
    47    25    43    1
    48    25    44    1
    49    26    45    1
    50    26    46    1
    51    27    47    1
