
     RDKit          3D

 47 51  0  0  0  0  0  0  0  0999 V2000
    1.1132    0.6881    3.9643 O   0  0  0  0  0  0  0  0  0  0  0  0
    1.2928    0.4013    2.7475 C   0  0  0  0  0  0  0  0  0  0  0  0
    2.3093    1.0162    2.0089 C   0  0  0  0  0  0  0  0  0  0  0  0
    2.4608    0.6679    0.6902 C   0  0  0  0  0  0  0  0  0  0  0  0
    3.4480    1.2259   -0.1368 N   0  0  0  0  0  0  0  0  0  0  0  0
    3.5853    0.8065   -1.5472 C   0  0  0  0  0  0  0  0  0  0  0  0
    5.0130    0.3122   -1.6718 C   0  0  0  0  0  0  0  0  0  0  0  0
    5.9201    1.2896   -1.2734 O   0  0  0  0  0  0  0  0  0  0  0  0
    5.7798    1.6074    0.0843 C   0  0  0  0  0  0  0  0  0  0  0  0
    4.3903    2.2257    0.2900 C   0  0  0  0  0  0  0  0  0  0  0  0
    1.6230   -0.2474    0.1766 N   0  0  0  0  0  0  0  0  0  0  0  0
    0.6626   -0.8130    0.9166 C   0  0  0  0  0  0  0  0  0  0  0  0
   -0.1946   -1.8130    0.2270 C   0  0  0  0  0  0  0  0  0  0  0  0
   -1.3561   -1.1813   -0.4636 C   0  0  0  0  0  0  0  0  0  0  0  0
   -1.3101   -0.6303   -1.6875 N   0  0  0  0  0  0  0  0  0  0  0  0
   -2.5348   -0.1826   -1.9475 C   0  0  0  0  0  0  0  0  0  0  0  0
   -3.0620    0.4684   -3.0510 C   0  0  0  0  0  0  0  0  0  0  0  0
   -4.3855    0.8430   -3.0909 C   0  0  0  0  0  0  0  0  0  0  0  0
   -4.9030    1.4860   -4.1828 F   0  0  0  0  0  0  0  0  0  0  0  0
   -5.1929    0.5527   -1.9900 C   0  0  0  0  0  0  0  0  0  0  0  0
   -4.6761   -0.0945   -0.8886 C   0  0  0  0  0  0  0  0  0  0  0  0
   -3.3576   -0.4686   -0.8475 C   0  0  0  0  0  0  0  0  0  0  0  0
   -2.5874   -1.1015    0.0782 N   0  0  0  0  0  0  0  0  0  0  0  0
   -2.9964   -1.5953    1.3678 C   0  0  0  0  0  0  0  0  0  0  0  0
   -4.3016   -2.2445    1.6264 C   0  0  0  0  0  0  0  0  0  0  0  0
   -3.9664   -0.9653    2.2525 C   0  0  0  0  0  0  0  0  0  0  0  0
    0.4704   -0.5130    2.1999 N   0  0  0  0  0  0  0  0  0  0  0  0
    2.9290    1.7306    2.4927 H   0  0  0  0  0  0  0  0  0  0  0  0
    2.8968   -0.0076   -1.7869 H   0  0  0  0  0  0  0  0  0  0  0  0
    3.4540    1.7177   -2.1505 H   0  0  0  0  0  0  0  0  0  0  0  0
    5.2007    0.0984   -2.7338 H   0  0  0  0  0  0  0  0  0  0  0  0
    5.1355   -0.6116   -1.0690 H   0  0  0  0  0  0  0  0  0  0  0  0
    5.8917    0.7225    0.7265 H   0  0  0  0  0  0  0  0  0  0  0  0
    6.5477    2.3841    0.2999 H   0  0  0  0  0  0  0  0  0  0  0  0
    4.3126    3.0741   -0.4510 H   0  0  0  0  0  0  0  0  0  0  0  0
    4.2900    2.5596    1.3160 H   0  0  0  0  0  0  0  0  0  0  0  0
    0.4186   -2.3175   -0.5743 H   0  0  0  0  0  0  0  0  0  0  0  0
   -0.4754   -2.6191    0.9166 H   0  0  0  0  0  0  0  0  0  0  0  0
   -2.3929    0.6778   -3.8958 H   0  0  0  0  0  0  0  0  0  0  0  0
   -6.2257    0.8621   -2.0577 H   0  0  0  0  0  0  0  0  0  0  0  0
   -5.3210   -0.2984   -0.0645 H   0  0  0  0  0  0  0  0  0  0  0  0
   -2.1552   -2.1254    1.9102 H   0  0  0  0  0  0  0  0  0  0  0  0
   -4.3277   -3.1707    2.2884 H   0  0  0  0  0  0  0  0  0  0  0  0
   -4.9197   -2.4258    0.7528 H   0  0  0  0  0  0  0  0  0  0  0  0
   -3.7851   -1.0314    3.3781 H   0  0  0  0  0  0  0  0  0  0  0  0
   -4.4389    0.0047    2.0676 H   0  0  0  0  0  0  0  0  0  0  0  0
   -0.2792   -0.9644    2.7566 H   0  0  0  0  0  0  0  0  0  0  0  0
  1  2  2  0
  2  3  1  0
  3  4  2  0
  4  5  1  0
  5  6  1  0
  6  7  1  0
  7  8  1  0
  8  9  1  0
  9 10  1  0
  4 11  1  0
 11 12  2  0
 12 13  1  0
 13 14  1  0
 14 15  2  0
 15 16  1  0
 16 17  2  0
 17 18  1  0
 18 19  1  0
 18 20  2  0
 20 21  1  0
 21 22  2  0
 22 23  1  0
 23 24  1  0
 24 25  1  0
 25 26  1  0
 12 27  1  0
 27  2  1  0
 10  5  1  0
 23 14  1  0
 26 24  1  0
 22 16  1  0
  3 28  1  0
  6 29  1  0
  6 30  1  0
  7 31  1  0
  7 32  1  0
  9 33  1  0
  9 34  1  0
 10 35  1  0
 10 36  1  0
 13 37  1  0
 13 38  1  0
 17 39  1  0
 20 40  1  0
 21 41  1  0
 24 42  1  0
 25 43  1  0
 25 44  1  0
 26 45  1  0
 26 46  1  0
 27 47  1  0
M  END
$$$$
