@<TRIPOS>MOLECULE
*****
 19 18 0 0 0
SMALL
GASTEIGER

@<TRIPOS>ATOM
      1 C           2.9461   -0.4866   -0.2706 C.3     0  UNK0        0.0122
      2 C           1.5248   -0.2132   -0.6744 C.2     0  UNK0        0.2106
      3 O           1.2181   -0.2239   -1.9055 O.2     0  UNK0       -0.2761
      4 N           0.5386    0.0535    0.3111 N.am    1  CYS1       -0.3020
      5 CA         -0.8097    0.3104   -0.1128 C.3     1  CYS1        0.1290
      6 CB         -1.7258   -0.7691    0.4370 C.3     1  CYS1        0.0195
      7 SG         -1.2730   -2.4044   -0.1264 S.3     1  CYS1       -0.1759
      8 C          -1.2980    1.6394    0.3000 C.2     1  CYS1        0.3261
      9 O          -0.5803    2.5756    1.0176 O.3     1  CYS1       -0.4793
     10 OXT        -2.4715    1.9629   -0.0233 O.2     1  CYS1       -0.2489
     11 H           2.9589   -0.8033    0.7742 H       0  UNK0        0.0322
     12 H           3.4578    0.5114   -0.3887 H       0  UNK0        0.0322
     13 H           3.4289   -1.2480   -0.8988 H       0  UNK0        0.0322
     14 H           0.7520    0.0708    1.3297 H       1  CYS1        0.1495
     15 HA         -0.8287    0.2474   -1.2111 H       1  CYS1        0.0623
     16 HB1        -1.7118   -0.7031    1.5491 H       1  CYS1        0.0397
     17 HB2        -2.7606   -0.5454    0.0984 H       1  CYS1        0.0397
     18 HG         -2.3655   -3.1437   -0.6122 H       1  CYS1        0.1017
     19 H          -1.0005    3.1694    1.7364 H       1  CYS1        0.2951
@<TRIPOS>BOND
     1     1     2    1
     2     2     3    2
     3     2     4   am
     4     4     5    1
     5     5     6    1
     6     6     7    1
     7     5     8    1
     8     8     9    1
     9     8    10    2
    10     1    11    1
    11     1    12    1
    12     1    13    1
    13     4    14    1
    14     5    15    1
    15     6    16    1
    16     6    17    1
    17     7    18    1
    18     9    19    1
