
     RDKit          3D

 27 28  0  0  0  0  0  0  0  0999 V2000
    0.9253   -2.1275    0.9925 O   0  0  0  0  0  0  0  0  0  0  0  0
    0.9682   -1.0521    0.3473 C   0  0  0  0  0  0  0  0  0  0  0  0
   -0.2971   -0.3722   -0.0190 C   0  0  0  0  0  0  0  0  0  0  0  0
   -1.4399   -0.9061    0.3373 C   0  0  0  0  0  0  0  0  0  0  0  0
   -2.7062   -0.2736   -0.0006 C   0  0  0  0  0  0  0  0  0  0  0  0
   -2.7899    0.9014   -0.7013 C   0  0  0  0  0  0  0  0  0  0  0  0
   -4.0212    1.4689   -1.0015 C   0  0  0  0  0  0  0  0  0  0  0  0
   -5.1435    0.8045   -0.5677 C   0  0  0  0  0  0  0  0  0  0  0  0
   -5.0631   -0.3546    0.1236 N   0  0  0  0  0  0  0  0  0  0  0  0
   -3.8880   -0.9143    0.4209 C   0  0  0  0  0  0  0  0  0  0  0  0
    2.2218   -0.4890   -0.0300 C   0  0  0  0  0  0  0  0  0  0  0  0
    2.3020    0.6809   -0.7329 C   0  0  0  0  0  0  0  0  0  0  0  0
    3.5646    1.1829   -1.0740 C   0  0  0  0  0  0  0  0  0  0  0  0
    4.7224    0.5268   -0.7185 C   0  0  0  0  0  0  0  0  0  0  0  0
    4.6345   -0.6492   -0.0117 C   0  0  0  0  0  0  0  0  0  0  0  0
    6.1110   -1.4652    0.4294 Cl  0  0  0  0  0  0  0  0  0  0  0  0
    3.3986   -1.1451    0.3249 C   0  0  0  0  0  0  0  0  0  0  0  0
   -0.2979    0.5442   -0.5676 H   0  0  0  0  0  0  0  0  0  0  0  0
   -1.4156   -1.8505    0.9019 H   0  0  0  0  0  0  0  0  0  0  0  0
   -1.9039    1.4163   -1.0380 H   0  0  0  0  0  0  0  0  0  0  0  0
   -4.0815    2.3991   -1.5564 H   0  0  0  0  0  0  0  0  0  0  0  0
   -6.1095    1.2334   -0.7934 H   0  0  0  0  0  0  0  0  0  0  0  0
   -3.7662   -1.8318    0.9662 H   0  0  0  0  0  0  0  0  0  0  0  0
    1.4571    1.2700   -1.0584 H   0  0  0  0  0  0  0  0  0  0  0  0
    3.6083    2.1083   -1.6294 H   0  0  0  0  0  0  0  0  0  0  0  0
    5.6872    0.9664   -1.0126 H   0  0  0  0  0  0  0  0  0  0  0  0
    3.3226   -2.0719    0.8822 H   0  0  0  0  0  0  0  0  0  0  0  0
  1  2  2  0
  2  3  1  0
  3  4  2  0
  4  5  1  0
  5  6  2  0
  6  7  1  0
  7  8  2  0
  8  9  1  0
  9 10  2  0
  2 11  1  0
 11 12  2  0
 12 13  1  0
 13 14  2  0
 14 15  1  0
 15 16  1  0
 15 17  2  0
 10  5  1  0
 17 11  1  0
  3 18  1  0
  4 19  1  0
  6 20  1  0
  7 21  1  0
  8 22  1  0
 10 23  1  0
 12 24  1  0
 13 25  1  0
 14 26  1  0
 17 27  1  0
M  END
$$$$
