@<TRIPOS>MOLECULE
*****
 27 28 0 0 0
SMALL
GASTEIGER

@<TRIPOS>ATOM
      1 O           0.9253   -2.1275    0.9925 O.2     1  UNL1       -0.2873
      2 C           0.9682   -1.0521    0.3473 C.2     1  UNL1        0.1861
      3 C          -0.2971   -0.3722   -0.0190 C.2     1  UNL1       -0.0137
      4 C          -1.4399   -0.9061    0.3373 C.2     1  UNL1       -0.0495
      5 C          -2.7062   -0.2736   -0.0006 C.ar    1  UNL1       -0.0068
      6 C          -2.7899    0.9014   -0.7013 C.ar    1  UNL1       -0.0517
      7 C          -4.0212    1.4689   -1.0015 C.ar    1  UNL1       -0.0430
      8 C          -5.1435    0.8045   -0.5677 C.ar    1  UNL1        0.0276
      9 N          -5.0631   -0.3546    0.1236 N.ar    1  UNL1       -0.2627
     10 C          -3.8880   -0.9143    0.4209 C.ar    1  UNL1        0.0347
     11 C           2.2218   -0.4890   -0.0300 C.ar    1  UNL1        0.0230
     12 C           2.3020    0.6809   -0.7329 C.ar    1  UNL1       -0.0509
     13 C           3.5646    1.1829   -1.0740 C.ar    1  UNL1       -0.0597
     14 C           4.7224    0.5268   -0.7185 C.ar    1  UNL1       -0.0433
     15 C           4.6345   -0.6492   -0.0117 C.ar    1  UNL1        0.0416
     16 CL          6.1110   -1.4652    0.4294 Cl      1  UNL1       -0.0835
     17 C           3.3986   -1.1451    0.3249 C.ar    1  UNL1       -0.0326
     18 H          -0.2979    0.5442   -0.5676 H       1  UNL1        0.0656
     19 H          -1.4156   -1.8505    0.9019 H       1  UNL1        0.0625
     20 H          -1.9039    1.4163   -1.0380 H       1  UNL1        0.0624
     21 H          -4.0815    2.3991   -1.5564 H       1  UNL1        0.0633
     22 H          -6.1095    1.2334   -0.7934 H       1  UNL1        0.0829
     23 H          -3.7662   -1.8318    0.9662 H       1  UNL1        0.0835
     24 H           1.4571    1.2700   -1.0584 H       1  UNL1        0.0625
     25 H           3.6083    2.1083   -1.6294 H       1  UNL1        0.0618
     26 H           5.6872    0.9664   -1.0126 H       1  UNL1        0.0632
     27 H           3.3226   -2.0719    0.8822 H       1  UNL1        0.0639
@<TRIPOS>BOND
     1     1     2    2
     2     2     3    1
     3     3     4    2
     4     4     5    1
     5     5     6   ar
     6     6     7   ar
     7     7     8   ar
     8     8     9   ar
     9     9    10   ar
    10     2    11    1
    11    11    12   ar
    12    12    13   ar
    13    13    14   ar
    14    14    15   ar
    15    15    16    1
    16    15    17   ar
    17    10     5   ar
    18    17    11   ar
    19     3    18    1
    20     4    19    1
    21     6    20    1
    22     7    21    1
    23     8    22    1
    24    10    23    1
    25    12    24    1
    26    13    25    1
    27    14    26    1
    28    17    27    1
