@<TRIPOS>MOLECULE
*****
 22 21 0 0 0
SMALL
GASTEIGER

@<TRIPOS>ATOM
      1 N          -2.5465    0.4510   -1.1665 N.3     1  UNL1       -0.3300
      2 C          -2.1364   -0.7721   -0.5053 C.3     1  UNL1       -0.0069
      3 C          -1.6921   -0.4805    0.9039 C.3     1  UNL1       -0.0406
      4 C          -0.5247    0.4798    0.9460 C.3     1  UNL1       -0.0514
      5 C           0.6236   -0.1301    0.2007 C.3     1  UNL1       -0.0429
      6 C           1.8512    0.7514    0.1825 C.3     1  UNL1        0.0448
      7 C           2.9012    0.0243   -0.5850 C.2     1  UNL1        0.3047
      8 O           4.1737    0.5251   -0.8136 O.3     1  UNL1       -0.4806
      9 O           2.8345   -1.1238   -1.1425 O.2     1  UNL1       -0.2510
     10 H          -3.2095    0.2091   -1.9310 H       1  UNL1        0.1182
     11 H          -2.9795    1.1072   -0.5000 H       1  UNL1        0.1182
     12 H          -1.3758   -1.3352   -1.0455 H       1  UNL1        0.0422
     13 H          -3.0410   -1.4409   -0.4129 H       1  UNL1        0.0422
     14 H          -1.4068   -1.4800    1.3408 H       1  UNL1        0.0277
     15 H          -2.5240   -0.1127    1.5331 H       1  UNL1        0.0277
     16 H          -0.2953    0.8002    1.9542 H       1  UNL1        0.0266
     17 H          -0.8423    1.3839    0.3721 H       1  UNL1        0.0266
     18 H           0.9261   -1.0971    0.6518 H       1  UNL1        0.0270
     19 H           0.3682   -0.3046   -0.8640 H       1  UNL1        0.0270
     20 H           1.6648    1.7363   -0.2656 H       1  UNL1        0.0377
     21 H           2.2143    0.8553    1.2140 H       1  UNL1        0.0377
     22 H           5.0164   -0.0466   -0.6714 H       1  UNL1        0.2951
@<TRIPOS>BOND
     1     1     2    1
     2     2     3    1
     3     3     4    1
     4     4     5    1
     5     5     6    1
     6     6     7    1
     7     7     8    1
     8     7     9    2
     9     1    10    1
    10     1    11    1
    11     2    12    1
    12     2    13    1
    13     3    14    1
    14     3    15    1
    15     4    16    1
    16     4    17    1
    17     5    18    1
    18     5    19    1
    19     6    20    1
    20     6    21    1
    21     8    22    1
