@<TRIPOS>MOLECULE
*****
 46 50 0 0 0
SMALL
GASTEIGER

@<TRIPOS>ATOM
      1 N           5.3055    0.7340   -0.2115 N.am    1  UNL1       -0.3241
      2 C           3.8964    0.5391   -0.1986 C.2     1  UNL1        0.2599
      3 O           3.3053    0.5889   -1.2840 O.2     1  UNL1       -0.2687
      4 C           3.1903    0.2910    1.0560 C.ar    1  UNL1        0.1280
      5 C           3.8057    0.2247    2.3084 C.ar    1  UNL1        0.0588
      6 N           2.8279   -0.0148    3.1789 N.ar    1  UNL1       -0.2353
      7 C           1.6642   -0.0952    2.5180 C.ar    1  UNL1        0.1381
      8 C           0.3785   -0.3264    2.9660 C.ar    1  UNL1       -0.0182
      9 C          -0.6987   -0.3668    2.0701 C.ar    1  UNL1       -0.0477
     10 C          -0.4583   -0.1722    0.7315 C.ar    1  UNL1        0.0173
     11 C          -1.5322   -0.2044   -0.2223 C.ar    1  UNL1        0.0781
     12 C          -1.8729    0.8863   -1.0273 C.ar    1  UNL1        0.0967
     13 C          -1.2102    2.1878   -1.0234 C.ar    1  UNL1        0.0026
     14 C          -1.2034    3.0004    0.0927 C.ar    1  UNL1       -0.0498
     15 C          -0.5870    4.2332    0.1303 C.ar    1  UNL1       -0.0258
     16 C           0.0519    4.6654   -1.0119 C.ar    1  UNL1        0.1234
     17 F           0.6754    5.8764   -1.0253 F       1  UNL1       -0.2055
     18 C           0.0727    3.8903   -2.1508 C.ar    1  UNL1       -0.0258
     19 C          -0.5570    2.6488   -2.1641 C.ar    1  UNL1       -0.0498
     20 N          -2.9112    0.4567   -1.7680 N.ar    1  UNL1       -0.2351
     21 C          -3.1953   -0.8332   -1.4359 C.ar    1  UNL1        0.0973
     22 N          -2.3361   -1.2259   -0.4814 N.ar    1  UNL1       -0.3261
     23 C          -2.3326   -2.5239    0.1148 C.3     1  UNL1        0.0468
     24 C          -1.0203   -3.2157    0.2642 C.3     1  UNL1        0.0319
     25 C          -1.6996   -4.5010   -0.1694 C.3     1  UNL1        0.2527
     26 F          -2.1763   -5.2592    0.8907 F       1  UNL1       -0.2055
     27 F          -1.0281   -5.2204   -1.1154 F       1  UNL1       -0.2055
     28 C          -2.7752   -3.6219   -0.8170 C.3     1  UNL1        0.0319
     29 C           0.8345    0.0550    0.3242 C.ar    1  UNL1        0.0211
     30 N           1.8679    0.0919    1.1982 N.ar    1  UNL1       -0.2949
     31 H           5.9910   -0.0728   -0.1687 H       1  UNL1        0.1453
     32 H           5.7237    1.6813   -0.2637 H       1  UNL1        0.1453
     33 H           4.8785    0.3479    2.5101 H       1  UNL1        0.0853
     34 H           0.2335   -0.4745    4.0278 H       1  UNL1        0.0654
     35 H          -1.6825   -0.5517    2.4808 H       1  UNL1        0.0626
     36 H          -1.7037    2.6636    0.9894 H       1  UNL1        0.0625
     37 H          -0.5731    4.8801    0.9964 H       1  UNL1        0.0646
     38 H           0.5593    4.1853   -3.0684 H       1  UNL1        0.0646
     39 H          -0.5534    2.0225   -3.0486 H       1  UNL1        0.0625
     40 H          -3.9952   -1.3937   -1.9017 H       1  UNL1        0.1029
     41 H          -2.9200   -2.6047    1.0653 H       1  UNL1        0.0532
     42 H          -0.2212   -2.9472   -0.4468 H       1  UNL1        0.0343
     43 H          -0.6737   -3.2256    1.3253 H       1  UNL1        0.0343
     44 H          -2.6451   -3.4437   -1.8845 H       1  UNL1        0.0343
     45 H          -3.7728   -4.0695   -0.5579 H       1  UNL1        0.0343
     46 H           1.0729    0.2137   -0.7176 H       1  UNL1        0.0820
@<TRIPOS>BOND
     1     1     2   am
     2     2     3    2
     3     2     4    1
     4     4     5   ar
     5     5     6   ar
     6     6     7   ar
     7     7     8   ar
     8     8     9   ar
     9     9    10   ar
    10    10    11    1
    11    11    12   ar
    12    12    13    1
    13    13    14   ar
    14    14    15   ar
    15    15    16   ar
    16    16    17    1
    17    16    18   ar
    18    18    19   ar
    19    12    20   ar
    20    20    21   ar
    21    21    22   ar
    22    22    23    1
    23    23    24    1
    24    24    25    1
    25    25    26    1
    26    25    27    1
    27    25    28    1
    28    10    29   ar
    29    29    30   ar
    30    30     4   ar
    31    30     7   ar
    32    22    11   ar
    33    28    23    1
    34    19    13   ar
    35     1    31    1
    36     1    32    1
    37     5    33    1
    38     8    34    1
    39     9    35    1
    40    14    36    1
    41    15    37    1
    42    18    38    1
    43    19    39    1
    44    21    40    1
    45    23    41    1
    46    24    42    1
    47    24    43    1
    48    28    44    1
    49    28    45    1
    50    29    46    1
