
     RDKit          3D

 72 71  0  0  0  0  0  0  0  0999 V2000
   -5.5081   -0.3320    3.5524 N   0  0  0  0  0  0  0  0  0  0  0  0
   -4.7033    0.4618    2.6242 C   0  0  1  0  0  0  0  0  0  0  0  0
   -4.1943   -0.3710    1.4851 C   0  0  0  0  0  0  0  0  0  0  0  0
   -3.3552    0.4647    0.5179 C   0  0  0  0  0  0  0  0  0  0  0  0
   -2.8995   -0.4470   -0.5569 C   0  0  0  0  0  0  0  0  0  0  0  0
   -3.4127   -1.5551   -0.2064 O   0  0  0  0  0  0  0  0  0  0  0  0
   -2.0993   -0.1693   -1.6864 N   0  0  0  0  0  0  0  0  0  0  0  0
   -1.7154   -1.1404   -2.6512 C   0  0  1  0  0  0  0  0  0  0  0  0
   -1.5199   -2.5481   -2.1039 C   0  0  0  0  0  0  0  0  0  0  0  0
   -0.2310   -2.7259   -0.9072 S   0  0  0  0  0  0  0  0  0  0  0  0
   -0.3954   -1.8278    0.9268 S   0  0  0  0  0  0  0  0  0  0  0  0
    0.2154   -0.1804    1.1311 C   0  0  0  0  0  0  0  0  0  0  0  0
    1.6774    0.0400    0.9891 C   0  0  2  0  0  0  0  0  0  0  0  0
    2.4951   -0.7021    1.9245 N   0  0  0  0  0  0  0  0  0  0  0  0
    3.6742   -1.3937    1.5022 C   0  0  0  0  0  0  0  0  0  0  0  0
    3.8451   -1.2501    0.2689 O   0  0  0  0  0  0  0  0  0  0  0  0
    4.4954   -2.1474    2.5124 C   0  0  0  0  0  0  0  0  0  0  0  0
    5.6873   -2.7392    1.8331 C   0  0  0  0  0  0  0  0  0  0  0  0
    6.6104   -1.7558    1.1944 C   0  0  2  0  0  0  0  0  0  0  0  0
    7.7419   -2.4412    0.5534 N   0  0  0  0  0  0  0  0  0  0  0  0
    7.1897   -0.8341    2.2271 C   0  0  0  0  0  0  0  0  0  0  0  0
    8.3491   -0.3977    2.8378 O   0  0  0  0  0  0  0  0  0  0  0  0
    6.5723   -0.0115    2.9936 O   0  0  0  0  0  0  0  0  0  0  0  0
    1.9031    1.4921    1.3786 C   0  0  0  0  0  0  0  0  0  0  0  0
    2.6057    2.0697    2.2784 O   0  0  0  0  0  0  0  0  0  0  0  0
    1.2282    2.4960    0.6337 N   0  0  0  0  0  0  0  0  0  0  0  0
    1.5558    3.8119    1.1324 C   0  0  0  0  0  0  0  0  0  0  0  0
    0.8304    4.8137    0.3229 C   0  0  0  0  0  0  0  0  0  0  0  0
    0.8309    6.1815    0.3992 O   0  0  0  0  0  0  0  0  0  0  0  0
    0.0573    4.4622   -0.6193 O   0  0  0  0  0  0  0  0  0  0  0  0
   -2.5084   -1.2181   -3.8754 C   0  0  0  0  0  0  0  0  0  0  0  0
   -2.0894   -2.1209   -4.6435 O   0  0  0  0  0  0  0  0  0  0  0  0
   -3.6244   -0.3838   -4.1839 N   0  0  0  0  0  0  0  0  0  0  0  0
   -4.2901   -0.6210   -5.4597 C   0  0  0  0  0  0  0  0  0  0  0  0
   -3.2940   -0.4198   -6.5498 C   0  0  0  0  0  0  0  0  0  0  0  0
   -3.7915   -0.6122   -7.8419 O   0  0  0  0  0  0  0  0  0  0  0  0
   -2.0631   -0.0985   -6.4508 O   0  0  0  0  0  0  0  0  0  0  0  0
   -5.4966    1.5888    2.0796 C   0  0  0  0  0  0  0  0  0  0  0  0
   -6.0348    2.6967    1.4516 O   0  0  0  0  0  0  0  0  0  0  0  0
   -6.6826    1.6619    2.4826 O   0  0  0  0  0  0  0  0  0  0  0  0
   -6.0182   -1.1047    3.0670 H   0  0  0  0  0  0  0  0  0  0  0  0
   -4.9347   -0.6315    4.3522 H   0  0  0  0  0  0  0  0  0  0  0  0
   -3.7939    0.8196    3.1873 H   0  0  0  0  0  0  0  0  0  0  0  0
   -5.0889   -0.7803    0.9461 H   0  0  0  0  0  0  0  0  0  0  0  0
   -3.6050   -1.2101    1.9099 H   0  0  0  0  0  0  0  0  0  0  0  0
   -4.0373    1.2589    0.1335 H   0  0  0  0  0  0  0  0  0  0  0  0
   -2.5426    0.9605    1.0476 H   0  0  0  0  0  0  0  0  0  0  0  0
   -1.8660    0.8381   -1.6332 H   0  0  0  0  0  0  0  0  0  0  0  0
   -0.6372   -0.8920   -2.9641 H   0  0  0  0  0  0  0  0  0  0  0  0
   -1.2147   -3.1517   -3.0087 H   0  0  0  0  0  0  0  0  0  0  0  0
   -2.4550   -3.0017   -1.7669 H   0  0  0  0  0  0  0  0  0  0  0  0
   -0.1071    0.2510    2.1005 H   0  0  0  0  0  0  0  0  0  0  0  0
   -0.3053    0.4701    0.3661 H   0  0  0  0  0  0  0  0  0  0  0  0
    2.0544   -0.0408   -0.0584 H   0  0  0  0  0  0  0  0  0  0  0  0
    2.1665   -0.6962    2.9269 H   0  0  0  0  0  0  0  0  0  0  0  0
    4.7762   -1.4262    3.2995 H   0  0  0  0  0  0  0  0  0  0  0  0
    3.8524   -2.9498    2.9671 H   0  0  0  0  0  0  0  0  0  0  0  0
    6.2396   -3.3208    2.6168 H   0  0  0  0  0  0  0  0  0  0  0  0
    5.3597   -3.5159    1.0873 H   0  0  0  0  0  0  0  0  0  0  0  0
    6.1335   -1.1454    0.4189 H   0  0  0  0  0  0  0  0  0  0  0  0
    8.5641   -2.4875    1.2184 H   0  0  0  0  0  0  0  0  0  0  0  0
    8.0443   -1.8617   -0.2860 H   0  0  0  0  0  0  0  0  0  0  0  0
    8.7531   -0.9041    3.6139 H   0  0  0  0  0  0  0  0  0  0  0  0
    0.5728    2.3146   -0.1791 H   0  0  0  0  0  0  0  0  0  0  0  0
    1.3252    3.9392    2.2291 H   0  0  0  0  0  0  0  0  0  0  0  0
    2.6444    4.0351    1.0362 H   0  0  0  0  0  0  0  0  0  0  0  0
    0.8310    6.7976   -0.4041 H   0  0  0  0  0  0  0  0  0  0  0  0
   -3.8833    0.3398   -3.4671 H   0  0  0  0  0  0  0  0  0  0  0  0
   -5.1434    0.0812   -5.6023 H   0  0  0  0  0  0  0  0  0  0  0  0
   -4.6512   -1.6711   -5.4550 H   0  0  0  0  0  0  0  0  0  0  0  0
   -3.2369   -0.2633   -8.6193 H   0  0  0  0  0  0  0  0  0  0  0  0
   -5.4525    3.5371    1.4233 H   0  0  0  0  0  0  0  0  0  0  0  0
  1  2  1  0
  2  3  1  0
  3  4  1  0
  4  5  1  0
  5  6  2  0
  5  7  1  0
  7  8  1  0
  8  9  1  0
  9 10  1  0
 10 11  1  0
 11 12  1  0
 12 13  1  0
 13 14  1  0
 14 15  1  0
 15 16  2  0
 15 17  1  0
 17 18  1  0
 18 19  1  0
 19 20  1  0
 19 21  1  0
 21 22  1  0
 21 23  2  0
 13 24  1  0
 24 25  2  0
 24 26  1  0
 26 27  1  0
 27 28  1  0
 28 29  1  0
 28 30  2  0
  8 31  1  0
 31 32  2  0
 31 33  1  0
 33 34  1  0
 34 35  1  0
 35 36  1  0
 35 37  2  0
  2 38  1  0
 38 39  1  0
 38 40  2  0
  1 41  1  0
  1 42  1  0
  2 43  1  1
  3 44  1  0
  3 45  1  0
  4 46  1  0
  4 47  1  0
  7 48  1  0
  8 49  1  6
  9 50  1  0
  9 51  1  0
 12 52  1  0
 12 53  1  0
 13 54  1  6
 14 55  1  0
 17 56  1  0
 17 57  1  0
 18 58  1  0
 18 59  1  0
 19 60  1  6
 20 61  1  0
 20 62  1  0
 22 63  1  0
 26 64  1  0
 27 65  1  0
 27 66  1  0
 29 67  1  0
 33 68  1  0
 34 69  1  0
 34 70  1  0
 36 71  1  0
 39 72  1  0
M  END
$$$$
