@<TRIPOS>MOLECULE
*****
 72 71 0 0 0
SMALL
GASTEIGER

@<TRIPOS>ATOM
      1 N          -5.5081   -0.3320    3.5524 N.3     1  UNK1       -0.3184
      2 C          -4.7033    0.4618    2.6242 C.3     1  UNK1        0.1037
      3 C          -4.1943   -0.3710    1.4851 C.3     1  UNK1       -0.0191
      4 C          -3.3552    0.4647    0.5179 C.3     1  UNK1        0.0259
      5 C          -2.8995   -0.4470   -0.5569 C.2     1  UNK1        0.2137
      6 O          -3.4127   -1.5551   -0.2064 O.2     1  UNK1       -0.2758
      7 N          -2.0993   -0.1693   -1.6864 N.am    1  UNK1       -0.3032
      8 C          -1.7154   -1.1404   -2.6512 C.3     1  UNK1        0.1091
      9 C          -1.5199   -2.5481   -2.1039 C.3     1  UNK1        0.0309
     10 S          -0.2310   -2.7259   -0.9072 S.3     1  UNK1       -0.0907
     11 S          -0.3954   -1.8278    0.9268 S.3     1  UNK1       -0.0907
     12 C           0.2154   -0.1804    1.1311 C.3     1  UNK1        0.0309
     13 C           1.6774    0.0400    0.9891 C.3     1  UNK1        0.1091
     14 N           2.4951   -0.7021    1.9245 N.am    1  UNK1       -0.3032
     15 C           3.6742   -1.3937    1.5022 C.2     1  UNK1        0.2137
     16 O           3.8451   -1.2501    0.2689 O.2     1  UNK1       -0.2758
     17 C           4.4954   -2.1474    2.5124 C.3     1  UNK1        0.0259
     18 C           5.6873   -2.7392    1.8331 C.3     1  UNK1       -0.0191
     19 C           6.6104   -1.7558    1.1944 C.3     1  UNK1        0.1037
     20 N           7.7419   -2.4412    0.5534 N.3     1  UNK1       -0.3184
     21 C           7.1897   -0.8341    2.2271 C.2     1  UNK1        0.3217
     22 O           8.3491   -0.3977    2.8378 O.3     1  UNK1       -0.4795
     23 O           6.5723   -0.0115    2.9936 O.2     1  UNK1       -0.2493
     24 C           1.9031    1.4921    1.3786 C.2     1  UNK1        0.2346
     25 O           2.6057    2.0697    2.2784 O.2     1  UNK1       -0.2737
     26 N           1.2282    2.4960    0.6337 N.am    2  GLY2       -0.3033
     27 CA          1.5558    3.8119    1.1324 C.3     2  GLY2        0.1089
     28 C           0.8304    4.8137    0.3229 C.2     2  GLY2        0.3221
     29 O           0.8309    6.1815    0.3992 O.3     2  GLY2       -0.4795
     30 OXT         0.0573    4.4622   -0.6193 O.2     2  GLY2       -0.2492
     31 C          -2.5084   -1.2181   -3.8754 C.2     1  UNK1        0.2346
     32 O          -2.0894   -2.1209   -4.6435 O.2     1  UNK1       -0.2737
     33 N          -3.6244   -0.3838   -4.1839 N.am    2  GLY2       -0.3033
     34 CA         -4.2901   -0.6210   -5.4597 C.3     2  GLY2        0.1089
     35 C          -3.2940   -0.4198   -6.5498 C.2     2  GLY2        0.3221
     36 O          -3.7915   -0.6122   -7.8419 O.3     2  GLY2       -0.4795
     37 OXT        -2.0631   -0.0985   -6.4508 O.2     2  GLY2       -0.2492
     38 C          -5.4966    1.5888    2.0796 C.2     1  UNK1        0.3217
     39 O          -6.0348    2.6967    1.4516 O.3     1  UNK1       -0.4795
     40 O          -6.6826    1.6619    2.4826 O.2     1  UNK1       -0.2493
     41 H          -6.0182   -1.1047    3.0670 H       1  UNK1        0.1190
     42 H          -4.9347   -0.6315    4.3522 H       1  UNK1        0.1190
     43 H          -3.7939    0.8196    3.1873 H       1  UNK1        0.0574
     44 H          -5.0889   -0.7803    0.9461 H       1  UNK1        0.0290
     45 H          -3.6050   -1.2101    1.9099 H       1  UNK1        0.0290
     46 H          -4.0373    1.2589    0.1335 H       1  UNK1        0.0359
     47 H          -2.5426    0.9605    1.0476 H       1  UNK1        0.0359
     48 H          -1.8660    0.8381   -1.6332 H       1  UNK1        0.1495
     49 H          -0.6372   -0.8920   -2.9641 H       1  UNK1        0.0603
     50 H          -1.2147   -3.1517   -3.0087 H       1  UNK1        0.0407
     51 H          -2.4550   -3.0017   -1.7669 H       1  UNK1        0.0407
     52 H          -0.1071    0.2510    2.1005 H       1  UNK1        0.0407
     53 H          -0.3053    0.4701    0.3661 H       1  UNK1        0.0407
     54 H           2.0544   -0.0408   -0.0584 H       1  UNK1        0.0603
     55 H           2.1665   -0.6962    2.9269 H       1  UNK1        0.1495
     56 H           4.7762   -1.4262    3.2995 H       1  UNK1        0.0359
     57 H           3.8524   -2.9498    2.9671 H       1  UNK1        0.0359
     58 H           6.2396   -3.3208    2.6168 H       1  UNK1        0.0290
     59 H           5.3597   -3.5159    1.0873 H       1  UNK1        0.0290
     60 H           6.1335   -1.1454    0.4189 H       1  UNK1        0.0574
     61 H           8.5641   -2.4875    1.2184 H       1  UNK1        0.1190
     62 H           8.0443   -1.8617   -0.2860 H       1  UNK1        0.1190
     63 H           8.7531   -0.9041    3.6139 H       1  UNK1        0.2951
     64 H           0.5728    2.3146   -0.1791 H       2  GLY2        0.1493
     65 HA1         1.3252    3.9392    2.2291 H       2  GLY2        0.0577
     66 HA2         2.6444    4.0351    1.0362 H       2  GLY2        0.0577
     67 H           0.8310    6.7976   -0.4041 H       2  GLY2        0.2951
     68 H          -3.8833    0.3398   -3.4671 H       2  GLY2        0.1493
     69 HA1        -5.1434    0.0812   -5.6023 H       2  GLY2        0.0577
     70 HA2        -4.6512   -1.6711   -5.4550 H       2  GLY2        0.0577
     71 H          -3.2369   -0.2633   -8.6193 H       2  GLY2        0.2951
     72 H          -5.4525    3.5371    1.4233 H       1  UNK1        0.2951
@<TRIPOS>BOND
     1     1     2    1
     2     2     3    1
     3     3     4    1
     4     4     5    1
     5     5     6    2
     6     5     7   am
     7     7     8    1
     8     8     9    1
     9     9    10    1
    10    10    11    1
    11    11    12    1
    12    12    13    1
    13    13    14    1
    14    14    15   am
    15    15    16    2
    16    15    17    1
    17    17    18    1
    18    18    19    1
    19    19    20    1
    20    19    21    1
    21    21    22    1
    22    21    23    2
    23    13    24    1
    24    24    25    2
    25    24    26   am
    26    26    27    1
    27    27    28    1
    28    28    29    1
    29    28    30    2
    30     8    31    1
    31    31    32    2
    32    31    33   am
    33    33    34    1
    34    34    35    1
    35    35    36    1
    36    35    37    2
    37     2    38    1
    38    38    39    1
    39    38    40    2
    40     1    41    1
    41     1    42    1
    42     2    43    1
    43     3    44    1
    44     3    45    1
    45     4    46    1
    46     4    47    1
    47     7    48    1
    48     8    49    1
    49     9    50    1
    50     9    51    1
    51    12    52    1
    52    12    53    1
    53    13    54    1
    54    14    55    1
    55    17    56    1
    56    17    57    1
    57    18    58    1
    58    18    59    1
    59    19    60    1
    60    20    61    1
    61    20    62    1
    62    22    63    1
    63    26    64    1
    64    27    65    1
    65    27    66    1
    66    29    67    1
    67    33    68    1
    68    34    69    1
    69    34    70    1
    70    36    71    1
    71    39    72    1
