
     RDKit          3D

 57 59  0  0  0  0  0  0  0  0999 V2000
   -8.7171    2.0711   -0.4713 C   0  0  0  0  0  0  0  0  0  0  0  0
   -7.6175    1.1676   -1.5054 S   0  0  0  0  0  6  0  0  0  0  0  0
   -7.1667    2.0238   -2.6548 O   0  0  0  0  0  0  0  0  0  0  0  0
   -8.3157   -0.0303   -2.1208 O   0  0  0  0  0  0  0  0  0  0  0  0
   -6.2675    0.6027   -0.5403 C   0  0  0  0  0  0  0  0  0  0  0  0
   -6.2719   -0.6799    0.0043 C   0  0  0  0  0  0  0  0  0  0  0  0
   -5.2327   -1.1674    0.7732 C   0  0  0  0  0  0  0  0  0  0  0  0
   -4.1571   -0.3492    1.0057 C   0  0  0  0  0  0  0  0  0  0  0  0
   -3.0579   -0.8659    1.8116 C   0  0  0  0  0  0  0  0  0  0  0  0
   -3.3235   -1.1027    3.0223 O   0  0  0  0  0  0  0  0  0  0  0  0
   -1.7972   -1.0714    1.2337 N   0  0  0  0  0  0  0  0  0  0  0  0
   -1.5511   -0.7887   -0.1537 C   0  0  0  0  0  0  0  0  0  0  0  0
   -0.1356   -0.1811   -0.1643 C   0  0  0  0  0  0  0  0  0  0  0  0
    0.8211   -1.3439    0.0020 C   0  0  0  0  0  0  0  0  0  0  0  0
    2.1795   -0.7791    0.1407 C   0  0  0  0  0  0  0  0  0  0  0  0
    2.6025   -0.1993    1.3442 C   0  0  0  0  0  0  0  0  0  0  0  0
    3.8644    0.3433    1.4580 C   0  0  0  0  0  0  0  0  0  0  0  0
    4.7308    0.3239    0.3885 C   0  0  0  0  0  0  0  0  0  0  0  0
    6.0442    0.9071    0.5466 C   0  0  0  0  0  0  0  0  0  0  0  0
    6.3581    1.3963    1.6605 O   0  0  0  0  0  0  0  0  0  0  0  0
    7.0119    0.9631   -0.4867 N   0  0  0  0  0  0  0  0  0  0  0  0
    8.3002    1.5491   -0.2919 C   0  0  0  0  0  0  0  0  0  0  0  0
    8.5783    2.0355    0.8663 N   0  0  0  0  0  0  0  0  0  0  0  0
    9.2539    1.5977   -1.3455 N   0  0  0  0  0  0  0  0  0  0  0  0
    4.3035   -0.2470   -0.7824 C   0  0  0  0  0  0  0  0  0  0  0  0
    3.0262   -0.8089   -0.9332 C   0  0  0  0  0  0  0  0  0  0  0  0
    2.6742   -1.4036   -2.2043 C   0  0  0  0  0  0  0  0  0  0  0  0
    3.7692   -1.2740   -3.0770 F   0  0  0  0  0  0  0  0  0  0  0  0
    2.4133   -2.7521   -2.1775 F   0  0  0  0  0  0  0  0  0  0  0  0
    1.6654   -0.6865   -2.8307 F   0  0  0  0  0  0  0  0  0  0  0  0
    0.4204   -2.1441    1.1956 C   0  0  0  0  0  0  0  0  0  0  0  0
   -0.6976   -1.5673    2.0235 C   0  0  0  0  0  0  0  0  0  0  0  0
   -4.1154    0.9141    0.4908 C   0  0  0  0  0  0  0  0  0  0  0  0
   -5.1651    1.3774   -0.2741 C   0  0  0  0  0  0  0  0  0  0  0  0
   -8.4564    1.9194    0.5767 H   0  0  0  0  0  0  0  0  0  0  0  0
   -9.7908    1.7437   -0.5729 H   0  0  0  0  0  0  0  0  0  0  0  0
   -8.6211    3.1507   -0.7174 H   0  0  0  0  0  0  0  0  0  0  0  0
   -7.1298   -1.3077   -0.1899 H   0  0  0  0  0  0  0  0  0  0  0  0
   -5.2651   -2.1720    1.1840 H   0  0  0  0  0  0  0  0  0  0  0  0
   -2.2639   -0.1506   -0.6581 H   0  0  0  0  0  0  0  0  0  0  0  0
   -1.4830   -1.7732   -0.7005 H   0  0  0  0  0  0  0  0  0  0  0  0
   -0.1079    0.5027    0.7176 H   0  0  0  0  0  0  0  0  0  0  0  0
   -0.0543    0.3499   -1.1158 H   0  0  0  0  0  0  0  0  0  0  0  0
    0.7086   -1.9196   -0.9523 H   0  0  0  0  0  0  0  0  0  0  0  0
    1.8950   -0.2015    2.1635 H   0  0  0  0  0  0  0  0  0  0  0  0
    4.1126    0.7708    2.4203 H   0  0  0  0  0  0  0  0  0  0  0  0
    6.7837    0.5726   -1.4063 H   0  0  0  0  0  0  0  0  0  0  0  0
    9.5224    2.4704    1.0257 H   0  0  0  0  0  0  0  0  0  0  0  0
   10.2771    1.6312   -1.1845 H   0  0  0  0  0  0  0  0  0  0  0  0
    8.9181    1.5999   -2.3244 H   0  0  0  0  0  0  0  0  0  0  0  0
    4.9823   -0.2610   -1.6175 H   0  0  0  0  0  0  0  0  0  0  0  0
    1.2767   -2.2787    1.9243 H   0  0  0  0  0  0  0  0  0  0  0  0
    0.0656   -3.1636    0.8548 H   0  0  0  0  0  0  0  0  0  0  0  0
   -0.3339   -0.8090    2.7509 H   0  0  0  0  0  0  0  0  0  0  0  0
   -1.1058   -2.4393    2.6228 H   0  0  0  0  0  0  0  0  0  0  0  0
   -3.2551    1.5513    0.6878 H   0  0  0  0  0  0  0  0  0  0  0  0
   -5.1024    2.3832   -0.6699 H   0  0  0  0  0  0  0  0  0  0  0  0
  1  2  1  0
  2  3  2  0
  2  4  2  0
  2  5  1  0
  5  6  2  0
  6  7  1  0
  7  8  2  0
  8  9  1  0
  9 10  2  0
  9 11  1  0
 11 12  1  0
 12 13  1  0
 13 14  1  0
 14 15  1  0
 15 16  2  0
 16 17  1  0
 17 18  2  0
 18 19  1  0
 19 20  2  0
 19 21  1  0
 21 22  1  0
 22 23  2  3
 22 24  1  0
 18 25  1  0
 25 26  2  0
 26 27  1  0
 27 28  1  0
 27 29  1  0
 27 30  1  0
 14 31  1  0
 31 32  1  0
  8 33  1  0
 33 34  2  0
 34  5  1  0
 32 11  1  0
 26 15  1  0
  1 35  1  0
  1 36  1  0
  1 37  1  0
  6 38  1  0
  7 39  1  0
 12 40  1  0
 12 41  1  0
 13 42  1  0
 13 43  1  0
 14 44  1  0
 16 45  1  0
 17 46  1  0
 21 47  1  0
 23 48  1  0
 24 49  1  0
 24 50  1  0
 25 51  1  0
 31 52  1  0
 31 53  1  0
 32 54  1  0
 32 55  1  0
 33 56  1  0
 34 57  1  0
M  END
$$$$
