@<TRIPOS>MOLECULE
*****
 57 59 0 0 0
SMALL
GASTEIGER

@<TRIPOS>ATOM
      1 C          -8.7171    2.0711   -0.4713 C.3     1  UNL1        0.0596
      2 S          -7.6175    1.1676   -1.5054 S.O2    1  UNL1       -0.0059
      3 O          -7.1667    2.0238   -2.6548 O.2     1  UNL1       -0.1696
      4 O          -8.3157   -0.0303   -2.1208 O.2     1  UNL1       -0.1696
      5 C          -6.2675    0.6027   -0.5403 C.ar    1  UNL1        0.0879
      6 C          -6.2719   -0.6799    0.0043 C.ar    1  UNL1       -0.0362
      7 C          -5.2327   -1.1674    0.7732 C.ar    1  UNL1       -0.0478
      8 C          -4.1571   -0.3492    1.0057 C.ar    1  UNL1        0.0370
      9 C          -3.0579   -0.8659    1.8116 C.2     1  UNL1        0.2466
     10 O          -3.3235   -1.1027    3.0223 O.2     1  UNL1       -0.2700
     11 N          -1.7972   -1.0714    1.2337 N.am    1  UNL1       -0.2975
     12 C          -1.5511   -0.7887   -0.1537 C.3     1  UNL1        0.0155
     13 C          -0.1356   -0.1811   -0.1643 C.3     1  UNL1       -0.0302
     14 C           0.8211   -1.3439    0.0020 C.3     1  UNL1       -0.0125
     15 C           2.1795   -0.7791    0.1407 C.ar    1  UNL1       -0.0325
     16 C           2.6025   -0.1993    1.3442 C.ar    1  UNL1       -0.0570
     17 C           3.8644    0.3433    1.4580 C.ar    1  UNL1       -0.0479
     18 C           4.7308    0.3239    0.3885 C.ar    1  UNL1        0.0536
     19 C           6.0442    0.9071    0.5466 C.2     1  UNL1        0.3066
     20 O           6.3581    1.3963    1.6605 O.2     1  UNL1       -0.2516
     21 N           7.0119    0.9631   -0.4867 N.am    1  UNL1       -0.1709
     22 C           8.3002    1.5491   -0.2919 C.2     1  UNL1        0.3751
     23 N           8.5783    2.0355    0.8663 N.pl3   1  UNL1       -0.1313
     24 N           9.2539    1.5977   -1.3455 N.pl3   1  UNL1       -0.2906
     25 C           4.3035   -0.2470   -0.7824 C.ar    1  UNL1       -0.0363
     26 C           3.0262   -0.8089   -0.9332 C.ar    1  UNL1        0.0590
     27 C           2.6742   -1.4036   -2.2043 C.3     1  UNL1        0.4177
     28 F           3.7692   -1.2740   -3.0770 F       1  UNL1       -0.1659
     29 F           2.4133   -2.7521   -2.1775 F       1  UNL1       -0.1659
     30 F           1.6654   -0.6865   -2.8307 F       1  UNL1       -0.1659
     31 C           0.4204   -2.1441    1.1956 C.3     1  UNL1       -0.0302
     32 C          -0.6976   -1.5673    2.0235 C.3     1  UNL1        0.0155
     33 C          -4.1154    0.9141    0.4908 C.ar    1  UNL1       -0.0478
     34 C          -5.1651    1.3774   -0.2741 C.ar    1  UNL1       -0.0362
     35 H          -8.4564    1.9194    0.5767 H       1  UNL1        0.0468
     36 H          -9.7908    1.7437   -0.5729 H       1  UNL1        0.0468
     37 H          -8.6211    3.1507   -0.7174 H       1  UNL1        0.0468
     38 H          -7.1298   -1.3077   -0.1899 H       1  UNL1        0.0637
     39 H          -5.2651   -2.1720    1.1840 H       1  UNL1        0.0626
     40 H          -2.2639   -0.1506   -0.6581 H       1  UNL1        0.0465
     41 H          -1.4830   -1.7732   -0.7005 H       1  UNL1        0.0465
     42 H          -0.1079    0.5027    0.7176 H       1  UNL1        0.0286
     43 H          -0.0543    0.3499   -1.1158 H       1  UNL1        0.0286
     44 H           0.7086   -1.9196   -0.9523 H       1  UNL1        0.0350
     45 H           1.8950   -0.2015    2.1635 H       1  UNL1        0.0621
     46 H           4.1126    0.7708    2.4203 H       1  UNL1        0.0626
     47 H           6.7837    0.5726   -1.4063 H       1  UNL1        0.2545
     48 H           9.5224    2.4704    1.0257 H       1  UNL1        0.3060
     49 H          10.2771    1.6312   -1.1845 H       1  UNL1        0.2545
     50 H           8.9181    1.5999   -2.3244 H       1  UNL1        0.2545
     51 H           4.9823   -0.2610   -1.6175 H       1  UNL1        0.0631
     52 H           1.2767   -2.2787    1.9243 H       1  UNL1        0.0286
     53 H           0.0656   -3.1636    0.8548 H       1  UNL1        0.0286
     54 H          -0.3339   -0.8090    2.7509 H       1  UNL1        0.0465
     55 H          -1.1058   -2.4393    2.6228 H       1  UNL1        0.0465
     56 H          -3.2551    1.5513    0.6878 H       1  UNL1        0.0626
     57 H          -5.1024    2.3832   -0.6699 H       1  UNL1        0.0637
@<TRIPOS>BOND
     1     1     2    1
     2     2     3    2
     3     2     4    2
     4     2     5    1
     5     5     6   ar
     6     6     7   ar
     7     7     8   ar
     8     8     9    1
     9     9    10    2
    10     9    11   am
    11    11    12    1
    12    12    13    1
    13    13    14    1
    14    14    15    1
    15    15    16   ar
    16    16    17   ar
    17    17    18   ar
    18    18    19    1
    19    19    20    2
    20    19    21   am
    21    21    22    1
    22    22    23    2
    23    22    24    1
    24    18    25   ar
    25    25    26   ar
    26    26    27    1
    27    27    28    1
    28    27    29    1
    29    27    30    1
    30    14    31    1
    31    31    32    1
    32     8    33   ar
    33    33    34   ar
    34    34     5   ar
    35    32    11    1
    36    26    15   ar
    37     1    35    1
    38     1    36    1
    39     1    37    1
    40     6    38    1
    41     7    39    1
    42    12    40    1
    43    12    41    1
    44    13    42    1
    45    13    43    1
    46    14    44    1
    47    16    45    1
    48    17    46    1
    49    21    47    1
    50    23    48    1
    51    24    49    1
    52    24    50    1
    53    25    51    1
    54    31    52    1
    55    31    53    1
    56    32    54    1
    57    32    55    1
    58    33    56    1
    59    34    57    1
