@<TRIPOS>MOLECULE
*****
 53 54 0 0 0
SMALL
GASTEIGER

@<TRIPOS>ATOM
      1 C           7.2721    2.6454    0.8914 C.3     1  UNL1       -0.0653
      2 C           6.6298    1.6080    0.0048 C.3     1  UNL1       -0.0559
      3 C           5.5389    0.8720    0.7680 C.3     1  UNL1       -0.0533
      4 C           4.9128   -0.1704   -0.0997 C.3     1  UNL1       -0.0530
      5 C           3.8266   -0.9089    0.6789 C.3     1  UNL1       -0.0515
      6 C           3.2229   -1.9684   -0.1790 C.3     1  UNL1       -0.0305
      7 C           2.1452   -2.7876    0.4553 C.3     1  UNL1        0.1094
      8 S           0.7024   -1.8688    0.9949 S.3     1  UNL1       -0.0712
      9 C          -0.1716   -1.1150   -0.3815 C.ar    1  UNL1        0.1920
     10 N           0.2825   -1.2178   -1.6237 N.ar    1  UNL1       -0.2101
     11 C          -0.3644   -0.6627   -2.6516 C.ar    1  UNL1        0.1354
     12 CL          0.2781   -0.8248   -4.2845 Cl      1  UNL1       -0.0618
     13 C          -1.5325    0.0308   -2.3955 C.ar    1  UNL1        0.0154
     14 C          -2.0230    0.1493   -1.1129 C.ar    1  UNL1        0.1287
     15 N          -3.2095    0.8700   -0.9037 N.pl3   1  UNL1       -0.2991
     16 C          -4.2397    0.4691    0.0072 C.ar    1  UNL1        0.0356
     17 C          -4.1907   -0.6870    0.7385 C.ar    1  UNL1       -0.0402
     18 C          -5.2239   -1.0151    1.5852 C.ar    1  UNL1       -0.0597
     19 C          -6.3285   -0.2317    1.7439 C.ar    1  UNL1       -0.0585
     20 C          -6.4006    0.9424    1.0159 C.ar    1  UNL1       -0.0458
     21 C          -7.5763    1.8602    1.1274 C.3     1  UNL1       -0.0394
     22 C          -5.3697    1.2766    0.1664 C.ar    1  UNL1       -0.0264
     23 C          -5.4123    2.5440   -0.6296 C.3     1  UNL1       -0.0377
     24 N          -1.3096   -0.4373   -0.1484 N.ar    1  UNL1       -0.2067
     25 C           1.8147   -3.9080   -0.4458 C.2     1  UNL1        0.3182
     26 O           1.9405   -5.0781   -0.0487 O.2     1  UNL1       -0.2498
     27 O           1.3692   -3.6531   -1.7176 O.3     1  UNL1       -0.4798
     28 H           8.0746    2.1992    1.5294 H       1  UNL1        0.0230
     29 H           7.6864    3.4485    0.2355 H       1  UNL1        0.0230
     30 H           6.4978    3.1254    1.5247 H       1  UNL1        0.0230
     31 H           6.1870    2.1665   -0.8575 H       1  UNL1        0.0263
     32 H           7.3987    0.9366   -0.4107 H       1  UNL1        0.0263
     33 H           5.9620    0.4270    1.6799 H       1  UNL1        0.0265
     34 H           4.8063    1.6446    1.0709 H       1  UNL1        0.0265
     35 H           4.4204    0.2986   -0.9748 H       1  UNL1        0.0265
     36 H           5.6544   -0.8899   -0.5182 H       1  UNL1        0.0265
     37 H           4.1894   -1.3172    1.6225 H       1  UNL1        0.0266
     38 H           3.0429   -0.1380    0.9012 H       1  UNL1        0.0266
     39 H           4.0493   -2.6829   -0.4565 H       1  UNL1        0.0281
     40 H           2.8524   -1.5810   -1.1527 H       1  UNL1        0.0281
     41 H           2.5821   -3.2306    1.4111 H       1  UNL1        0.0531
     42 H          -2.0304    0.4695   -3.2557 H       1  UNL1        0.0682
     43 H          -3.3343    1.7525   -1.4539 H       1  UNL1        0.1536
     44 H          -3.3174   -1.3268    0.6237 H       1  UNL1        0.0636
     45 H          -5.1478   -1.9399    2.1487 H       1  UNL1        0.0618
     46 H          -7.1535   -0.4681    2.4021 H       1  UNL1        0.0620
     47 H          -7.2610    2.8584    1.4578 H       1  UNL1        0.0278
     48 H          -8.3506    1.3990    1.7988 H       1  UNL1        0.0278
     49 H          -7.9679    1.9816    0.0755 H       1  UNL1        0.0278
     50 H          -4.4945    3.1237   -0.4402 H       1  UNL1        0.0278
     51 H          -6.3280    3.0941   -0.3504 H       1  UNL1        0.0278
     52 H          -5.5351    2.3097   -1.7218 H       1  UNL1        0.0278
     53 H           0.9335   -4.3936   -2.2818 H       1  UNL1        0.2951
@<TRIPOS>BOND
     1     1     2    1
     2     2     3    1
     3     3     4    1
     4     4     5    1
     5     5     6    1
     6     6     7    1
     7     7     8    1
     8     8     9    1
     9     9    10   ar
    10    10    11   ar
    11    11    12    1
    12    11    13   ar
    13    13    14   ar
    14    14    15    1
    15    15    16    1
    16    16    17   ar
    17    17    18   ar
    18    18    19   ar
    19    19    20   ar
    20    20    21    1
    21    20    22   ar
    22    22    23    1
    23    14    24   ar
    24     7    25    1
    25    25    26    2
    26    25    27    1
    27    24     9   ar
    28    22    16   ar
    29     1    28    1
    30     1    29    1
    31     1    30    1
    32     2    31    1
    33     2    32    1
    34     3    33    1
    35     3    34    1
    36     4    35    1
    37     4    36    1
    38     5    37    1
    39     5    38    1
    40     6    39    1
    41     6    40    1
    42     7    41    1
    43    13    42    1
    44    15    43    1
    45    17    44    1
    46    18    45    1
    47    19    46    1
    48    21    47    1
    49    21    48    1
    50    21    49    1
    51    23    50    1
    52    23    51    1
    53    23    52    1
    54    27    53    1
