
     RDKit          3D

 53 54  0  0  0  0  0  0  0  0999 V2000
    7.2721    2.6454    0.8914 C   0  0  0  0  0  0  0  0  0  0  0  0
    6.6298    1.6080    0.0048 C   0  0  0  0  0  0  0  0  0  0  0  0
    5.5389    0.8720    0.7680 C   0  0  0  0  0  0  0  0  0  0  0  0
    4.9128   -0.1704   -0.0997 C   0  0  0  0  0  0  0  0  0  0  0  0
    3.8266   -0.9089    0.6789 C   0  0  0  0  0  0  0  0  0  0  0  0
    3.2229   -1.9684   -0.1790 C   0  0  0  0  0  0  0  0  0  0  0  0
    2.1452   -2.7876    0.4553 C   0  0  0  0  0  0  0  0  0  0  0  0
    0.7024   -1.8688    0.9949 S   0  0  0  0  0  0  0  0  0  0  0  0
   -0.1716   -1.1150   -0.3815 C   0  0  0  0  0  0  0  0  0  0  0  0
    0.2825   -1.2178   -1.6237 N   0  0  0  0  0  0  0  0  0  0  0  0
   -0.3644   -0.6627   -2.6516 C   0  0  0  0  0  0  0  0  0  0  0  0
    0.2781   -0.8248   -4.2845 Cl  0  0  0  0  0  0  0  0  0  0  0  0
   -1.5325    0.0308   -2.3955 C   0  0  0  0  0  0  0  0  0  0  0  0
   -2.0230    0.1493   -1.1129 C   0  0  0  0  0  0  0  0  0  0  0  0
   -3.2095    0.8700   -0.9037 N   0  0  0  0  0  0  0  0  0  0  0  0
   -4.2397    0.4691    0.0072 C   0  0  0  0  0  0  0  0  0  0  0  0
   -4.1907   -0.6870    0.7385 C   0  0  0  0  0  0  0  0  0  0  0  0
   -5.2239   -1.0151    1.5852 C   0  0  0  0  0  0  0  0  0  0  0  0
   -6.3285   -0.2317    1.7439 C   0  0  0  0  0  0  0  0  0  0  0  0
   -6.4006    0.9424    1.0159 C   0  0  0  0  0  0  0  0  0  0  0  0
   -7.5763    1.8602    1.1274 C   0  0  0  0  0  0  0  0  0  0  0  0
   -5.3697    1.2766    0.1664 C   0  0  0  0  0  0  0  0  0  0  0  0
   -5.4123    2.5440   -0.6296 C   0  0  0  0  0  0  0  0  0  0  0  0
   -1.3096   -0.4373   -0.1484 N   0  0  0  0  0  0  0  0  0  0  0  0
    1.8147   -3.9080   -0.4458 C   0  0  0  0  0  0  0  0  0  0  0  0
    1.9405   -5.0781   -0.0487 O   0  0  0  0  0  0  0  0  0  0  0  0
    1.3692   -3.6531   -1.7176 O   0  0  0  0  0  0  0  0  0  0  0  0
    8.0746    2.1992    1.5294 H   0  0  0  0  0  0  0  0  0  0  0  0
    7.6864    3.4485    0.2355 H   0  0  0  0  0  0  0  0  0  0  0  0
    6.4978    3.1254    1.5247 H   0  0  0  0  0  0  0  0  0  0  0  0
    6.1870    2.1665   -0.8575 H   0  0  0  0  0  0  0  0  0  0  0  0
    7.3987    0.9366   -0.4107 H   0  0  0  0  0  0  0  0  0  0  0  0
    5.9620    0.4270    1.6799 H   0  0  0  0  0  0  0  0  0  0  0  0
    4.8063    1.6446    1.0709 H   0  0  0  0  0  0  0  0  0  0  0  0
    4.4204    0.2986   -0.9748 H   0  0  0  0  0  0  0  0  0  0  0  0
    5.6544   -0.8899   -0.5182 H   0  0  0  0  0  0  0  0  0  0  0  0
    4.1894   -1.3172    1.6225 H   0  0  0  0  0  0  0  0  0  0  0  0
    3.0429   -0.1380    0.9012 H   0  0  0  0  0  0  0  0  0  0  0  0
    4.0493   -2.6829   -0.4565 H   0  0  0  0  0  0  0  0  0  0  0  0
    2.8524   -1.5810   -1.1527 H   0  0  0  0  0  0  0  0  0  0  0  0
    2.5821   -3.2306    1.4111 H   0  0  0  0  0  0  0  0  0  0  0  0
   -2.0304    0.4695   -3.2557 H   0  0  0  0  0  0  0  0  0  0  0  0
   -3.3343    1.7525   -1.4539 H   0  0  0  0  0  0  0  0  0  0  0  0
   -3.3174   -1.3268    0.6237 H   0  0  0  0  0  0  0  0  0  0  0  0
   -5.1478   -1.9399    2.1487 H   0  0  0  0  0  0  0  0  0  0  0  0
   -7.1535   -0.4681    2.4021 H   0  0  0  0  0  0  0  0  0  0  0  0
   -7.2610    2.8584    1.4578 H   0  0  0  0  0  0  0  0  0  0  0  0
   -8.3506    1.3990    1.7988 H   0  0  0  0  0  0  0  0  0  0  0  0
   -7.9679    1.9816    0.0755 H   0  0  0  0  0  0  0  0  0  0  0  0
   -4.4945    3.1237   -0.4402 H   0  0  0  0  0  0  0  0  0  0  0  0
   -6.3280    3.0941   -0.3504 H   0  0  0  0  0  0  0  0  0  0  0  0
   -5.5351    2.3097   -1.7218 H   0  0  0  0  0  0  0  0  0  0  0  0
    0.9335   -4.3936   -2.2818 H   0  0  0  0  0  0  0  0  0  0  0  0
  1  2  1  0
  2  3  1  0
  3  4  1  0
  4  5  1  0
  5  6  1  0
  6  7  1  0
  7  8  1  0
  8  9  1  0
  9 10  2  0
 10 11  1  0
 11 12  1  0
 11 13  2  0
 13 14  1  0
 14 15  1  0
 15 16  1  0
 16 17  2  0
 17 18  1  0
 18 19  2  0
 19 20  1  0
 20 21  1  0
 20 22  2  0
 22 23  1  0
 14 24  2  0
  7 25  1  0
 25 26  2  0
 25 27  1  0
 24  9  1  0
 22 16  1  0
  1 28  1  0
  1 29  1  0
  1 30  1  0
  2 31  1  0
  2 32  1  0
  3 33  1  0
  3 34  1  0
  4 35  1  0
  4 36  1  0
  5 37  1  0
  5 38  1  0
  6 39  1  0
  6 40  1  0
  7 41  1  0
 13 42  1  0
 15 43  1  0
 17 44  1  0
 18 45  1  0
 19 46  1  0
 21 47  1  0
 21 48  1  0
 21 49  1  0
 23 50  1  0
 23 51  1  0
 23 52  1  0
 27 53  1  0
M  END
$$$$
