
     RDKit          3D

 37 39  0  0  0  0  0  0  0  0999 V2000
   -2.8550    0.4785    1.7264 C   0  0  0  0  0  0  0  0  0  0  0  0
   -2.5217    0.6416    0.2589 C   0  0  2  0  0  0  0  0  0  0  0  0
   -2.2866    1.9459   -0.0736 F   0  0  0  0  0  0  0  0  0  0  0  0
   -3.6307    0.0204   -0.5439 C   0  0  0  0  0  0  0  0  0  0  0  0
   -2.9703   -1.1426   -1.2384 C   0  0  0  0  0  0  0  0  0  0  0  0
   -1.5802   -0.5584   -1.4814 C   0  0  0  0  0  0  0  0  0  0  0  0
   -1.2570   -0.2267   -0.0232 C   0  0  1  0  0  0  0  0  0  0  0  0
   -0.0980    0.5551    0.1604 N   0  0  0  0  0  0  0  0  0  0  0  0
    1.2465    0.2414    0.1024 C   0  0  0  0  0  0  0  0  0  0  0  0
    2.2218    1.2461    0.2244 C   0  0  0  0  0  0  0  0  0  0  0  0
    1.9258    2.6515    0.3153 C   0  0  0  0  0  0  0  0  0  0  0  0
    3.0151    3.5746    0.5392 N   0  0  0  0  0  0  0  0  0  0  0  0
    0.8045    3.1639    0.2196 O   0  0  0  0  0  0  0  0  0  0  0  0
    3.5623    0.8768    0.2146 C   0  0  0  0  0  0  0  0  0  0  0  0
    3.9895   -0.3619    0.0965 N   0  0  0  0  0  0  0  0  0  0  0  0
    3.0758   -1.3117   -0.0199 N   0  0  0  0  0  0  0  0  0  0  0  0
    3.2670   -2.6510   -0.1484 C   0  0  0  0  0  0  0  0  0  0  0  0
    2.0571   -3.2626   -0.2321 C   0  0  0  0  0  0  0  0  0  0  0  0
    1.0774   -2.2722   -0.1533 C   0  0  0  0  0  0  0  0  0  0  0  0
    1.7359   -1.0697   -0.0223 C   0  0  0  0  0  0  0  0  0  0  0  0
   -1.9326    0.5100    2.3411 H   0  0  0  0  0  0  0  0  0  0  0  0
   -3.5870    1.2332    2.0307 H   0  0  0  0  0  0  0  0  0  0  0  0
   -3.3381   -0.5346    1.8183 H   0  0  0  0  0  0  0  0  0  0  0  0
   -3.9336    0.7371   -1.3578 H   0  0  0  0  0  0  0  0  0  0  0  0
   -4.4987   -0.2752    0.0741 H   0  0  0  0  0  0  0  0  0  0  0  0
   -2.8334   -1.9485   -0.4892 H   0  0  0  0  0  0  0  0  0  0  0  0
   -3.4633   -1.4604   -2.1511 H   0  0  0  0  0  0  0  0  0  0  0  0
   -1.7475    0.4024   -2.0472 H   0  0  0  0  0  0  0  0  0  0  0  0
   -0.8880   -1.2230   -1.9672 H   0  0  0  0  0  0  0  0  0  0  0  0
   -1.4236   -1.0982    0.5821 H   0  0  0  0  0  0  0  0  0  0  0  0
   -0.3297    1.5813    0.4154 H   0  0  0  0  0  0  0  0  0  0  0  0
    3.0457    4.0810    1.4393 H   0  0  0  0  0  0  0  0  0  0  0  0
    3.7137    3.6837   -0.2156 H   0  0  0  0  0  0  0  0  0  0  0  0
    4.3076    1.6619    0.3103 H   0  0  0  0  0  0  0  0  0  0  0  0
    4.2679   -3.1154   -0.1749 H   0  0  0  0  0  0  0  0  0  0  0  0
    1.8446   -4.3186   -0.3403 H   0  0  0  0  0  0  0  0  0  0  0  0
    0.0169   -2.4558   -0.1894 H   0  0  0  0  0  0  0  0  0  0  0  0
  1  2  1  0
  2  3  1  6
  2  4  1  0
  4  5  1  0
  5  6  1  0
  6  7  1  0
  7  8  1  0
  8  9  1  0
  9 10  2  0
 10 11  1  0
 11 12  1  0
 11 13  2  0
 10 14  1  0
 14 15  2  0
 15 16  1  0
 16 17  1  0
 17 18  2  0
 18 19  1  0
 19 20  2  0
  7  2  1  0
 20  9  1  0
 20 16  1  0
  1 21  1  0
  1 22  1  0
  1 23  1  0
  4 24  1  0
  4 25  1  0
  5 26  1  0
  5 27  1  0
  6 28  1  0
  6 29  1  0
  7 30  1  1
  8 31  1  0
 12 32  1  0
 12 33  1  0
 14 34  1  0
 17 35  1  0
 18 36  1  0
 19 37  1  0
M  END
$$$$
