@<TRIPOS>MOLECULE
*****
 37 39 0 0 0
SMALL
GASTEIGER

@<TRIPOS>ATOM
      1 C          -2.8550    0.4785    1.7264 C.3     1  UNL1       -0.0292
      2 C          -2.5217    0.6416    0.2589 C.3     1  UNL1        0.1269
      3 F          -2.2866    1.9459   -0.0736 F       1  UNL1       -0.2403
      4 C          -3.6307    0.0204   -0.5439 C.3     1  UNL1       -0.0173
      5 C          -2.9703   -1.1426   -1.2384 C.3     1  UNL1       -0.0484
      6 C          -1.5802   -0.5584   -1.4814 C.3     1  UNL1       -0.0315
      7 C          -1.2570   -0.2267   -0.0232 C.3     1  UNL1        0.0543
      8 N          -0.0980    0.5551    0.1604 N.pl3   1  UNL1       -0.3357
      9 C           1.2465    0.2414    0.1024 C.ar    1  UNL1        0.0669
     10 C           2.2218    1.2461    0.2244 C.ar    1  UNL1        0.0790
     11 C           1.9258    2.6515    0.3153 C.2     1  UNL1        0.2449
     12 N           3.0151    3.5746    0.5392 N.am    1  UNL1       -0.3253
     13 O           0.8045    3.1639    0.2196 O.2     1  UNL1       -0.2703
     14 C           3.5623    0.8768    0.2146 C.ar    1  UNL1        0.0623
     15 N           3.9895   -0.3619    0.0965 N.ar    1  UNL1       -0.1740
     16 N           3.0758   -1.3117   -0.0199 N.ar    1  UNL1       -0.2381
     17 C           3.2670   -2.6510   -0.1484 C.ar    1  UNL1        0.0299
     18 C           2.0571   -3.2626   -0.2321 C.ar    1  UNL1       -0.0415
     19 C           1.0774   -2.2722   -0.1533 C.ar    1  UNL1       -0.0330
     20 C           1.7359   -1.0697   -0.0223 C.ar    1  UNL1        0.0869
     21 H          -1.9326    0.5100    2.3411 H       1  UNL1        0.0261
     22 H          -3.5870    1.2332    2.0307 H       1  UNL1        0.0261
     23 H          -3.3381   -0.5346    1.8183 H       1  UNL1        0.0261
     24 H          -3.9336    0.7371   -1.3578 H       1  UNL1        0.0296
     25 H          -4.4987   -0.2752    0.0741 H       1  UNL1        0.0296
     26 H          -2.8334   -1.9485   -0.4892 H       1  UNL1        0.0267
     27 H          -3.4633   -1.4604   -2.1511 H       1  UNL1        0.0267
     28 H          -1.7475    0.4024   -2.0472 H       1  UNL1        0.0284
     29 H          -0.8880   -1.2230   -1.9672 H       1  UNL1        0.0284
     30 H          -1.4236   -1.0982    0.5821 H       1  UNL1        0.0528
     31 H          -0.3297    1.5813    0.4154 H       1  UNL1        0.1465
     32 H           3.0457    4.0810    1.4393 H       1  UNL1        0.1453
     33 H           3.7137    3.6837   -0.2156 H       1  UNL1        0.1453
     34 H           4.3076    1.6619    0.3103 H       1  UNL1        0.0856
     35 H           4.2679   -3.1154   -0.1749 H       1  UNL1        0.0830
     36 H           1.8446   -4.3186   -0.3403 H       1  UNL1        0.0633
     37 H           0.0169   -2.4558   -0.1894 H       1  UNL1        0.0640
@<TRIPOS>BOND
     1     1     2    1
     2     2     3    1
     3     2     4    1
     4     4     5    1
     5     5     6    1
     6     6     7    1
     7     7     8    1
     8     8     9    1
     9     9    10   ar
    10    10    11    1
    11    11    12   am
    12    11    13    2
    13    10    14   ar
    14    14    15   ar
    15    15    16   ar
    16    16    17   ar
    17    17    18   ar
    18    18    19   ar
    19    19    20   ar
    20     7     2    1
    21    20     9   ar
    22    20    16   ar
    23     1    21    1
    24     1    22    1
    25     1    23    1
    26     4    24    1
    27     4    25    1
    28     5    26    1
    29     5    27    1
    30     6    28    1
    31     6    29    1
    32     7    30    1
    33     8    31    1
    34    12    32    1
    35    12    33    1
    36    14    34    1
    37    17    35    1
    38    18    36    1
    39    19    37    1
