@<TRIPOS>MOLECULE
*****
 50 53 0 0 0
SMALL
GASTEIGER

@<TRIPOS>ATOM
      1 C           6.2372    0.0938    0.9878 C.3     1  UNL1       -0.0607
      2 C           5.6744    0.5952   -0.3217 C.3     1  UNL1       -0.0194
      3 C           5.6320    2.1083   -0.3213 C.3     1  UNL1       -0.0607
      4 C           4.2533    0.1013   -0.4523 C.3     1  UNL1        0.1276
      5 N           4.2459   -1.3264   -0.4312 N.3     1  UNL1       -0.1759
      6 S           3.3535   -1.9832    0.8630 S.O2    1  UNL1        0.0593
      7 O           3.4734   -3.4946    0.7601 O.2     1  UNL1       -0.1530
      8 O           3.8880   -1.6161    2.2144 O.2     1  UNL1       -0.1530
      9 C           1.6698   -1.5087    0.7614 C.ar    1  UNL1        0.1088
     10 C           1.1738   -0.3868    1.3647 C.ar    1  UNL1       -0.0345
     11 C          -0.1738   -0.0424    1.2587 C.ar    1  UNL1       -0.0485
     12 C          -1.0180   -0.8531    0.5296 C.ar    1  UNL1        0.0281
     13 C          -0.5209   -1.9781   -0.0754 C.ar    1  UNL1        0.1381
     14 C           0.8297   -2.3317    0.0255 C.ar    1  UNL1        0.0076
     15 O          -1.5275   -2.5471   -0.6880 O.2     1  UNL1       -0.4547
     16 C          -2.6466   -1.8873   -0.5348 C.ar    1  UNL1        0.1364
     17 C          -3.9290   -2.1200   -0.9975 C.ar    1  UNL1       -0.0170
     18 C          -4.9145   -1.2145   -0.6531 C.ar    1  UNL1       -0.0367
     19 C          -4.6852   -0.1041    0.1194 C.ar    1  UNL1        0.0403
     20 N          -5.7320    0.7778    0.4307 N.am    1  UNL1       -0.2341
     21 C          -7.1104    0.6642   -0.0044 C.3     1  UNL1        0.0572
     22 C          -7.4484    2.1395   -0.2606 C.3     1  UNL1        0.1102
     23 O          -6.7990    2.7617    0.8244 O.3     1  UNL1       -0.4484
     24 C          -5.7087    1.9708    1.2244 C.2     1  UNL1        0.4073
     25 O          -4.8583    2.2257    2.1021 O.2     1  UNL1       -0.2259
     26 C          -3.3899    0.0872    0.5586 C.ar    1  UNL1       -0.0288
     27 C          -2.3643   -0.7722    0.2538 C.ar    1  UNL1        0.0297
     28 C           3.6109    0.6453   -1.6895 C.2     1  UNL1        0.3238
     29 O           3.1414   -0.1083   -2.5655 O.2     1  UNL1       -0.2492
     30 O           3.5292    2.0138   -1.8790 O.3     1  UNL1       -0.4795
     31 H           7.2837    0.4392    1.1432 H       1  UNL1        0.0233
     32 H           6.2477   -1.0134    0.9614 H       1  UNL1        0.0233
     33 H           5.6324    0.4582    1.8215 H       1  UNL1        0.0233
     34 H           6.2879    0.1966   -1.1565 H       1  UNL1        0.0316
     35 H           5.7739    2.4551   -1.3557 H       1  UNL1        0.0233
     36 H           4.6790    2.4223    0.1183 H       1  UNL1        0.0233
     37 H           6.4531    2.4755    0.3495 H       1  UNL1        0.0233
     38 H           3.6773    0.4894    0.4179 H       1  UNL1        0.0595
     39 H           4.1228   -1.8057   -1.3251 H       1  UNL1        0.1489
     40 H           1.8440    0.2407    1.9345 H       1  UNL1        0.0637
     41 H          -0.5758    0.8500    1.7367 H       1  UNL1        0.0625
     42 H           1.2125   -3.2239   -0.4572 H       1  UNL1        0.0674
     43 H          -4.1484   -2.9811   -1.6067 H       1  UNL1        0.0655
     44 H          -5.9061   -1.4260   -1.0300 H       1  UNL1        0.0637
     45 H          -7.2655    0.0576   -0.8942 H       1  UNL1        0.0503
     46 H          -7.6950    0.3242    0.8786 H       1  UNL1        0.0503
     47 H          -8.5197    2.3185   -0.3116 H       1  UNL1        0.0714
     48 H          -6.8861    2.4169   -1.1737 H       1  UNL1        0.0714
     49 H          -3.1654    0.9467    1.1672 H       1  UNL1        0.0643
     50 H           3.0615    2.4490   -2.6488 H       1  UNL1        0.2951
@<TRIPOS>BOND
     1     1     2    1
     2     2     3    1
     3     2     4    1
     4     4     5    1
     5     5     6    1
     6     6     7    2
     7     6     8    2
     8     6     9    1
     9     9    10   ar
    10    10    11   ar
    11    11    12   ar
    12    12    13   ar
    13    13    14   ar
    14    13    15   ar
    15    15    16   ar
    16    16    17   ar
    17    17    18   ar
    18    18    19   ar
    19    19    20    1
    20    20    21    1
    21    21    22    1
    22    22    23    1
    23    23    24    1
    24    24    25    2
    25    19    26   ar
    26    26    27   ar
    27     4    28    1
    28    28    29    2
    29    28    30    1
    30    14     9   ar
    31    27    16   ar
    32    27    12   ar
    33    24    20   am
    34     1    31    1
    35     1    32    1
    36     1    33    1
    37     2    34    1
    38     3    35    1
    39     3    36    1
    40     3    37    1
    41     4    38    1
    42     5    39    1
    43    10    40    1
    44    11    41    1
    45    14    42    1
    46    17    43    1
    47    18    44    1
    48    21    45    1
    49    21    46    1
    50    22    47    1
    51    22    48    1
    52    26    49    1
    53    30    50    1
