
     RDKit          3D

 50 53  0  0  0  0  0  0  0  0999 V2000
    6.2372    0.0938    0.9878 C   0  0  0  0  0  0  0  0  0  0  0  0
    5.6744    0.5952   -0.3217 C   0  0  0  0  0  0  0  0  0  0  0  0
    5.6320    2.1083   -0.3213 C   0  0  0  0  0  0  0  0  0  0  0  0
    4.2533    0.1013   -0.4523 C   0  0  2  0  0  0  0  0  0  0  0  0
    4.2459   -1.3264   -0.4312 N   0  0  0  0  0  0  0  0  0  0  0  0
    3.3535   -1.9832    0.8630 S   0  0  0  0  0  6  0  0  0  0  0  0
    3.4734   -3.4946    0.7601 O   0  0  0  0  0  0  0  0  0  0  0  0
    3.8880   -1.6161    2.2144 O   0  0  0  0  0  0  0  0  0  0  0  0
    1.6698   -1.5087    0.7614 C   0  0  0  0  0  0  0  0  0  0  0  0
    1.1738   -0.3868    1.3647 C   0  0  0  0  0  0  0  0  0  0  0  0
   -0.1738   -0.0424    1.2587 C   0  0  0  0  0  0  0  0  0  0  0  0
   -1.0180   -0.8531    0.5296 C   0  0  0  0  0  0  0  0  0  0  0  0
   -0.5209   -1.9781   -0.0754 C   0  0  0  0  0  0  0  0  0  0  0  0
    0.8297   -2.3317    0.0255 C   0  0  0  0  0  0  0  0  0  0  0  0
   -1.5275   -2.5471   -0.6880 O   0  0  0  0  0  0  0  0  0  0  0  0
   -2.6466   -1.8873   -0.5348 C   0  0  0  0  0  0  0  0  0  0  0  0
   -3.9290   -2.1200   -0.9975 C   0  0  0  0  0  0  0  0  0  0  0  0
   -4.9145   -1.2145   -0.6531 C   0  0  0  0  0  0  0  0  0  0  0  0
   -4.6852   -0.1041    0.1194 C   0  0  0  0  0  0  0  0  0  0  0  0
   -5.7320    0.7778    0.4307 N   0  0  0  0  0  0  0  0  0  0  0  0
   -7.1104    0.6642   -0.0044 C   0  0  0  0  0  0  0  0  0  0  0  0
   -7.4484    2.1395   -0.2606 C   0  0  0  0  0  0  0  0  0  0  0  0
   -6.7990    2.7617    0.8244 O   0  0  0  0  0  0  0  0  0  0  0  0
   -5.7087    1.9708    1.2244 C   0  0  0  0  0  0  0  0  0  0  0  0
   -4.8583    2.2257    2.1021 O   0  0  0  0  0  0  0  0  0  0  0  0
   -3.3899    0.0872    0.5586 C   0  0  0  0  0  0  0  0  0  0  0  0
   -2.3643   -0.7722    0.2538 C   0  0  0  0  0  0  0  0  0  0  0  0
    3.6109    0.6453   -1.6895 C   0  0  0  0  0  0  0  0  0  0  0  0
    3.1414   -0.1083   -2.5655 O   0  0  0  0  0  0  0  0  0  0  0  0
    3.5292    2.0138   -1.8790 O   0  0  0  0  0  0  0  0  0  0  0  0
    7.2837    0.4392    1.1432 H   0  0  0  0  0  0  0  0  0  0  0  0
    6.2477   -1.0134    0.9614 H   0  0  0  0  0  0  0  0  0  0  0  0
    5.6324    0.4582    1.8215 H   0  0  0  0  0  0  0  0  0  0  0  0
    6.2879    0.1966   -1.1565 H   0  0  0  0  0  0  0  0  0  0  0  0
    5.7739    2.4551   -1.3557 H   0  0  0  0  0  0  0  0  0  0  0  0
    4.6790    2.4223    0.1183 H   0  0  0  0  0  0  0  0  0  0  0  0
    6.4531    2.4755    0.3495 H   0  0  0  0  0  0  0  0  0  0  0  0
    3.6773    0.4894    0.4179 H   0  0  0  0  0  0  0  0  0  0  0  0
    4.1228   -1.8057   -1.3251 H   0  0  0  0  0  0  0  0  0  0  0  0
    1.8440    0.2407    1.9345 H   0  0  0  0  0  0  0  0  0  0  0  0
   -0.5758    0.8500    1.7367 H   0  0  0  0  0  0  0  0  0  0  0  0
    1.2125   -3.2239   -0.4572 H   0  0  0  0  0  0  0  0  0  0  0  0
   -4.1484   -2.9811   -1.6067 H   0  0  0  0  0  0  0  0  0  0  0  0
   -5.9061   -1.4260   -1.0300 H   0  0  0  0  0  0  0  0  0  0  0  0
   -7.2655    0.0576   -0.8942 H   0  0  0  0  0  0  0  0  0  0  0  0
   -7.6950    0.3242    0.8786 H   0  0  0  0  0  0  0  0  0  0  0  0
   -8.5197    2.3185   -0.3116 H   0  0  0  0  0  0  0  0  0  0  0  0
   -6.8861    2.4169   -1.1737 H   0  0  0  0  0  0  0  0  0  0  0  0
   -3.1654    0.9467    1.1672 H   0  0  0  0  0  0  0  0  0  0  0  0
    3.0615    2.4490   -2.6488 H   0  0  0  0  0  0  0  0  0  0  0  0
  1  2  1  0
  2  3  1  0
  2  4  1  0
  4  5  1  0
  5  6  1  0
  6  7  2  0
  6  8  2  0
  6  9  1  0
  9 10  2  0
 10 11  1  0
 11 12  2  0
 12 13  1  0
 13 14  2  0
 13 15  1  0
 15 16  1  0
 16 17  2  0
 17 18  1  0
 18 19  2  0
 19 20  1  0
 20 21  1  0
 21 22  1  0
 22 23  1  0
 23 24  1  0
 24 25  2  0
 19 26  1  0
 26 27  2  0
  4 28  1  0
 28 29  2  0
 28 30  1  0
 14  9  1  0
 27 16  1  0
 27 12  1  0
 24 20  1  0
  1 31  1  0
  1 32  1  0
  1 33  1  0
  2 34  1  0
  3 35  1  0
  3 36  1  0
  3 37  1  0
  4 38  1  1
  5 39  1  0
 10 40  1  0
 11 41  1  0
 14 42  1  0
 17 43  1  0
 18 44  1  0
 21 45  1  0
 21 46  1  0
 22 47  1  0
 22 48  1  0
 26 49  1  0
 30 50  1  0
M  END
$$$$
