
     RDKit          3D

 29 31  0  0  0  0  0  0  0  0999 V2000
    0.5665    2.3691   -0.4552 N   0  0  0  0  0  0  0  0  0  0  0  0
    0.4683    0.9875   -0.1323 C   0  0  0  0  0  0  0  0  0  0  0  0
   -0.7577    0.3711    0.0149 C   0  0  0  0  0  0  0  0  0  0  0  0
   -0.7927   -0.9576    0.3253 C   0  0  0  0  0  0  0  0  0  0  0  0
    0.3715   -1.6144    0.4755 N   0  0  0  0  0  0  0  0  0  0  0  0
    1.5760   -1.0338    0.3367 C   0  0  0  0  0  0  0  0  0  0  0  0
    2.7427   -1.7529    0.5014 C   0  0  0  0  0  0  0  0  0  0  0  0
    3.9708   -1.1356    0.3540 C   0  0  0  0  0  0  0  0  0  0  0  0
    4.0802    0.2210    0.0370 C   0  0  0  0  0  0  0  0  0  0  0  0
    2.8921    0.9046   -0.1195 C   0  0  0  0  0  0  0  0  0  0  0  0
    1.6582    0.3052    0.0238 C   0  0  0  0  0  0  0  0  0  0  0  0
   -2.0968   -1.6275    0.4851 C   0  0  0  0  0  0  0  0  0  0  0  0
   -3.1495   -0.9857   -0.3904 C   0  0  0  0  0  0  0  0  0  0  0  0
   -3.2408    0.4843   -0.2091 C   0  0  0  0  0  0  0  0  0  0  0  0
   -1.9551    1.2172   -0.1793 C   0  0  0  0  0  0  0  0  0  0  0  0
    0.3982    3.1358    0.2159 H   0  0  0  0  0  0  0  0  0  0  0  0
    0.8262    2.6104   -1.4370 H   0  0  0  0  0  0  0  0  0  0  0  0
    2.6939   -2.8049    0.7472 H   0  0  0  0  0  0  0  0  0  0  0  0
    4.9037   -1.6634    0.4747 H   0  0  0  0  0  0  0  0  0  0  0  0
    5.0557    0.6746   -0.0716 H   0  0  0  0  0  0  0  0  0  0  0  0
    2.9429    1.9561   -0.3651 H   0  0  0  0  0  0  0  0  0  0  0  0
   -2.4516   -1.6557    1.5202 H   0  0  0  0  0  0  0  0  0  0  0  0
   -1.9994   -2.6867    0.1421 H   0  0  0  0  0  0  0  0  0  0  0  0
   -3.0347   -1.2546   -1.4618 H   0  0  0  0  0  0  0  0  0  0  0  0
   -4.1371   -1.4288   -0.0733 H   0  0  0  0  0  0  0  0  0  0  0  0
   -3.8019    0.6813    0.7491 H   0  0  0  0  0  0  0  0  0  0  0  0
   -3.9170    0.8836   -1.0072 H   0  0  0  0  0  0  0  0  0  0  0  0
   -1.9644    1.9971    0.6343 H   0  0  0  0  0  0  0  0  0  0  0  0
   -1.8483    1.8027   -1.1355 H   0  0  0  0  0  0  0  0  0  0  0  0
  1  2  1  0
  2  3  2  0
  3  4  1  0
  4  5  2  0
  5  6  1  0
  6  7  2  0
  7  8  1  0
  8  9  2  0
  9 10  1  0
 10 11  2  0
  4 12  1  0
 12 13  1  0
 13 14  1  0
 14 15  1  0
 11  2  1  0
 15  3  1  0
 11  6  1  0
  1 16  1  0
  1 17  1  0
  7 18  1  0
  8 19  1  0
  9 20  1  0
 10 21  1  0
 12 22  1  0
 12 23  1  0
 13 24  1  0
 13 25  1  0
 14 26  1  0
 14 27  1  0
 15 28  1  0
 15 29  1  0
M  END
$$$$
