@<TRIPOS>MOLECULE
*****
 29 31 0 0 0
SMALL
GASTEIGER

@<TRIPOS>ATOM
      1 N           0.5665    2.3691   -0.4552 N.pl3   1  UNL1       -0.3572
      2 C           0.4683    0.9875   -0.1323 C.ar    1  UNL1        0.0388
      3 C          -0.7577    0.3711    0.0149 C.ar    1  UNL1       -0.0049
      4 C          -0.7927   -0.9576    0.3253 C.ar    1  UNL1        0.0469
      5 N           0.3715   -1.6144    0.4755 N.ar    1  UNL1       -0.2512
      6 C           1.5760   -1.0338    0.3367 C.ar    1  UNL1        0.0730
      7 C           2.7427   -1.7529    0.5014 C.ar    1  UNL1       -0.0357
      8 C           3.9708   -1.1356    0.3540 C.ar    1  UNL1       -0.0597
      9 C           4.0802    0.2210    0.0370 C.ar    1  UNL1       -0.0610
     10 C           2.8921    0.9046   -0.1195 C.ar    1  UNL1       -0.0508
     11 C           1.6582    0.3052    0.0238 C.ar    1  UNL1        0.0213
     12 C          -2.0968   -1.6275    0.4851 C.3     1  UNL1       -0.0101
     13 C          -3.1495   -0.9857   -0.3904 C.3     1  UNL1       -0.0473
     14 C          -3.2408    0.4843   -0.2091 C.3     1  UNL1       -0.0486
     15 C          -1.9551    1.2172   -0.1793 C.3     1  UNL1       -0.0242
     16 H           0.3982    3.1358    0.2159 H       1  UNL1        0.1423
     17 H           0.8262    2.6104   -1.4370 H       1  UNL1        0.1423
     18 H           2.6939   -2.8049    0.7472 H       1  UNL1        0.0639
     19 H           4.9037   -1.6634    0.4747 H       1  UNL1        0.0618
     20 H           5.0557    0.6746   -0.0716 H       1  UNL1        0.0618
     21 H           2.9429    1.9561   -0.3651 H       1  UNL1        0.0625
     22 H          -2.4516   -1.6557    1.5202 H       1  UNL1        0.0328
     23 H          -1.9994   -2.6867    0.1421 H       1  UNL1        0.0328
     24 H          -3.0347   -1.2546   -1.4618 H       1  UNL1        0.0269
     25 H          -4.1371   -1.4288   -0.0733 H       1  UNL1        0.0269
     26 H          -3.8019    0.6813    0.7491 H       1  UNL1        0.0269
     27 H          -3.9170    0.8836   -1.0072 H       1  UNL1        0.0269
     28 H          -1.9644    1.9971    0.6343 H       1  UNL1        0.0314
     29 H          -1.8483    1.8027   -1.1355 H       1  UNL1        0.0314
@<TRIPOS>BOND
     1     1     2    1
     2     2     3   ar
     3     3     4   ar
     4     4     5   ar
     5     5     6   ar
     6     6     7   ar
     7     7     8   ar
     8     8     9   ar
     9     9    10   ar
    10    10    11   ar
    11     4    12    1
    12    12    13    1
    13    13    14    1
    14    14    15    1
    15    11     2   ar
    16    15     3    1
    17    11     6   ar
    18     1    16    1
    19     1    17    1
    20     7    18    1
    21     8    19    1
    22     9    20    1
    23    10    21    1
    24    12    22    1
    25    12    23    1
    26    13    24    1
    27    13    25    1
    28    14    26    1
    29    14    27    1
    30    15    28    1
    31    15    29    1
