@<TRIPOS>MOLECULE
*****
 53 54 0 0 0
SMALL
GASTEIGER

@<TRIPOS>ATOM
      1 C          -1.6177    0.3923    0.5810 C.3     1  UNL1        0.0853
      2 N          -2.0919   -0.6552    1.4380 N.3     1  UNL1       -0.3197
      3 C          -2.8004    1.0023   -0.0836 C.2     1  UNL1        0.2327
      4 O          -3.0856    1.9136   -0.9083 O.2     1  UNL1       -0.2739
      5 N          -4.1410    0.5743    0.1363 N.am    1  UNL1       -0.2974
      6 C          -5.0578    1.3847   -0.6723 C.3     1  UNL1        0.0175
      7 C          -6.4230    0.7572   -0.4806 C.3     1  UNL1       -0.0044
      8 C          -6.0418   -0.6694   -0.1253 C.3     1  UNL1        0.1180
      9 F          -7.0883   -1.3844    0.3676 F       1  UNL1       -0.2438
     10 C          -4.9457   -0.3987    0.8910 C.3     1  UNL1        0.0459
     11 C          -0.6845   -0.1045   -0.5056 C.3     1  UNL1       -0.0173
     12 C          -0.2292    1.0551   -1.3644 C.3     1  UNL1       -0.0603
     13 C           0.5032   -0.8425    0.0758 C.3     1  UNL1       -0.0365
     14 C           1.3770   -1.3029   -1.0300 C.3     1  UNL1       -0.0482
     15 C           2.8229   -1.4636   -0.7254 C.3     1  UNL1       -0.0340
     16 C           3.3465   -0.2848    0.0950 C.3     1  UNL1        0.0257
     17 C           2.5865   -0.3735    1.4017 C.3     1  UNL1       -0.0340
     18 C           1.1706    0.0757    1.0601 C.3     1  UNL1       -0.0482
     19 N           4.7684   -0.3257    0.2389 N.am    1  UNL1       -0.3017
     20 C           5.3399   -1.4930    0.8880 C.3     1  UNL1        0.0034
     21 C           5.6560    0.7144   -0.2189 C.2     1  UNL1        0.2125
     22 C           5.0245    1.8825   -0.8736 C.3     1  UNL1        0.0124
     23 O           6.9108    0.6161   -0.0600 O.2     1  UNL1       -0.2759
     24 H          -1.1501    1.1682    1.2156 H       1  UNL1        0.0557
     25 H          -1.9840   -1.6109    1.0348 H       1  UNL1        0.1189
     26 H          -1.7421   -0.5838    2.4167 H       1  UNL1        0.1189
     27 H          -5.0219    2.4378   -0.3614 H       1  UNL1        0.0465
     28 H          -4.8465    1.3362   -1.7477 H       1  UNL1        0.0465
     29 H          -6.8664    1.2222    0.4252 H       1  UNL1        0.0309
     30 H          -7.0624    0.8311   -1.3733 H       1  UNL1        0.0309
     31 H          -5.5401   -1.1212   -1.0110 H       1  UNL1        0.0667
     32 H          -4.3655   -1.3010    1.1432 H       1  UNL1        0.0493
     33 H          -5.3841    0.0605    1.7975 H       1  UNL1        0.0493
     34 H          -1.2574   -0.8463   -1.1041 H       1  UNL1        0.0320
     35 H          -0.6518    0.9102   -2.3840 H       1  UNL1        0.0233
     36 H           0.8710    1.1861   -1.3854 H       1  UNL1        0.0233
     37 H          -0.6139    2.0345   -0.9551 H       1  UNL1        0.0233
     38 H           0.1128   -1.7071    0.6548 H       1  UNL1        0.0304
     39 H           1.0023   -2.3288   -1.3215 H       1  UNL1        0.0269
     40 H           1.2931   -0.7231   -1.9796 H       1  UNL1        0.0269
     41 H           2.9679   -2.4114   -0.1397 H       1  UNL1        0.0283
     42 H           3.4054   -1.4497   -1.6651 H       1  UNL1        0.0283
     43 H           3.0019    0.6486   -0.4144 H       1  UNL1        0.0500
     44 H           2.9728    0.2577    2.1996 H       1  UNL1        0.0283
     45 H           2.5082   -1.4523    1.6957 H       1  UNL1        0.0283
     46 H           0.6024    0.0607    2.0137 H       1  UNL1        0.0269
     47 H           1.2317    1.1263    0.7253 H       1  UNL1        0.0269
     48 H           6.2436   -1.1508    1.4637 H       1  UNL1        0.0429
     49 H           4.6629   -1.9739    1.6070 H       1  UNL1        0.0429
     50 H           5.6700   -2.1692    0.0688 H       1  UNL1        0.0429
     51 H           4.5244    1.5043   -1.7900 H       1  UNL1        0.0323
     52 H           4.2909    2.3512   -0.2120 H       1  UNL1        0.0323
     53 H           5.8257    2.6238   -1.1153 H       1  UNL1        0.0323
@<TRIPOS>BOND
     1     1     2    1
     2     1     3    1
     3     3     4    2
     4     3     5   am
     5     5     6    1
     6     6     7    1
     7     7     8    1
     8     8     9    1
     9     8    10    1
    10     1    11    1
    11    11    12    1
    12    11    13    1
    13    13    14    1
    14    14    15    1
    15    15    16    1
    16    16    17    1
    17    17    18    1
    18    16    19    1
    19    19    20    1
    20    19    21   am
    21    21    22    1
    22    21    23    2
    23    10     5    1
    24    18    13    1
    25     1    24    1
    26     2    25    1
    27     2    26    1
    28     6    27    1
    29     6    28    1
    30     7    29    1
    31     7    30    1
    32     8    31    1
    33    10    32    1
    34    10    33    1
    35    11    34    1
    36    12    35    1
    37    12    36    1
    38    12    37    1
    39    13    38    1
    40    14    39    1
    41    14    40    1
    42    15    41    1
    43    15    42    1
    44    16    43    1
    45    17    44    1
    46    17    45    1
    47    18    46    1
    48    18    47    1
    49    20    48    1
    50    20    49    1
    51    20    50    1
    52    22    51    1
    53    22    52    1
    54    22    53    1
