
     RDKit          3D

 53 54  0  0  0  0  0  0  0  0999 V2000
   -1.6177    0.3923    0.5810 C   0  0  2  0  0  0  0  0  0  0  0  0
   -2.0919   -0.6552    1.4380 N   0  0  0  0  0  0  0  0  0  0  0  0
   -2.8004    1.0023   -0.0836 C   0  0  0  0  0  0  0  0  0  0  0  0
   -3.0856    1.9136   -0.9083 O   0  0  0  0  0  0  0  0  0  0  0  0
   -4.1410    0.5743    0.1363 N   0  0  0  0  0  0  0  0  0  0  0  0
   -5.0578    1.3847   -0.6723 C   0  0  0  0  0  0  0  0  0  0  0  0
   -6.4230    0.7572   -0.4806 C   0  0  0  0  0  0  0  0  0  0  0  0
   -6.0418   -0.6694   -0.1253 C   0  0  2  0  0  0  0  0  0  0  0  0
   -7.0883   -1.3844    0.3676 F   0  0  0  0  0  0  0  0  0  0  0  0
   -4.9457   -0.3987    0.8910 C   0  0  0  0  0  0  0  0  0  0  0  0
   -0.6845   -0.1045   -0.5056 C   0  0  1  0  0  0  0  0  0  0  0  0
   -0.2292    1.0551   -1.3644 C   0  0  0  0  0  0  0  0  0  0  0  0
    0.5032   -0.8425    0.0758 C   0  0  1  0  0  0  0  0  0  0  0  0
    1.3770   -1.3029   -1.0300 C   0  0  0  0  0  0  0  0  0  0  0  0
    2.8229   -1.4636   -0.7254 C   0  0  0  0  0  0  0  0  0  0  0  0
    3.3465   -0.2848    0.0950 C   0  0  1  0  0  0  0  0  0  0  0  0
    2.5865   -0.3735    1.4017 C   0  0  0  0  0  0  0  0  0  0  0  0
    1.1706    0.0757    1.0601 C   0  0  0  0  0  0  0  0  0  0  0  0
    4.7684   -0.3257    0.2389 N   0  0  0  0  0  0  0  0  0  0  0  0
    5.3399   -1.4930    0.8880 C   0  0  0  0  0  0  0  0  0  0  0  0
    5.6560    0.7144   -0.2189 C   0  0  0  0  0  0  0  0  0  0  0  0
    5.0245    1.8825   -0.8736 C   0  0  0  0  0  0  0  0  0  0  0  0
    6.9108    0.6161   -0.0600 O   0  0  0  0  0  0  0  0  0  0  0  0
   -1.1501    1.1682    1.2156 H   0  0  0  0  0  0  0  0  0  0  0  0
   -1.9840   -1.6109    1.0348 H   0  0  0  0  0  0  0  0  0  0  0  0
   -1.7421   -0.5838    2.4167 H   0  0  0  0  0  0  0  0  0  0  0  0
   -5.0219    2.4378   -0.3614 H   0  0  0  0  0  0  0  0  0  0  0  0
   -4.8465    1.3362   -1.7477 H   0  0  0  0  0  0  0  0  0  0  0  0
   -6.8664    1.2222    0.4252 H   0  0  0  0  0  0  0  0  0  0  0  0
   -7.0624    0.8311   -1.3733 H   0  0  0  0  0  0  0  0  0  0  0  0
   -5.5401   -1.1212   -1.0110 H   0  0  0  0  0  0  0  0  0  0  0  0
   -4.3655   -1.3010    1.1432 H   0  0  0  0  0  0  0  0  0  0  0  0
   -5.3841    0.0605    1.7975 H   0  0  0  0  0  0  0  0  0  0  0  0
   -1.2574   -0.8463   -1.1041 H   0  0  0  0  0  0  0  0  0  0  0  0
   -0.6518    0.9102   -2.3840 H   0  0  0  0  0  0  0  0  0  0  0  0
    0.8710    1.1861   -1.3854 H   0  0  0  0  0  0  0  0  0  0  0  0
   -0.6139    2.0345   -0.9551 H   0  0  0  0  0  0  0  0  0  0  0  0
    0.1128   -1.7071    0.6548 H   0  0  0  0  0  0  0  0  0  0  0  0
    1.0023   -2.3288   -1.3215 H   0  0  0  0  0  0  0  0  0  0  0  0
    1.2931   -0.7231   -1.9796 H   0  0  0  0  0  0  0  0  0  0  0  0
    2.9679   -2.4114   -0.1397 H   0  0  0  0  0  0  0  0  0  0  0  0
    3.4054   -1.4497   -1.6651 H   0  0  0  0  0  0  0  0  0  0  0  0
    3.0019    0.6486   -0.4144 H   0  0  0  0  0  0  0  0  0  0  0  0
    2.9728    0.2577    2.1996 H   0  0  0  0  0  0  0  0  0  0  0  0
    2.5082   -1.4523    1.6957 H   0  0  0  0  0  0  0  0  0  0  0  0
    0.6024    0.0607    2.0137 H   0  0  0  0  0  0  0  0  0  0  0  0
    1.2317    1.1263    0.7253 H   0  0  0  0  0  0  0  0  0  0  0  0
    6.2436   -1.1508    1.4637 H   0  0  0  0  0  0  0  0  0  0  0  0
    4.6629   -1.9739    1.6070 H   0  0  0  0  0  0  0  0  0  0  0  0
    5.6700   -2.1692    0.0688 H   0  0  0  0  0  0  0  0  0  0  0  0
    4.5244    1.5043   -1.7900 H   0  0  0  0  0  0  0  0  0  0  0  0
    4.2909    2.3512   -0.2120 H   0  0  0  0  0  0  0  0  0  0  0  0
    5.8257    2.6238   -1.1153 H   0  0  0  0  0  0  0  0  0  0  0  0
  1  2  1  0
  1  3  1  0
  3  4  2  0
  3  5  1  0
  5  6  1  0
  6  7  1  0
  7  8  1  0
  8  9  1  0
  8 10  1  0
  1 11  1  0
 11 12  1  0
 11 13  1  0
 13 14  1  0
 14 15  1  0
 15 16  1  0
 16 17  1  0
 17 18  1  0
 16 19  1  0
 19 20  1  0
 19 21  1  0
 21 22  1  0
 21 23  2  0
 10  5  1  0
 18 13  1  0
  1 24  1  1
  2 25  1  0
  2 26  1  0
  6 27  1  0
  6 28  1  0
  7 29  1  0
  7 30  1  0
  8 31  1  6
 10 32  1  0
 10 33  1  0
 11 34  1  6
 12 35  1  0
 12 36  1  0
 12 37  1  0
 13 38  1  1
 14 39  1  0
 14 40  1  0
 15 41  1  0
 15 42  1  0
 16 43  1  6
 17 44  1  0
 17 45  1  0
 18 46  1  0
 18 47  1  0
 20 48  1  0
 20 49  1  0
 20 50  1  0
 22 51  1  0
 22 52  1  0
 22 53  1  0
M  END
$$$$
