@<TRIPOS>MOLECULE
*****
 71 76 0 0 0
SMALL
GASTEIGER

@<TRIPOS>ATOM
      1 C           1.5836    7.7747    1.0752 C.3     1  UNL1        0.0804
      2 O           1.9003    6.5341    1.3414 O.3     1  UNL1       -0.4795
      3 C           2.2375    5.3450    1.6228 C.ar    1  UNL1        0.2191
      4 C           1.5522    4.2209    1.0919 C.ar    1  UNL1        0.0404
      5 C           1.8452    2.9376    1.3316 C.ar    1  UNL1        0.1364
      6 N           1.0966    1.8305    0.8626 N.am    1  UNL1       -0.2240
      7 C          -0.2941    1.9118    0.4327 C.2     1  UNL1        0.3219
      8 O          -0.8138    2.9425   -0.0602 O.2     1  UNL1       -0.2512
      9 N          -0.8849    0.6447    0.6840 N.am    1  UNL1       -0.1920
     10 C          -2.2559    0.2523    0.5646 C.ar    1  UNL1        0.0455
     11 C          -3.2027    1.2381    0.3725 C.ar    1  UNL1       -0.0392
     12 C          -4.5358    0.8939    0.3525 C.ar    1  UNL1       -0.0523
     13 C          -4.9032   -0.4037    0.5297 C.ar    1  UNL1       -0.0178
     14 C          -6.3033   -0.8018    0.6425 C.ar    1  UNL1       -0.0178
     15 C          -6.7530   -2.0128    0.1620 C.ar    1  UNL1       -0.0528
     16 C          -8.0293   -2.4493    0.4133 C.ar    1  UNL1       -0.0438
     17 C          -8.8813   -1.6439    1.1801 C.ar    1  UNL1        0.0518
     18 C         -10.1087   -2.1334    1.5561 C.1     1  UNL1        0.0992
     19 N         -11.2558   -2.5735    1.9218 N.1     1  UNL1       -0.1909
     20 C          -8.4167   -0.4081    1.6586 C.ar    1  UNL1       -0.0438
     21 C          -7.1530   -0.0122    1.3816 C.ar    1  UNL1       -0.0528
     22 C          -3.9332   -1.3820    0.7190 C.ar    1  UNL1       -0.0523
     23 C          -2.6007   -1.0641    0.7368 C.ar    1  UNL1       -0.0392
     24 C           0.1711   -0.1536    1.2386 C.2     1  UNL1        0.2516
     25 O           0.0667   -1.1365    2.0110 O.2     1  UNL1       -0.2724
     26 C           1.4221    0.4566    0.6881 C.3     1  UNL1        0.1240
     27 C           2.6647    0.1037    1.4486 C.3     1  UNL1       -0.0095
     28 C           3.1450   -1.2804    1.2065 C.3     1  UNL1        0.0017
     29 N           3.1381   -1.5912   -0.2391 N.3     1  UNL1       -0.2965
     30 C           3.6381   -2.8972   -0.3527 C.3     1  UNL1        0.0415
     31 C           4.2940   -3.3270   -1.5940 C.ar    1  UNL1        0.0581
     32 N           4.7008   -4.6481   -1.5439 N.ar    1  UNL1       -0.2583
     33 C           5.3186   -5.2319   -2.5736 C.ar    1  UNL1        0.0279
     34 C           5.5393   -4.4723   -3.7028 C.ar    1  UNL1       -0.0433
     35 C           5.1489   -3.1645   -3.7722 C.ar    1  UNL1       -0.0557
     36 C           4.5035   -2.5522   -2.6774 C.ar    1  UNL1       -0.0279
     37 C           4.1264   -1.1356   -2.7196 C.3     1  UNL1       -0.0380
     38 C           1.7607   -1.4812   -0.7129 C.3     1  UNL1        0.0017
     39 C           1.4757    0.0266   -0.7646 C.3     1  UNL1       -0.0095
     40 N           2.9550    2.7320    2.2140 N.ar    1  UNL1       -0.2200
     41 C           3.5481    3.7774    2.6776 C.ar    1  UNL1        0.1219
     42 N           3.3001    5.0349    2.4668 N.ar    1  UNL1       -0.2013
     43 H           0.4619    7.9271    1.0787 H       1  UNL1        0.0660
     44 H           1.8355    8.0278   -0.0107 H       1  UNL1        0.0660
     45 H           1.9316    8.6209    1.7163 H       1  UNL1        0.0660
     46 H           0.6929    4.4742    0.4317 H       1  UNL1        0.0705
     47 H          -2.9257    2.3037    0.2433 H       1  UNL1        0.0636
     48 H          -5.2599    1.6943    0.1941 H       1  UNL1        0.0624
     49 H          -6.0836   -2.6119   -0.4187 H       1  UNL1        0.0624
     50 H          -8.4146   -3.3764    0.0427 H       1  UNL1        0.0631
     51 H          -9.0553    0.1900    2.2406 H       1  UNL1        0.0631
     52 H          -6.7710    0.9553    1.7513 H       1  UNL1        0.0624
     53 H          -4.2713   -2.4073    0.8617 H       1  UNL1        0.0624
     54 H          -1.8497   -1.8499    0.8860 H       1  UNL1        0.0636
     55 H           2.4748    0.2409    2.5136 H       1  UNL1        0.0303
     56 H           3.4394    0.8372    1.1326 H       1  UNL1        0.0303
     57 H           2.5473   -2.0659    1.6940 H       1  UNL1        0.0427
     58 H           4.1843   -1.3726    1.5381 H       1  UNL1        0.0427
     59 H           2.7554   -3.6169   -0.2457 H       1  UNL1        0.0491
     60 H           4.2650   -3.2066    0.5583 H       1  UNL1        0.0491
     61 H           5.6604   -6.2818   -2.5129 H       1  UNL1        0.0829
     62 H           6.0411   -4.9560   -4.5301 H       1  UNL1        0.0633
     63 H           5.3052   -2.5276   -4.6372 H       1  UNL1        0.0621
     64 H           4.8192   -0.6782   -3.5163 H       1  UNL1        0.0278
     65 H           3.1209   -0.9347   -3.1578 H       1  UNL1        0.0278
     66 H           4.3791   -0.5397   -1.8308 H       1  UNL1        0.0278
     67 H           1.1270   -1.9407    0.0693 H       1  UNL1        0.0427
     68 H           1.6373   -1.9989   -1.6408 H       1  UNL1        0.0427
     69 H           2.2518    0.5547   -1.3240 H       1  UNL1        0.0303
     70 H           0.4728    0.2451   -1.1876 H       1  UNL1        0.0303
     71 H           4.4213    3.5930    3.3946 H       1  UNL1        0.1049
@<TRIPOS>BOND
     1     1     2    1
     2     2     3    1
     3     3     4   ar
     4     4     5   ar
     5     5     6    1
     6     6     7   am
     7     7     8    2
     8     7     9   am
     9     9    10    1
    10    10    11   ar
    11    11    12   ar
    12    12    13   ar
    13    13    14    1
    14    14    15   ar
    15    15    16   ar
    16    16    17   ar
    17    17    18    1
    18    18    19    3
    19    17    20   ar
    20    20    21   ar
    21    13    22   ar
    22    22    23   ar
    23     9    24   am
    24    24    25    2
    25    24    26    1
    26    26    27    1
    27    27    28    1
    28    28    29    1
    29    29    30    1
    30    30    31    1
    31    31    32   ar
    32    32    33   ar
    33    33    34   ar
    34    34    35   ar
    35    35    36   ar
    36    36    37    1
    37    29    38    1
    38    38    39    1
    39     5    40   ar
    40    40    41   ar
    41    41    42   ar
    42    42     3   ar
    43    26     6    1
    44    36    31   ar
    45    23    10   ar
    46    39    26    1
    47    21    14   ar
    48     1    43    1
    49     1    44    1
    50     1    45    1
    51     4    46    1
    52    11    47    1
    53    12    48    1
    54    15    49    1
    55    16    50    1
    56    20    51    1
    57    21    52    1
    58    22    53    1
    59    23    54    1
    60    27    55    1
    61    27    56    1
    62    28    57    1
    63    28    58    1
    64    30    59    1
    65    30    60    1
    66    33    61    1
    67    34    62    1
    68    35    63    1
    69    37    64    1
    70    37    65    1
    71    37    66    1
    72    38    67    1
    73    38    68    1
    74    39    69    1
    75    39    70    1
    76    41    71    1
