
     RDKit          3D

 71 76  0  0  0  0  0  0  0  0999 V2000
    1.5836    7.7747    1.0752 C   0  0  0  0  0  0  0  0  0  0  0  0
    1.9003    6.5341    1.3414 O   0  0  0  0  0  0  0  0  0  0  0  0
    2.2375    5.3450    1.6228 C   0  0  0  0  0  0  0  0  0  0  0  0
    1.5522    4.2209    1.0919 C   0  0  0  0  0  0  0  0  0  0  0  0
    1.8452    2.9376    1.3316 C   0  0  0  0  0  0  0  0  0  0  0  0
    1.0966    1.8305    0.8626 N   0  0  0  0  0  0  0  0  0  0  0  0
   -0.2941    1.9118    0.4327 C   0  0  0  0  0  0  0  0  0  0  0  0
   -0.8138    2.9425   -0.0602 O   0  0  0  0  0  0  0  0  0  0  0  0
   -0.8849    0.6447    0.6840 N   0  0  0  0  0  0  0  0  0  0  0  0
   -2.2559    0.2523    0.5646 C   0  0  0  0  0  0  0  0  0  0  0  0
   -3.2027    1.2381    0.3725 C   0  0  0  0  0  0  0  0  0  0  0  0
   -4.5358    0.8939    0.3525 C   0  0  0  0  0  0  0  0  0  0  0  0
   -4.9032   -0.4037    0.5297 C   0  0  0  0  0  0  0  0  0  0  0  0
   -6.3033   -0.8018    0.6425 C   0  0  0  0  0  0  0  0  0  0  0  0
   -6.7530   -2.0128    0.1620 C   0  0  0  0  0  0  0  0  0  0  0  0
   -8.0293   -2.4493    0.4133 C   0  0  0  0  0  0  0  0  0  0  0  0
   -8.8813   -1.6439    1.1801 C   0  0  0  0  0  0  0  0  0  0  0  0
  -10.1087   -2.1334    1.5561 C   0  0  0  0  0  0  0  0  0  0  0  0
  -11.2558   -2.5735    1.9218 N   0  0  0  0  0  0  0  0  0  0  0  0
   -8.4167   -0.4081    1.6586 C   0  0  0  0  0  0  0  0  0  0  0  0
   -7.1530   -0.0122    1.3816 C   0  0  0  0  0  0  0  0  0  0  0  0
   -3.9332   -1.3820    0.7190 C   0  0  0  0  0  0  0  0  0  0  0  0
   -2.6007   -1.0641    0.7368 C   0  0  0  0  0  0  0  0  0  0  0  0
    0.1711   -0.1536    1.2386 C   0  0  0  0  0  0  0  0  0  0  0  0
    0.0667   -1.1365    2.0110 O   0  0  0  0  0  0  0  0  0  0  0  0
    1.4221    0.4566    0.6881 C   0  0  0  0  0  0  0  0  0  0  0  0
    2.6647    0.1037    1.4486 C   0  0  0  0  0  0  0  0  0  0  0  0
    3.1450   -1.2804    1.2065 C   0  0  0  0  0  0  0  0  0  0  0  0
    3.1381   -1.5912   -0.2391 N   0  0  0  0  0  0  0  0  0  0  0  0
    3.6381   -2.8972   -0.3527 C   0  0  0  0  0  0  0  0  0  0  0  0
    4.2940   -3.3270   -1.5940 C   0  0  0  0  0  0  0  0  0  0  0  0
    4.7008   -4.6481   -1.5439 N   0  0  0  0  0  0  0  0  0  0  0  0
    5.3186   -5.2319   -2.5736 C   0  0  0  0  0  0  0  0  0  0  0  0
    5.5393   -4.4723   -3.7028 C   0  0  0  0  0  0  0  0  0  0  0  0
    5.1489   -3.1645   -3.7722 C   0  0  0  0  0  0  0  0  0  0  0  0
    4.5035   -2.5522   -2.6774 C   0  0  0  0  0  0  0  0  0  0  0  0
    4.1264   -1.1356   -2.7196 C   0  0  0  0  0  0  0  0  0  0  0  0
    1.7607   -1.4812   -0.7129 C   0  0  0  0  0  0  0  0  0  0  0  0
    1.4757    0.0266   -0.7646 C   0  0  0  0  0  0  0  0  0  0  0  0
    2.9550    2.7320    2.2140 N   0  0  0  0  0  0  0  0  0  0  0  0
    3.5481    3.7774    2.6776 C   0  0  0  0  0  0  0  0  0  0  0  0
    3.3001    5.0349    2.4668 N   0  0  0  0  0  0  0  0  0  0  0  0
    0.4619    7.9271    1.0787 H   0  0  0  0  0  0  0  0  0  0  0  0
    1.8355    8.0278   -0.0107 H   0  0  0  0  0  0  0  0  0  0  0  0
    1.9316    8.6209    1.7163 H   0  0  0  0  0  0  0  0  0  0  0  0
    0.6929    4.4742    0.4317 H   0  0  0  0  0  0  0  0  0  0  0  0
   -2.9257    2.3037    0.2433 H   0  0  0  0  0  0  0  0  0  0  0  0
   -5.2599    1.6943    0.1941 H   0  0  0  0  0  0  0  0  0  0  0  0
   -6.0836   -2.6119   -0.4187 H   0  0  0  0  0  0  0  0  0  0  0  0
   -8.4146   -3.3764    0.0427 H   0  0  0  0  0  0  0  0  0  0  0  0
   -9.0553    0.1900    2.2406 H   0  0  0  0  0  0  0  0  0  0  0  0
   -6.7710    0.9553    1.7513 H   0  0  0  0  0  0  0  0  0  0  0  0
   -4.2713   -2.4073    0.8617 H   0  0  0  0  0  0  0  0  0  0  0  0
   -1.8497   -1.8499    0.8860 H   0  0  0  0  0  0  0  0  0  0  0  0
    2.4748    0.2409    2.5136 H   0  0  0  0  0  0  0  0  0  0  0  0
    3.4394    0.8372    1.1326 H   0  0  0  0  0  0  0  0  0  0  0  0
    2.5473   -2.0659    1.6940 H   0  0  0  0  0  0  0  0  0  0  0  0
    4.1843   -1.3726    1.5381 H   0  0  0  0  0  0  0  0  0  0  0  0
    2.7554   -3.6169   -0.2457 H   0  0  0  0  0  0  0  0  0  0  0  0
    4.2650   -3.2066    0.5583 H   0  0  0  0  0  0  0  0  0  0  0  0
    5.6604   -6.2818   -2.5129 H   0  0  0  0  0  0  0  0  0  0  0  0
    6.0411   -4.9560   -4.5301 H   0  0  0  0  0  0  0  0  0  0  0  0
    5.3052   -2.5276   -4.6372 H   0  0  0  0  0  0  0  0  0  0  0  0
    4.8192   -0.6782   -3.5163 H   0  0  0  0  0  0  0  0  0  0  0  0
    3.1209   -0.9347   -3.1578 H   0  0  0  0  0  0  0  0  0  0  0  0
    4.3791   -0.5397   -1.8308 H   0  0  0  0  0  0  0  0  0  0  0  0
    1.1270   -1.9407    0.0693 H   0  0  0  0  0  0  0  0  0  0  0  0
    1.6373   -1.9989   -1.6408 H   0  0  0  0  0  0  0  0  0  0  0  0
    2.2518    0.5547   -1.3240 H   0  0  0  0  0  0  0  0  0  0  0  0
    0.4728    0.2451   -1.1876 H   0  0  0  0  0  0  0  0  0  0  0  0
    4.4213    3.5930    3.3946 H   0  0  0  0  0  0  0  0  0  0  0  0
  1  2  1  0
  2  3  1  0
  3  4  2  0
  4  5  1  0
  5  6  1  0
  6  7  1  0
  7  8  2  0
  7  9  1  0
  9 10  1  0
 10 11  2  0
 11 12  1  0
 12 13  2  0
 13 14  1  0
 14 15  2  0
 15 16  1  0
 16 17  2  0
 17 18  1  0
 18 19  3  0
 17 20  1  0
 20 21  2  0
 13 22  1  0
 22 23  2  0
  9 24  1  0
 24 25  2  0
 24 26  1  0
 26 27  1  0
 27 28  1  0
 28 29  1  0
 29 30  1  0
 30 31  1  0
 31 32  2  0
 32 33  1  0
 33 34  2  0
 34 35  1  0
 35 36  2  0
 36 37  1  0
 29 38  1  0
 38 39  1  0
  5 40  2  0
 40 41  1  0
 41 42  2  0
 42  3  1  0
 26  6  1  0
 36 31  1  0
 23 10  1  0
 39 26  1  0
 21 14  1  0
  1 43  1  0
  1 44  1  0
  1 45  1  0
  4 46  1  0
 11 47  1  0
 12 48  1  0
 15 49  1  0
 16 50  1  0
 20 51  1  0
 21 52  1  0
 22 53  1  0
 23 54  1  0
 27 55  1  0
 27 56  1  0
 28 57  1  0
 28 58  1  0
 30 59  1  0
 30 60  1  0
 33 61  1  0
 34 62  1  0
 35 63  1  0
 37 64  1  0
 37 65  1  0
 37 66  1  0
 38 67  1  0
 38 68  1  0
 39 69  1  0
 39 70  1  0
 41 71  1  0
M  END
$$$$
