@<TRIPOS>MOLECULE
*****
 49 52 0 0 0
SMALL
GASTEIGER

@<TRIPOS>ATOM
      1 C           1.9458    0.6817    0.5057 C.3     1  UNL1       -0.0255
      2 C           2.9023    1.6777   -0.0574 C.3     1  UNL1       -0.0424
      3 C           4.2476    1.1085    0.3449 C.3     1  UNL1        0.0067
      4 C           3.9660   -0.2931    0.8194 C.2     1  UNL1        0.1395
      5 O           4.7230   -0.9239    1.5296 O.2     1  UNL1       -0.2968
      6 C           2.6549   -0.6143    0.2276 C.3     1  UNL1        0.0293
      7 C           2.8618   -0.8645   -1.2392 C.3     1  UNL1       -0.0526
      8 C           1.8783   -1.6875    0.9246 C.3     1  UNL1       -0.0404
      9 C           0.5174   -1.7522    0.2506 C.3     1  UNL1       -0.0486
     10 C          -0.2005   -0.4555    0.4798 C.3     1  UNL1       -0.0322
     11 C           0.5527    0.7506   -0.0232 C.3     1  UNL1       -0.0340
     12 C          -0.1129    1.9486    0.6476 C.3     1  UNL1       -0.0494
     13 C          -1.5845    2.0237    0.4119 C.3     1  UNL1       -0.0491
     14 C          -2.3000    0.7203    0.5318 C.3     1  UNL1       -0.0287
     15 C          -3.6846    0.9248   -0.0794 C.3     1  UNL1        0.0092
     16 C          -4.3928   -0.3795   -0.0168 C.2     1  UNL1        0.1337
     17 O          -5.5698   -0.3942    0.3620 O.2     1  UNL1       -0.2974
     18 C          -3.7186   -1.6302   -0.3944 C.3     1  UNL1        0.0063
     19 C          -2.2944   -1.7047    0.0812 C.3     1  UNL1       -0.0404
     20 C          -1.5577   -0.4233   -0.1322 C.3     1  UNL1       -0.0254
     21 C          -1.4980   -0.1136   -1.6051 C.3     1  UNL1       -0.0590
     22 H           1.9022    0.7809    1.6143 H       1  UNL1        0.0313
     23 H           2.7759    2.6991    0.3377 H       1  UNL1        0.0272
     24 H           2.8323    1.7209   -1.1618 H       1  UNL1        0.0272
     25 H           4.6817    1.7397    1.1461 H       1  UNL1        0.0342
     26 H           4.9459    0.9933   -0.5206 H       1  UNL1        0.0342
     27 H           3.3441   -1.8619   -1.3375 H       1  UNL1        0.0239
     28 H           1.9271   -0.9060   -1.8254 H       1  UNL1        0.0239
     29 H           3.5884   -0.1313   -1.5955 H       1  UNL1        0.0239
     30 H           1.7173   -1.3766    1.9629 H       1  UNL1        0.0275
     31 H           2.3836   -2.6801    0.8919 H       1  UNL1        0.0275
     32 H          -0.0416   -2.5343    0.7957 H       1  UNL1        0.0268
     33 H           0.5884   -2.0556   -0.7985 H       1  UNL1        0.0268
     34 H          -0.2869   -0.3351    1.5898 H       1  UNL1        0.0309
     35 H           0.4824    0.8883   -1.1116 H       1  UNL1        0.0307
     36 H           0.3449    2.9082    0.3269 H       1  UNL1        0.0268
     37 H           0.0491    1.8124    1.7456 H       1  UNL1        0.0268
     38 H          -1.8209    2.5523   -0.5513 H       1  UNL1        0.0268
     39 H          -2.0059    2.6968    1.1982 H       1  UNL1        0.0268
     40 H          -2.4308    0.4501    1.6053 H       1  UNL1        0.0310
     41 H          -4.1815    1.6923    0.5500 H       1  UNL1        0.0344
     42 H          -3.5384    1.2781   -1.1146 H       1  UNL1        0.0344
     43 H          -3.8251   -1.7949   -1.5041 H       1  UNL1        0.0342
     44 H          -4.2808   -2.4815    0.0825 H       1  UNL1        0.0342
     45 H          -1.7605   -2.4771   -0.5362 H       1  UNL1        0.0275
     46 H          -2.3031   -2.0386    1.1283 H       1  UNL1        0.0275
     47 H          -2.3567   -0.5109   -2.1658 H       1  UNL1        0.0235
     48 H          -0.5925   -0.6106   -2.0293 H       1  UNL1        0.0235
     49 H          -1.4743    0.9830   -1.8122 H       1  UNL1        0.0235
@<TRIPOS>BOND
     1     1     2    1
     2     2     3    1
     3     3     4    1
     4     4     5    2
     5     4     6    1
     6     6     7    1
     7     6     8    1
     8     8     9    1
     9     9    10    1
    10    10    11    1
    11    11    12    1
    12    12    13    1
    13    13    14    1
    14    14    15    1
    15    15    16    1
    16    16    17    2
    17    16    18    1
    18    18    19    1
    19    19    20    1
    20    20    21    1
    21     6     1    1
    22    20    10    1
    23    11     1    1
    24    20    14    1
    25     1    22    1
    26     2    23    1
    27     2    24    1
    28     3    25    1
    29     3    26    1
    30     7    27    1
    31     7    28    1
    32     7    29    1
    33     8    30    1
    34     8    31    1
    35     9    32    1
    36     9    33    1
    37    10    34    1
    38    11    35    1
    39    12    36    1
    40    12    37    1
    41    13    38    1
    42    13    39    1
    43    14    40    1
    44    15    41    1
    45    15    42    1
    46    18    43    1
    47    18    44    1
    48    19    45    1
    49    19    46    1
    50    21    47    1
    51    21    48    1
    52    21    49    1
