
     RDKit          3D

 49 52  0  0  0  0  0  0  0  0999 V2000
    1.9458    0.6817    0.5057 C   0  0  2  0  0  0  0  0  0  0  0  0
    2.9023    1.6777   -0.0574 C   0  0  0  0  0  0  0  0  0  0  0  0
    4.2476    1.1085    0.3449 C   0  0  0  0  0  0  0  0  0  0  0  0
    3.9660   -0.2931    0.8194 C   0  0  0  0  0  0  0  0  0  0  0  0
    4.7230   -0.9239    1.5296 O   0  0  0  0  0  0  0  0  0  0  0  0
    2.6549   -0.6143    0.2276 C   0  0  2  0  0  0  0  0  0  0  0  0
    2.8618   -0.8645   -1.2392 C   0  0  0  0  0  0  0  0  0  0  0  0
    1.8783   -1.6875    0.9246 C   0  0  0  0  0  0  0  0  0  0  0  0
    0.5174   -1.7522    0.2506 C   0  0  0  0  0  0  0  0  0  0  0  0
   -0.2005   -0.4555    0.4798 C   0  0  1  0  0  0  0  0  0  0  0  0
    0.5527    0.7506   -0.0232 C   0  0  1  0  0  0  0  0  0  0  0  0
   -0.1129    1.9486    0.6476 C   0  0  0  0  0  0  0  0  0  0  0  0
   -1.5845    2.0237    0.4119 C   0  0  0  0  0  0  0  0  0  0  0  0
   -2.3000    0.7203    0.5318 C   0  0  1  0  0  0  0  0  0  0  0  0
   -3.6846    0.9248   -0.0794 C   0  0  0  0  0  0  0  0  0  0  0  0
   -4.3928   -0.3795   -0.0168 C   0  0  0  0  0  0  0  0  0  0  0  0
   -5.5698   -0.3942    0.3620 O   0  0  0  0  0  0  0  0  0  0  0  0
   -3.7186   -1.6302   -0.3944 C   0  0  0  0  0  0  0  0  0  0  0  0
   -2.2944   -1.7047    0.0812 C   0  0  0  0  0  0  0  0  0  0  0  0
   -1.5577   -0.4233   -0.1322 C   0  0  2  0  0  0  0  0  0  0  0  0
   -1.4980   -0.1136   -1.6051 C   0  0  0  0  0  0  0  0  0  0  0  0
    1.9022    0.7809    1.6143 H   0  0  0  0  0  0  0  0  0  0  0  0
    2.7759    2.6991    0.3377 H   0  0  0  0  0  0  0  0  0  0  0  0
    2.8323    1.7209   -1.1618 H   0  0  0  0  0  0  0  0  0  0  0  0
    4.6817    1.7397    1.1461 H   0  0  0  0  0  0  0  0  0  0  0  0
    4.9459    0.9933   -0.5206 H   0  0  0  0  0  0  0  0  0  0  0  0
    3.3441   -1.8619   -1.3375 H   0  0  0  0  0  0  0  0  0  0  0  0
    1.9271   -0.9060   -1.8254 H   0  0  0  0  0  0  0  0  0  0  0  0
    3.5884   -0.1313   -1.5955 H   0  0  0  0  0  0  0  0  0  0  0  0
    1.7173   -1.3766    1.9629 H   0  0  0  0  0  0  0  0  0  0  0  0
    2.3836   -2.6801    0.8919 H   0  0  0  0  0  0  0  0  0  0  0  0
   -0.0416   -2.5343    0.7957 H   0  0  0  0  0  0  0  0  0  0  0  0
    0.5884   -2.0556   -0.7985 H   0  0  0  0  0  0  0  0  0  0  0  0
   -0.2869   -0.3351    1.5898 H   0  0  0  0  0  0  0  0  0  0  0  0
    0.4824    0.8883   -1.1116 H   0  0  0  0  0  0  0  0  0  0  0  0
    0.3449    2.9082    0.3269 H   0  0  0  0  0  0  0  0  0  0  0  0
    0.0491    1.8124    1.7456 H   0  0  0  0  0  0  0  0  0  0  0  0
   -1.8209    2.5523   -0.5513 H   0  0  0  0  0  0  0  0  0  0  0  0
   -2.0059    2.6968    1.1982 H   0  0  0  0  0  0  0  0  0  0  0  0
   -2.4308    0.4501    1.6053 H   0  0  0  0  0  0  0  0  0  0  0  0
   -4.1815    1.6923    0.5500 H   0  0  0  0  0  0  0  0  0  0  0  0
   -3.5384    1.2781   -1.1146 H   0  0  0  0  0  0  0  0  0  0  0  0
   -3.8251   -1.7949   -1.5041 H   0  0  0  0  0  0  0  0  0  0  0  0
   -4.2808   -2.4815    0.0825 H   0  0  0  0  0  0  0  0  0  0  0  0
   -1.7605   -2.4771   -0.5362 H   0  0  0  0  0  0  0  0  0  0  0  0
   -2.3031   -2.0386    1.1283 H   0  0  0  0  0  0  0  0  0  0  0  0
   -2.3567   -0.5109   -2.1658 H   0  0  0  0  0  0  0  0  0  0  0  0
   -0.5925   -0.6106   -2.0293 H   0  0  0  0  0  0  0  0  0  0  0  0
   -1.4743    0.9830   -1.8122 H   0  0  0  0  0  0  0  0  0  0  0  0
  1  2  1  0
  2  3  1  0
  3  4  1  0
  4  5  2  0
  4  6  1  0
  6  7  1  6
  6  8  1  0
  8  9  1  0
  9 10  1  0
 10 11  1  0
 11 12  1  0
 12 13  1  0
 13 14  1  0
 14 15  1  0
 15 16  1  0
 16 17  2  0
 16 18  1  0
 18 19  1  0
 19 20  1  0
 20 21  1  6
  6  1  1  0
 20 10  1  0
 11  1  1  0
 20 14  1  0
  1 22  1  1
  2 23  1  0
  2 24  1  0
  3 25  1  0
  3 26  1  0
  7 27  1  0
  7 28  1  0
  7 29  1  0
  8 30  1  0
  8 31  1  0
  9 32  1  0
  9 33  1  0
 10 34  1  1
 11 35  1  6
 12 36  1  0
 12 37  1  0
 13 38  1  0
 13 39  1  0
 14 40  1  1
 15 41  1  0
 15 42  1  0
 18 43  1  0
 18 44  1  0
 19 45  1  0
 19 46  1  0
 21 47  1  0
 21 48  1  0
 21 49  1  0
M  END
$$$$
