@<TRIPOS>MOLECULE
*****
 95 98 0 0 0
SMALL
GASTEIGER

@<TRIPOS>ATOM
      1 C           3.7133   -3.0977    0.9178 C.3     1  UNL1       -0.0221
      2 C           3.3553   -1.6679    0.8698 C.ar    1  UNL1        0.0451
      3 C           4.2985   -0.6933    1.0770 C.ar    1  UNL1       -0.0007
      4 C           3.9023    0.6177    1.0205 C.ar    1  UNL1        0.1242
      5 N           4.8520    1.6557    1.2064 N.pl3   1  UNL1       -0.3260
      6 C           6.2536    1.4112    1.4361 C.3     1  UNL1        0.0248
      7 C           6.9428    2.7552    1.6047 C.3     1  UNL1       -0.0186
      8 C           8.4567    2.5966    1.6169 C.3     1  UNL1        0.0163
      9 N           8.8164    1.9962    0.3517 N.am    1  UNL1       -0.3013
     10 C          10.1849    1.8184    0.0233 C.2     1  UNL1        0.2168
     11 O          11.0616    2.1915    0.8296 O.2     1  UNL1       -0.2756
     12 C          10.5979    1.1924   -1.2704 C.3     1  UNL1        0.0367
     13 C          12.1042    1.1369   -1.3794 C.3     1  UNL1        0.0046
     14 N          12.7344    0.3946   -0.3491 N.3     1  UNL1       -0.3062
     15 C          12.5166   -1.0116   -0.3303 C.3     1  UNL1        0.0943
     16 C          13.1351   -1.7249   -1.4641 C.2     1  UNL1        0.3187
     17 O          13.7700   -1.0547   -2.3104 O.2     1  UNL1       -0.2496
     18 O          13.0550   -3.0935   -1.6495 O.3     1  UNL1       -0.4797
     19 C           7.7430    1.6024   -0.5394 C.3     1  UNL1        0.0163
     20 C           6.7988    0.6898    0.2199 C.3     1  UNL1       -0.0186
     21 N           2.6057    0.9143    0.7651 N.ar    1  UNL1       -0.1997
     22 C           1.6964   -0.0468    0.5647 C.ar    1  UNL1        0.2174
     23 N           0.3228    0.2903    0.2909 N.pl3   1  UNL1       -0.3077
     24 C          -0.5861   -0.7903    0.0105 C.3     1  UNL1        0.0574
     25 C          -1.9342   -0.2786   -0.2701 C.ar    1  UNL1        0.0998
     26 C          -2.4185    0.1363   -1.4853 C.ar    1  UNL1        0.0502
     27 N          -3.6927    0.5114   -1.3251 N.ar    1  UNL1       -0.2514
     28 C          -4.5953    1.0347   -2.3594 C.3     1  UNL1        0.0443
     29 C          -5.3015   -0.1092   -3.0266 C.3     1  UNL1       -0.0207
     30 C          -6.0891   -0.8783   -1.9361 C.3     1  UNL1       -0.0024
     31 N          -6.7809   -1.9665   -2.5093 N.3     1  UNL1       -0.3159
     32 C          -7.4969   -2.8868   -1.7554 C.3     1  UNL1       -0.0030
     33 C          -8.7748   -2.5707   -1.0937 C.3     1  UNL1       -0.0278
     34 C          -8.8173   -1.5025   -0.0707 C.3     1  UNL1       -0.0027
     35 N         -10.1985   -1.4306    0.4976 N.3     1  UNL1       -0.3132
     36 C         -10.2116   -0.3949    1.5148 C.3     1  UNL1        0.0076
     37 C          -9.8211    0.9001    0.8736 C.3     1  UNL1       -0.0375
     38 C         -10.5810    2.0165    1.5903 C.3     1  UNL1       -0.0516
     39 C         -12.0263    1.8467    1.1848 C.3     1  UNL1       -0.0530
     40 C         -12.5687    0.5004    1.6050 C.3     1  UNL1       -0.0516
     41 C         -11.5080   -0.3520    2.2599 C.3     1  UNL1       -0.0375
     42 N          -3.9913    0.3322   -0.0365 N.ar    1  UNL1       -0.0654
     43 N          -2.9293   -0.1459    0.6094 N.ar    1  UNL1       -0.1329
     44 N           2.0764   -1.3237    0.6182 N.ar    1  UNL1       -0.2197
     45 H           4.7812   -3.2566    0.6974 H       1  UNL1        0.0293
     46 H           3.4707   -3.5245    1.9192 H       1  UNL1        0.0293
     47 H           3.1053   -3.6027    0.1124 H       1  UNL1        0.0293
     48 H           5.3030   -1.0263    1.2760 H       1  UNL1        0.0670
     49 H           4.5015    2.6519    1.1709 H       1  UNL1        0.1477
     50 H           6.4563    0.7863    2.3318 H       1  UNL1        0.0499
     51 H           6.6040    3.4016    0.7776 H       1  UNL1        0.0298
     52 H           6.5767    3.1823    2.5608 H       1  UNL1        0.0298
     53 H           8.8755    3.6092    1.7673 H       1  UNL1        0.0465
     54 H           8.6814    1.9308    2.4773 H       1  UNL1        0.0465
     55 H          10.1626    1.8406   -2.0636 H       1  UNL1        0.0371
     56 H          10.1061    0.2175   -1.3405 H       1  UNL1        0.0371
     57 H          12.4467    2.2047   -1.2576 H       1  UNL1        0.0429
     58 H          12.4310    0.8520   -2.3917 H       1  UNL1        0.0429
     59 H          13.7152    0.6757   -0.2488 H       1  UNL1        0.1225
     60 H          11.4568   -1.2811   -0.1849 H       1  UNL1        0.0539
     61 H          13.0479   -1.3916    0.5969 H       1  UNL1        0.0539
     62 H          13.7683   -3.5862   -2.1775 H       1  UNL1        0.2951
     63 H           8.1198    1.0011   -1.3953 H       1  UNL1        0.0465
     64 H           7.2541    2.5129   -0.9269 H       1  UNL1        0.0465
     65 H           5.9691    0.4240   -0.4991 H       1  UNL1        0.0298
     66 H           7.3973   -0.2053    0.4850 H       1  UNL1        0.0298
     67 H          -0.0024    1.2814    0.2946 H       1  UNL1        0.1493
     68 H          -0.5813   -1.4781    0.8909 H       1  UNL1        0.0528
     69 H          -0.2076   -1.4283   -0.8381 H       1  UNL1        0.0528
     70 H          -1.8632    0.1562   -2.4205 H       1  UNL1        0.0846
     71 H          -4.0772    1.6815   -3.0687 H       1  UNL1        0.0510
     72 H          -5.3190    1.6997   -1.8074 H       1  UNL1        0.0510
     73 H          -6.0420    0.1969   -3.7618 H       1  UNL1        0.0295
     74 H          -4.5721   -0.8277   -3.4085 H       1  UNL1        0.0295
     75 H          -5.2641   -1.3096   -1.2994 H       1  UNL1        0.0425
     76 H          -6.6653   -0.1372   -1.3985 H       1  UNL1        0.0425
     77 H          -6.2031   -2.4285   -3.2409 H       1  UNL1        0.1219
     78 H          -7.6820   -3.8331   -2.3742 H       1  UNL1        0.0424
     79 H          -6.8106   -3.2760   -0.8971 H       1  UNL1        0.0424
     80 H          -9.1318   -3.5367   -0.6113 H       1  UNL1        0.0290
     81 H          -9.5489   -2.3381   -1.8848 H       1  UNL1        0.0290
     82 H          -8.6427   -0.4902   -0.5504 H       1  UNL1        0.0424
     83 H          -8.1593   -1.6341    0.7896 H       1  UNL1        0.0424
     84 H         -10.7684   -1.1065   -0.3343 H       1  UNL1        0.1222
     85 H          -9.4253   -0.6725    2.2521 H       1  UNL1        0.0460
     86 H          -8.7201    1.0315    0.9699 H       1  UNL1        0.0280
     87 H         -10.1680    0.8766   -0.1806 H       1  UNL1        0.0280
     88 H         -10.4155    1.9200    2.6758 H       1  UNL1        0.0266
     89 H         -10.2406    3.0165    1.2571 H       1  UNL1        0.0266
     90 H         -12.0621    1.8650    0.0742 H       1  UNL1        0.0265
     91 H         -12.6148    2.6955    1.5482 H       1  UNL1        0.0265
     92 H         -13.3552    0.6866    2.3650 H       1  UNL1        0.0266
     93 H         -13.0435   -0.0465    0.7730 H       1  UNL1        0.0266
     94 H         -11.9098   -1.4085    2.2564 H       1  UNL1        0.0280
     95 H         -11.4054   -0.0936    3.3305 H       1  UNL1        0.0280
@<TRIPOS>BOND
     1     1     2    1
     2     2     3   ar
     3     3     4   ar
     4     4     5    1
     5     5     6    1
     6     6     7    1
     7     7     8    1
     8     8     9    1
     9     9    10   am
    10    10    11    2
    11    10    12    1
    12    12    13    1
    13    13    14    1
    14    14    15    1
    15    15    16    1
    16    16    17    2
    17    16    18    1
    18     9    19    1
    19    19    20    1
    20     4    21   ar
    21    21    22   ar
    22    22    23    1
    23    23    24    1
    24    24    25    1
    25    25    26   ar
    26    26    27   ar
    27    27    28    1
    28    28    29    1
    29    29    30    1
    30    30    31    1
    31    31    32    1
    32    32    33    1
    33    33    34    1
    34    34    35    1
    35    35    36    1
    36    36    37    1
    37    37    38    1
    38    38    39    1
    39    39    40    1
    40    40    41    1
    41    27    42   ar
    42    42    43   ar
    43    22    44   ar
    44    44     2   ar
    45    20     6    1
    46    43    25   ar
    47    41    36    1
    48     1    45    1
    49     1    46    1
    50     1    47    1
    51     3    48    1
    52     5    49    1
    53     6    50    1
    54     7    51    1
    55     7    52    1
    56     8    53    1
    57     8    54    1
    58    12    55    1
    59    12    56    1
    60    13    57    1
    61    13    58    1
    62    14    59    1
    63    15    60    1
    64    15    61    1
    65    18    62    1
    66    19    63    1
    67    19    64    1
    68    20    65    1
    69    20    66    1
    70    23    67    1
    71    24    68    1
    72    24    69    1
    73    26    70    1
    74    28    71    1
    75    28    72    1
    76    29    73    1
    77    29    74    1
    78    30    75    1
    79    30    76    1
    80    31    77    1
    81    32    78    1
    82    32    79    1
    83    33    80    1
    84    33    81    1
    85    34    82    1
    86    34    83    1
    87    35    84    1
    88    36    85    1
    89    37    86    1
    90    37    87    1
    91    38    88    1
    92    38    89    1
    93    39    90    1
    94    39    91    1
    95    40    92    1
    96    40    93    1
    97    41    94    1
    98    41    95    1
