
     RDKit          3D

 95 98  0  0  0  0  0  0  0  0999 V2000
    3.7133   -3.0977    0.9178 C   0  0  0  0  0  0  0  0  0  0  0  0
    3.3553   -1.6679    0.8698 C   0  0  0  0  0  0  0  0  0  0  0  0
    4.2985   -0.6933    1.0770 C   0  0  0  0  0  0  0  0  0  0  0  0
    3.9023    0.6177    1.0205 C   0  0  0  0  0  0  0  0  0  0  0  0
    4.8520    1.6557    1.2064 N   0  0  0  0  0  0  0  0  0  0  0  0
    6.2536    1.4112    1.4361 C   0  0  0  0  0  0  0  0  0  0  0  0
    6.9428    2.7552    1.6047 C   0  0  0  0  0  0  0  0  0  0  0  0
    8.4567    2.5966    1.6169 C   0  0  0  0  0  0  0  0  0  0  0  0
    8.8164    1.9962    0.3517 N   0  0  0  0  0  0  0  0  0  0  0  0
   10.1849    1.8184    0.0233 C   0  0  0  0  0  0  0  0  0  0  0  0
   11.0616    2.1915    0.8296 O   0  0  0  0  0  0  0  0  0  0  0  0
   10.5979    1.1924   -1.2704 C   0  0  0  0  0  0  0  0  0  0  0  0
   12.1042    1.1369   -1.3794 C   0  0  0  0  0  0  0  0  0  0  0  0
   12.7344    0.3946   -0.3491 N   0  0  0  0  0  0  0  0  0  0  0  0
   12.5166   -1.0116   -0.3303 C   0  0  0  0  0  0  0  0  0  0  0  0
   13.1351   -1.7249   -1.4641 C   0  0  0  0  0  0  0  0  0  0  0  0
   13.7700   -1.0547   -2.3104 O   0  0  0  0  0  0  0  0  0  0  0  0
   13.0550   -3.0935   -1.6495 O   0  0  0  0  0  0  0  0  0  0  0  0
    7.7430    1.6024   -0.5394 C   0  0  0  0  0  0  0  0  0  0  0  0
    6.7988    0.6898    0.2199 C   0  0  0  0  0  0  0  0  0  0  0  0
    2.6057    0.9143    0.7651 N   0  0  0  0  0  0  0  0  0  0  0  0
    1.6964   -0.0468    0.5647 C   0  0  0  0  0  0  0  0  0  0  0  0
    0.3228    0.2903    0.2909 N   0  0  0  0  0  0  0  0  0  0  0  0
   -0.5861   -0.7903    0.0105 C   0  0  0  0  0  0  0  0  0  0  0  0
   -1.9342   -0.2786   -0.2701 C   0  0  0  0  0  0  0  0  0  0  0  0
   -2.4185    0.1363   -1.4853 C   0  0  0  0  0  0  0  0  0  0  0  0
   -3.6927    0.5114   -1.3251 N   0  0  0  0  0  0  0  0  0  0  0  0
   -4.5953    1.0347   -2.3594 C   0  0  0  0  0  0  0  0  0  0  0  0
   -5.3015   -0.1092   -3.0266 C   0  0  0  0  0  0  0  0  0  0  0  0
   -6.0891   -0.8783   -1.9361 C   0  0  0  0  0  0  0  0  0  0  0  0
   -6.7809   -1.9665   -2.5093 N   0  0  0  0  0  0  0  0  0  0  0  0
   -7.4969   -2.8868   -1.7554 C   0  0  0  0  0  0  0  0  0  0  0  0
   -8.7748   -2.5707   -1.0937 C   0  0  0  0  0  0  0  0  0  0  0  0
   -8.8173   -1.5025   -0.0707 C   0  0  0  0  0  0  0  0  0  0  0  0
  -10.1985   -1.4306    0.4976 N   0  0  0  0  0  0  0  0  0  0  0  0
  -10.2116   -0.3949    1.5148 C   0  0  0  0  0  0  0  0  0  0  0  0
   -9.8211    0.9001    0.8736 C   0  0  0  0  0  0  0  0  0  0  0  0
  -10.5810    2.0165    1.5903 C   0  0  0  0  0  0  0  0  0  0  0  0
  -12.0263    1.8467    1.1848 C   0  0  0  0  0  0  0  0  0  0  0  0
  -12.5687    0.5004    1.6050 C   0  0  0  0  0  0  0  0  0  0  0  0
  -11.5080   -0.3520    2.2599 C   0  0  0  0  0  0  0  0  0  0  0  0
   -3.9913    0.3322   -0.0365 N   0  0  0  0  0  0  0  0  0  0  0  0
   -2.9293   -0.1459    0.6094 N   0  0  0  0  0  0  0  0  0  0  0  0
    2.0764   -1.3237    0.6182 N   0  0  0  0  0  0  0  0  0  0  0  0
    4.7812   -3.2566    0.6974 H   0  0  0  0  0  0  0  0  0  0  0  0
    3.4707   -3.5245    1.9192 H   0  0  0  0  0  0  0  0  0  0  0  0
    3.1053   -3.6027    0.1124 H   0  0  0  0  0  0  0  0  0  0  0  0
    5.3030   -1.0263    1.2760 H   0  0  0  0  0  0  0  0  0  0  0  0
    4.5015    2.6519    1.1709 H   0  0  0  0  0  0  0  0  0  0  0  0
    6.4563    0.7863    2.3318 H   0  0  0  0  0  0  0  0  0  0  0  0
    6.6040    3.4016    0.7776 H   0  0  0  0  0  0  0  0  0  0  0  0
    6.5767    3.1823    2.5608 H   0  0  0  0  0  0  0  0  0  0  0  0
    8.8755    3.6092    1.7673 H   0  0  0  0  0  0  0  0  0  0  0  0
    8.6814    1.9308    2.4773 H   0  0  0  0  0  0  0  0  0  0  0  0
   10.1626    1.8406   -2.0636 H   0  0  0  0  0  0  0  0  0  0  0  0
   10.1061    0.2175   -1.3405 H   0  0  0  0  0  0  0  0  0  0  0  0
   12.4467    2.2047   -1.2576 H   0  0  0  0  0  0  0  0  0  0  0  0
   12.4310    0.8520   -2.3917 H   0  0  0  0  0  0  0  0  0  0  0  0
   13.7152    0.6757   -0.2488 H   0  0  0  0  0  0  0  0  0  0  0  0
   11.4568   -1.2811   -0.1849 H   0  0  0  0  0  0  0  0  0  0  0  0
   13.0479   -1.3916    0.5969 H   0  0  0  0  0  0  0  0  0  0  0  0
   13.7683   -3.5862   -2.1775 H   0  0  0  0  0  0  0  0  0  0  0  0
    8.1198    1.0011   -1.3953 H   0  0  0  0  0  0  0  0  0  0  0  0
    7.2541    2.5129   -0.9269 H   0  0  0  0  0  0  0  0  0  0  0  0
    5.9691    0.4240   -0.4991 H   0  0  0  0  0  0  0  0  0  0  0  0
    7.3973   -0.2053    0.4850 H   0  0  0  0  0  0  0  0  0  0  0  0
   -0.0024    1.2814    0.2946 H   0  0  0  0  0  0  0  0  0  0  0  0
   -0.5813   -1.4781    0.8909 H   0  0  0  0  0  0  0  0  0  0  0  0
   -0.2076   -1.4283   -0.8381 H   0  0  0  0  0  0  0  0  0  0  0  0
   -1.8632    0.1562   -2.4205 H   0  0  0  0  0  0  0  0  0  0  0  0
   -4.0772    1.6815   -3.0687 H   0  0  0  0  0  0  0  0  0  0  0  0
   -5.3190    1.6997   -1.8074 H   0  0  0  0  0  0  0  0  0  0  0  0
   -6.0420    0.1969   -3.7618 H   0  0  0  0  0  0  0  0  0  0  0  0
   -4.5721   -0.8277   -3.4085 H   0  0  0  0  0  0  0  0  0  0  0  0
   -5.2641   -1.3096   -1.2994 H   0  0  0  0  0  0  0  0  0  0  0  0
   -6.6653   -0.1372   -1.3985 H   0  0  0  0  0  0  0  0  0  0  0  0
   -6.2031   -2.4285   -3.2409 H   0  0  0  0  0  0  0  0  0  0  0  0
   -7.6820   -3.8331   -2.3742 H   0  0  0  0  0  0  0  0  0  0  0  0
   -6.8106   -3.2760   -0.8971 H   0  0  0  0  0  0  0  0  0  0  0  0
   -9.1318   -3.5367   -0.6113 H   0  0  0  0  0  0  0  0  0  0  0  0
   -9.5489   -2.3381   -1.8848 H   0  0  0  0  0  0  0  0  0  0  0  0
   -8.6427   -0.4902   -0.5504 H   0  0  0  0  0  0  0  0  0  0  0  0
   -8.1593   -1.6341    0.7896 H   0  0  0  0  0  0  0  0  0  0  0  0
  -10.7684   -1.1065   -0.3343 H   0  0  0  0  0  0  0  0  0  0  0  0
   -9.4253   -0.6725    2.2521 H   0  0  0  0  0  0  0  0  0  0  0  0
   -8.7201    1.0315    0.9699 H   0  0  0  0  0  0  0  0  0  0  0  0
  -10.1680    0.8766   -0.1806 H   0  0  0  0  0  0  0  0  0  0  0  0
  -10.4155    1.9200    2.6758 H   0  0  0  0  0  0  0  0  0  0  0  0
  -10.2406    3.0165    1.2571 H   0  0  0  0  0  0  0  0  0  0  0  0
  -12.0621    1.8650    0.0742 H   0  0  0  0  0  0  0  0  0  0  0  0
  -12.6148    2.6955    1.5482 H   0  0  0  0  0  0  0  0  0  0  0  0
  -13.3552    0.6866    2.3650 H   0  0  0  0  0  0  0  0  0  0  0  0
  -13.0435   -0.0465    0.7730 H   0  0  0  0  0  0  0  0  0  0  0  0
  -11.9098   -1.4085    2.2564 H   0  0  0  0  0  0  0  0  0  0  0  0
  -11.4054   -0.0936    3.3305 H   0  0  0  0  0  0  0  0  0  0  0  0
  1  2  1  0
  2  3  2  0
  3  4  1  0
  4  5  1  0
  5  6  1  0
  6  7  1  0
  7  8  1  0
  8  9  1  0
  9 10  1  0
 10 11  2  0
 10 12  1  0
 12 13  1  0
 13 14  1  0
 14 15  1  0
 15 16  1  0
 16 17  2  0
 16 18  1  0
  9 19  1  0
 19 20  1  0
  4 21  2  0
 21 22  1  0
 22 23  1  0
 23 24  1  0
 24 25  1  0
 25 26  2  0
 26 27  1  0
 27 28  1  0
 28 29  1  0
 29 30  1  0
 30 31  1  0
 31 32  1  0
 32 33  1  0
 33 34  1  0
 34 35  1  0
 35 36  1  0
 36 37  1  0
 37 38  1  0
 38 39  1  0
 39 40  1  0
 40 41  1  0
 27 42  1  0
 42 43  2  0
 22 44  2  0
 44  2  1  0
 20  6  1  0
 43 25  1  0
 41 36  1  0
  1 45  1  0
  1 46  1  0
  1 47  1  0
  3 48  1  0
  5 49  1  0
  6 50  1  0
  7 51  1  0
  7 52  1  0
  8 53  1  0
  8 54  1  0
 12 55  1  0
 12 56  1  0
 13 57  1  0
 13 58  1  0
 14 59  1  0
 15 60  1  0
 15 61  1  0
 18 62  1  0
 19 63  1  0
 19 64  1  0
 20 65  1  0
 20 66  1  0
 23 67  1  0
 24 68  1  0
 24 69  1  0
 26 70  1  0
 28 71  1  0
 28 72  1  0
 29 73  1  0
 29 74  1  0
 30 75  1  0
 30 76  1  0
 31 77  1  0
 32 78  1  0
 32 79  1  0
 33 80  1  0
 33 81  1  0
 34 82  1  0
 34 83  1  0
 35 84  1  0
 36 85  1  0
 37 86  1  0
 37 87  1  0
 38 88  1  0
 38 89  1  0
 39 90  1  0
 39 91  1  0
 40 92  1  0
 40 93  1  0
 41 94  1  0
 41 95  1  0
M  END
$$$$
