@<TRIPOS>MOLECULE
*****
 69 71 0 0 0
SMALL
GASTEIGER

@<TRIPOS>ATOM
      1 C           6.5430    2.1006   -2.1376 C.3     1  UNL1       -0.0130
      2 N           6.3941    2.2718   -0.7287 N.3     1  UNL1       -0.3069
      3 C           7.5889    2.6850   -0.0545 C.3     1  UNL1       -0.0130
      4 C           5.6613    1.2543   -0.0475 C.3     1  UNL1        0.0141
      5 C           4.1874    1.2380   -0.4012 C.3     1  UNL1        0.0275
      6 N           3.4816    0.1965    0.3069 N.am    1  UNL1       -0.2987
      7 C           2.9014    0.4949    1.6026 C.3     1  UNL1        0.0305
      8 C           2.3264   -0.7269    2.2505 C.3     1  UNL1        0.0308
      9 N           1.3591   -1.4092    1.3563 N.am    1  UNL1       -0.2955
     10 C           0.1123   -0.7946    1.3638 C.2     1  UNL1        0.2490
     11 O           0.0270    0.2747    2.0794 O.2     1  UNL1       -0.2699
     12 C          -1.0809   -1.2588    0.6329 C.ar    1  UNL1        0.0657
     13 C          -1.3201   -2.5206    0.2382 C.ar    1  UNL1       -0.0370
     14 C          -2.4787   -2.8522   -0.3599 C.ar    1  UNL1       -0.0023
     15 C          -3.0029   -4.1181   -0.8857 C.3     1  UNL1       -0.0064
     16 C          -4.3843   -3.9140   -1.4569 C.3     1  UNL1       -0.0556
     17 C          -2.9999   -5.1237    0.2375 C.3     1  UNL1       -0.0556
     18 C          -2.1015   -4.5884   -1.9950 C.3     1  UNL1       -0.0556
     19 S          -3.3478   -1.3398   -0.4057 S.2     1  UNL1       -0.0771
     20 C          -2.0903   -0.3379    0.3890 C.ar    1  UNL1        0.0853
     21 N          -2.2136    1.0509    0.6434 N.am    1  UNL1       -0.2629
     22 C          -3.4116    1.7613    0.2965 C.2     1  UNL1        0.3085
     23 O          -4.3307    1.0973   -0.2368 O.2     1  UNL1       -0.2521
     24 N          -3.5164    3.1356    0.5560 N.am    1  UNL1       -0.2678
     25 C          -4.7078    3.8260    0.2079 C.ar    1  UNL1        0.0546
     26 C          -4.7718    4.3757   -1.0527 C.ar    1  UNL1       -0.0389
     27 C          -5.9124    5.0527   -1.4223 C.ar    1  UNL1       -0.0585
     28 C          -6.9838    5.1860   -0.5520 C.ar    1  UNL1       -0.0419
     29 C          -6.8905    4.6198    0.7156 C.ar    1  UNL1        0.0610
     30 CL         -8.2004    4.7465    1.8676 Cl      1  UNL1       -0.0820
     31 C          -5.7526    3.9409    1.0929 C.ar    1  UNL1        0.0804
     32 CL         -5.6125    3.2241    2.6732 Cl      1  UNL1       -0.0801
     33 C           1.7204   -2.5282    0.5504 C.3     1  UNL1        0.0233
     34 C           3.2342   -2.4057    0.2150 C.3     1  UNL1        0.0399
     35 C           3.4263   -1.0540   -0.3591 C.2     1  UNL1        0.2171
     36 O           3.5542   -1.0488   -1.6050 O.2     1  UNL1       -0.2755
     37 H           6.6070    3.0558   -2.6981 H       1  UNL1        0.0391
     38 H           7.5510    1.6144   -2.2943 H       1  UNL1        0.0391
     39 H           5.8141    1.3866   -2.5164 H       1  UNL1        0.0391
     40 H           7.8824    1.8831    0.6500 H       1  UNL1        0.0391
     41 H           8.4371    2.7418   -0.7965 H       1  UNL1        0.0391
     42 H           7.5336    3.6483    0.4519 H       1  UNL1        0.0391
     43 H           5.7188    1.4531    1.0448 H       1  UNL1        0.0442
     44 H           6.1425    0.2822   -0.2781 H       1  UNL1        0.0442
     45 H           3.7079    2.2075   -0.2533 H       1  UNL1        0.0477
     46 H           4.1091    1.0067   -1.4885 H       1  UNL1        0.0477
     47 H           2.0709    1.2494    1.5017 H       1  UNL1        0.0480
     48 H           3.6688    0.9000    2.2659 H       1  UNL1        0.0480
     49 H           1.7036   -0.3530    3.1167 H       1  UNL1        0.0480
     50 H           3.0906   -1.4184    2.5809 H       1  UNL1        0.0480
     51 H          -0.5910   -3.3571    0.4206 H       1  UNL1        0.0634
     52 H          -5.0950   -4.6181   -0.9734 H       1  UNL1        0.0238
     53 H          -4.7180   -2.8493   -1.3103 H       1  UNL1        0.0238
     54 H          -4.4365   -4.1043   -2.5480 H       1  UNL1        0.0238
     55 H          -3.1110   -4.5979    1.1905 H       1  UNL1        0.0238
     56 H          -2.0436   -5.6806    0.1924 H       1  UNL1        0.0238
     57 H          -3.8244   -5.8737    0.0913 H       1  UNL1        0.0238
     58 H          -1.1018   -4.8235   -1.6123 H       1  UNL1        0.0238
     59 H          -2.0265   -3.8078   -2.7874 H       1  UNL1        0.0238
     60 H          -2.5461   -5.4784   -2.4912 H       1  UNL1        0.0238
     61 H          -1.4483    1.5638    1.0708 H       1  UNL1        0.1569
     62 H          -2.7430    3.6701    0.9992 H       1  UNL1        0.1564
     63 H          -3.9399    4.2775   -1.7402 H       1  UNL1        0.0637
     64 H          -6.0114    5.5097   -2.4187 H       1  UNL1        0.0619
     65 H          -7.8883    5.7100   -0.8139 H       1  UNL1        0.0633
     66 H           1.5741   -3.5089    0.9991 H       1  UNL1        0.0469
     67 H           1.2191   -2.4595   -0.4428 H       1  UNL1        0.0469
     68 H           3.4353   -3.1992   -0.5411 H       1  UNL1        0.0374
     69 H           3.8521   -2.5418    1.1087 H       1  UNL1        0.0374
@<TRIPOS>BOND
     1     1     2    1
     2     2     3    1
     3     2     4    1
     4     4     5    1
     5     5     6    1
     6     6     7    1
     7     7     8    1
     8     8     9    1
     9     9    10   am
    10    10    11    2
    11    10    12    1
    12    12    13   ar
    13    13    14   ar
    14    14    15    1
    15    15    16    1
    16    15    17    1
    17    15    18    1
    18    14    19   ar
    19    19    20   ar
    20    20    21    1
    21    21    22   am
    22    22    23    2
    23    22    24   am
    24    24    25    1
    25    25    26   ar
    26    26    27   ar
    27    27    28   ar
    28    28    29   ar
    29    29    30    1
    30    29    31   ar
    31    31    32    1
    32     9    33    1
    33    33    34    1
    34    34    35    1
    35    35    36    2
    36    35     6   am
    37    20    12   ar
    38    31    25   ar
    39     1    37    1
    40     1    38    1
    41     1    39    1
    42     3    40    1
    43     3    41    1
    44     3    42    1
    45     4    43    1
    46     4    44    1
    47     5    45    1
    48     5    46    1
    49     7    47    1
    50     7    48    1
    51     8    49    1
    52     8    50    1
    53    13    51    1
    54    16    52    1
    55    16    53    1
    56    16    54    1
    57    17    55    1
    58    17    56    1
    59    17    57    1
    60    18    58    1
    61    18    59    1
    62    18    60    1
    63    21    61    1
    64    24    62    1
    65    26    63    1
    66    27    64    1
    67    28    65    1
    68    33    66    1
    69    33    67    1
    70    34    68    1
    71    34    69    1
