
     RDKit          3D

 69 71  0  0  0  0  0  0  0  0999 V2000
    6.5430    2.1006   -2.1376 C   0  0  0  0  0  0  0  0  0  0  0  0
    6.3941    2.2718   -0.7287 N   0  0  0  0  0  0  0  0  0  0  0  0
    7.5889    2.6850   -0.0545 C   0  0  0  0  0  0  0  0  0  0  0  0
    5.6613    1.2543   -0.0475 C   0  0  0  0  0  0  0  0  0  0  0  0
    4.1874    1.2380   -0.4012 C   0  0  0  0  0  0  0  0  0  0  0  0
    3.4816    0.1965    0.3069 N   0  0  0  0  0  0  0  0  0  0  0  0
    2.9014    0.4949    1.6026 C   0  0  0  0  0  0  0  0  0  0  0  0
    2.3264   -0.7269    2.2505 C   0  0  0  0  0  0  0  0  0  0  0  0
    1.3591   -1.4092    1.3563 N   0  0  0  0  0  0  0  0  0  0  0  0
    0.1123   -0.7946    1.3638 C   0  0  0  0  0  0  0  0  0  0  0  0
    0.0270    0.2747    2.0794 O   0  0  0  0  0  0  0  0  0  0  0  0
   -1.0809   -1.2588    0.6329 C   0  0  0  0  0  0  0  0  0  0  0  0
   -1.3201   -2.5206    0.2382 C   0  0  0  0  0  0  0  0  0  0  0  0
   -2.4787   -2.8522   -0.3599 C   0  0  0  0  0  0  0  0  0  0  0  0
   -3.0029   -4.1181   -0.8857 C   0  0  0  0  0  0  0  0  0  0  0  0
   -4.3843   -3.9140   -1.4569 C   0  0  0  0  0  0  0  0  0  0  0  0
   -2.9999   -5.1237    0.2375 C   0  0  0  0  0  0  0  0  0  0  0  0
   -2.1015   -4.5884   -1.9950 C   0  0  0  0  0  0  0  0  0  0  0  0
   -3.3478   -1.3398   -0.4057 S   0  0  0  0  0  0  0  0  0  0  0  0
   -2.0903   -0.3379    0.3890 C   0  0  0  0  0  0  0  0  0  0  0  0
   -2.2136    1.0509    0.6434 N   0  0  0  0  0  0  0  0  0  0  0  0
   -3.4116    1.7613    0.2965 C   0  0  0  0  0  0  0  0  0  0  0  0
   -4.3307    1.0973   -0.2368 O   0  0  0  0  0  0  0  0  0  0  0  0
   -3.5164    3.1356    0.5560 N   0  0  0  0  0  0  0  0  0  0  0  0
   -4.7078    3.8260    0.2079 C   0  0  0  0  0  0  0  0  0  0  0  0
   -4.7718    4.3757   -1.0527 C   0  0  0  0  0  0  0  0  0  0  0  0
   -5.9124    5.0527   -1.4223 C   0  0  0  0  0  0  0  0  0  0  0  0
   -6.9838    5.1860   -0.5520 C   0  0  0  0  0  0  0  0  0  0  0  0
   -6.8905    4.6198    0.7156 C   0  0  0  0  0  0  0  0  0  0  0  0
   -8.2004    4.7465    1.8676 Cl  0  0  0  0  0  0  0  0  0  0  0  0
   -5.7526    3.9409    1.0929 C   0  0  0  0  0  0  0  0  0  0  0  0
   -5.6125    3.2241    2.6732 Cl  0  0  0  0  0  0  0  0  0  0  0  0
    1.7204   -2.5282    0.5504 C   0  0  0  0  0  0  0  0  0  0  0  0
    3.2342   -2.4057    0.2150 C   0  0  0  0  0  0  0  0  0  0  0  0
    3.4263   -1.0540   -0.3591 C   0  0  0  0  0  0  0  0  0  0  0  0
    3.5542   -1.0488   -1.6050 O   0  0  0  0  0  0  0  0  0  0  0  0
    6.6070    3.0558   -2.6981 H   0  0  0  0  0  0  0  0  0  0  0  0
    7.5510    1.6144   -2.2943 H   0  0  0  0  0  0  0  0  0  0  0  0
    5.8141    1.3866   -2.5164 H   0  0  0  0  0  0  0  0  0  0  0  0
    7.8824    1.8831    0.6500 H   0  0  0  0  0  0  0  0  0  0  0  0
    8.4371    2.7418   -0.7965 H   0  0  0  0  0  0  0  0  0  0  0  0
    7.5336    3.6483    0.4519 H   0  0  0  0  0  0  0  0  0  0  0  0
    5.7188    1.4531    1.0448 H   0  0  0  0  0  0  0  0  0  0  0  0
    6.1425    0.2822   -0.2781 H   0  0  0  0  0  0  0  0  0  0  0  0
    3.7079    2.2075   -0.2533 H   0  0  0  0  0  0  0  0  0  0  0  0
    4.1091    1.0067   -1.4885 H   0  0  0  0  0  0  0  0  0  0  0  0
    2.0709    1.2494    1.5017 H   0  0  0  0  0  0  0  0  0  0  0  0
    3.6688    0.9000    2.2659 H   0  0  0  0  0  0  0  0  0  0  0  0
    1.7036   -0.3530    3.1167 H   0  0  0  0  0  0  0  0  0  0  0  0
    3.0906   -1.4184    2.5809 H   0  0  0  0  0  0  0  0  0  0  0  0
   -0.5910   -3.3571    0.4206 H   0  0  0  0  0  0  0  0  0  0  0  0
   -5.0950   -4.6181   -0.9734 H   0  0  0  0  0  0  0  0  0  0  0  0
   -4.7180   -2.8493   -1.3103 H   0  0  0  0  0  0  0  0  0  0  0  0
   -4.4365   -4.1043   -2.5480 H   0  0  0  0  0  0  0  0  0  0  0  0
   -3.1110   -4.5979    1.1905 H   0  0  0  0  0  0  0  0  0  0  0  0
   -2.0436   -5.6806    0.1924 H   0  0  0  0  0  0  0  0  0  0  0  0
   -3.8244   -5.8737    0.0913 H   0  0  0  0  0  0  0  0  0  0  0  0
   -1.1018   -4.8235   -1.6123 H   0  0  0  0  0  0  0  0  0  0  0  0
   -2.0265   -3.8078   -2.7874 H   0  0  0  0  0  0  0  0  0  0  0  0
   -2.5461   -5.4784   -2.4912 H   0  0  0  0  0  0  0  0  0  0  0  0
   -1.4483    1.5638    1.0708 H   0  0  0  0  0  0  0  0  0  0  0  0
   -2.7430    3.6701    0.9992 H   0  0  0  0  0  0  0  0  0  0  0  0
   -3.9399    4.2775   -1.7402 H   0  0  0  0  0  0  0  0  0  0  0  0
   -6.0114    5.5097   -2.4187 H   0  0  0  0  0  0  0  0  0  0  0  0
   -7.8883    5.7100   -0.8139 H   0  0  0  0  0  0  0  0  0  0  0  0
    1.5741   -3.5089    0.9991 H   0  0  0  0  0  0  0  0  0  0  0  0
    1.2191   -2.4595   -0.4428 H   0  0  0  0  0  0  0  0  0  0  0  0
    3.4353   -3.1992   -0.5411 H   0  0  0  0  0  0  0  0  0  0  0  0
    3.8521   -2.5418    1.1087 H   0  0  0  0  0  0  0  0  0  0  0  0
  1  2  1  0
  2  3  1  0
  2  4  1  0
  4  5  1  0
  5  6  1  0
  6  7  1  0
  7  8  1  0
  8  9  1  0
  9 10  1  0
 10 11  2  0
 10 12  1  0
 12 13  1  0
 13 14  2  0
 14 15  1  0
 15 16  1  0
 15 17  1  0
 15 18  1  0
 14 19  1  0
 19 20  1  0
 20 21  1  0
 21 22  1  0
 22 23  2  0
 22 24  1  0
 24 25  1  0
 25 26  2  0
 26 27  1  0
 27 28  2  0
 28 29  1  0
 29 30  1  0
 29 31  2  0
 31 32  1  0
  9 33  1  0
 33 34  1  0
 34 35  1  0
 35 36  2  0
 35  6  1  0
 20 12  2  0
 31 25  1  0
  1 37  1  0
  1 38  1  0
  1 39  1  0
  3 40  1  0
  3 41  1  0
  3 42  1  0
  4 43  1  0
  4 44  1  0
  5 45  1  0
  5 46  1  0
  7 47  1  0
  7 48  1  0
  8 49  1  0
  8 50  1  0
 13 51  1  0
 16 52  1  0
 16 53  1  0
 16 54  1  0
 17 55  1  0
 17 56  1  0
 17 57  1  0
 18 58  1  0
 18 59  1  0
 18 60  1  0
 21 61  1  0
 24 62  1  0
 26 63  1  0
 27 64  1  0
 28 65  1  0
 33 66  1  0
 33 67  1  0
 34 68  1  0
 34 69  1  0
M  END
$$$$
