@<TRIPOS>MOLECULE
*****
 24 25 0 0 0
SMALL
GASTEIGER

@<TRIPOS>ATOM
      1 O          -1.0470    0.2438    1.8787 O.3     1  UNL1       -0.5032
      2 C          -1.7346    0.2347    0.6633 C.ar    1  UNL1        0.1605
      3 C          -2.9022    0.9597    0.5556 C.ar    1  UNL1        0.0018
      4 C          -3.6231    0.9858   -0.6197 C.ar    1  UNL1        0.0447
      5 CL         -5.1095    1.9079   -0.7589 Cl      1  UNL1       -0.0834
      6 C          -3.1123    0.2517   -1.6697 C.ar    1  UNL1       -0.0397
      7 C          -1.9467   -0.4726   -1.5644 C.ar    1  UNL1       -0.0143
      8 C          -1.2171   -0.5012   -0.3811 C.ar    1  UNL1        0.1697
      9 O          -0.0440   -1.2319   -0.2771 O.3     1  UNL1       -0.4509
     10 C           1.2006   -0.7413   -0.0092 C.ar    1  UNL1        0.1469
     11 C           1.4798    0.6027    0.1816 C.ar    1  UNL1       -0.0165
     12 C           2.7603    1.0629    0.4536 C.ar    1  UNL1       -0.0398
     13 C           3.7901    0.1702    0.5386 C.ar    1  UNL1        0.0426
     14 CL          5.4074    0.7278    0.8797 Cl      1  UNL1       -0.0835
     15 C           3.5377   -1.1863    0.3510 C.ar    1  UNL1       -0.0215
     16 C           2.2617   -1.6280    0.0818 C.ar    1  UNL1        0.0845
     17 CL          2.0208   -3.3466   -0.1422 Cl      1  UNL1       -0.0797
     18 H          -1.2920   -0.3983    2.6249 H       1  UNL1        0.2923
     19 H          -3.2715    1.5273    1.4119 H       1  UNL1        0.0670
     20 H          -3.6897    0.2795   -2.5926 H       1  UNL1        0.0633
     21 H          -1.5652   -1.0406   -2.4005 H       1  UNL1        0.0656
     22 H           0.7159    1.3350    0.1207 H       1  UNL1        0.0655
     23 H           2.9898    2.1110    0.6046 H       1  UNL1        0.0633
     24 H           4.3908   -1.8533    0.4290 H       1  UNL1        0.0648
@<TRIPOS>BOND
     1     1     2    1
     2     2     3   ar
     3     3     4   ar
     4     4     5    1
     5     4     6   ar
     6     6     7   ar
     7     7     8   ar
     8     8     9    1
     9     9    10    1
    10    10    11   ar
    11    11    12   ar
    12    12    13   ar
    13    13    14    1
    14    13    15   ar
    15    15    16   ar
    16    16    17    1
    17     8     2   ar
    18    16    10   ar
    19     1    18    1
    20     3    19    1
    21     6    20    1
    22     7    21    1
    23    11    22    1
    24    12    23    1
    25    15    24    1
