@<TRIPOS>MOLECULE
*****
 5 4 0 0 0
SMALL
GASTEIGER

@<TRIPOS>ATOM
      1 N          -0.5745   -0.0535    0.0655 N.pl3   1  UNL1       -0.2969
      2 C           0.8192    0.0454   -0.1024 C.1     1  UNL1        0.1635
      3 N           1.9674    0.1159   -0.2244 N.1     1  UNL1       -0.1745
      4 H          -1.0995   -0.9551    0.1015 H       1  UNL1        0.1540
      5 H          -1.1126    0.8473    0.1599 H       1  UNL1        0.1540
@<TRIPOS>BOND
     1     1     2    1
     2     2     3    3
     3     1     4    1
     4     1     5    1
