
     RDKit          3D

 40 41  0  0  0  0  0  0  0  0999 V2000
    3.7191    0.7094    1.7515 C   0  0  0  0  0  0  0  0  0  0  0  0
    2.5309    1.1119    2.6294 C   0  0  0  0  0  0  0  0  0  0  0  0
    3.0643    1.7286    3.9239 C   0  0  0  0  0  0  0  0  0  0  0  0
    1.7301   -0.1017    2.9786 C   0  0  0  0  0  0  0  0  0  0  0  0
    1.2128   -0.7665    1.8134 N   0  0  0  0  0  0  0  0  0  0  0  0
    0.3186   -0.1390    0.9063 C   0  0  0  0  0  0  0  0  0  0  0  0
   -0.0464    1.1336    1.1748 N   0  0  0  0  0  0  0  0  0  0  0  0
   -0.8927    1.7718    0.3474 C   0  0  0  0  0  0  0  0  0  0  0  0
   -1.2989    3.1346    0.5985 C   0  0  0  0  0  0  0  0  0  0  0  0
   -1.6485    4.2386    0.8091 N   0  0  0  0  0  0  0  0  0  0  0  0
   -1.3602    1.1441   -0.7240 N   0  0  0  0  0  0  0  0  0  0  0  0
   -1.0432   -0.1330   -1.0650 C   0  0  0  0  0  0  0  0  0  0  0  0
   -1.5780   -0.7475   -2.2254 N   0  0  0  0  0  0  0  0  0  0  0  0
   -2.3675   -1.9574   -2.2234 C   0  0  0  0  0  0  0  0  0  0  0  0
   -3.6189   -1.6624   -3.0419 C   0  0  0  0  0  0  0  0  0  0  0  0
   -3.3542   -1.0539   -4.2448 O   0  0  0  0  0  0  0  0  0  0  0  0
   -2.7360    0.1957   -4.0531 C   0  0  0  0  0  0  0  0  0  0  0  0
   -1.3363   -0.1398   -3.5171 C   0  0  0  0  0  0  0  0  0  0  0  0
   -0.1757   -0.7793   -0.2122 C   0  0  0  0  0  0  0  0  0  0  0  0
    0.2185   -2.1003   -0.4671 N   0  0  0  0  0  0  0  0  0  0  0  0
    4.6143    0.4881    2.3600 H   0  0  0  0  0  0  0  0  0  0  0  0
    3.4706   -0.1035    1.0627 H   0  0  0  0  0  0  0  0  0  0  0  0
    4.0080    1.5832    1.1087 H   0  0  0  0  0  0  0  0  0  0  0  0
    1.9957    1.8918    2.0922 H   0  0  0  0  0  0  0  0  0  0  0  0
    2.3799    1.5533    4.7640 H   0  0  0  0  0  0  0  0  0  0  0  0
    4.0552    1.2810    4.1299 H   0  0  0  0  0  0  0  0  0  0  0  0
    3.2134    2.8150    3.7581 H   0  0  0  0  0  0  0  0  0  0  0  0
    0.8841    0.1890    3.6365 H   0  0  0  0  0  0  0  0  0  0  0  0
    2.3985   -0.8172    3.5125 H   0  0  0  0  0  0  0  0  0  0  0  0
    1.4815   -1.7505    1.5902 H   0  0  0  0  0  0  0  0  0  0  0  0
   -1.7757   -2.7252   -2.7677 H   0  0  0  0  0  0  0  0  0  0  0  0
   -2.6738   -2.2883   -1.2309 H   0  0  0  0  0  0  0  0  0  0  0  0
   -4.3511   -1.0913   -2.4237 H   0  0  0  0  0  0  0  0  0  0  0  0
   -4.0915   -2.6394   -3.2407 H   0  0  0  0  0  0  0  0  0  0  0  0
   -3.3008    0.6775   -3.2119 H   0  0  0  0  0  0  0  0  0  0  0  0
   -2.7137    0.7813   -4.9672 H   0  0  0  0  0  0  0  0  0  0  0  0
   -0.6910    0.7395   -3.4744 H   0  0  0  0  0  0  0  0  0  0  0  0
   -0.9324   -0.8891   -4.2576 H   0  0  0  0  0  0  0  0  0  0  0  0
    1.0677   -2.3918   -0.9984 H   0  0  0  0  0  0  0  0  0  0  0  0
   -0.3766   -2.8908   -0.1010 H   0  0  0  0  0  0  0  0  0  0  0  0
  1  2  1  0
  2  3  1  0
  2  4  1  0
  4  5  1  0
  5  6  1  0
  6  7  2  0
  7  8  1  0
  8  9  1  0
  9 10  3  0
  8 11  2  0
 11 12  1  0
 12 13  1  0
 13 14  1  0
 14 15  1  0
 15 16  1  0
 16 17  1  0
 17 18  1  0
 12 19  2  0
 19 20  1  0
 19  6  1  0
 18 13  1  0
  1 21  1  0
  1 22  1  0
  1 23  1  0
  2 24  1  0
  3 25  1  0
  3 26  1  0
  3 27  1  0
  4 28  1  0
  4 29  1  0
  5 30  1  0
 14 31  1  0
 14 32  1  0
 15 33  1  0
 15 34  1  0
 17 35  1  0
 17 36  1  0
 18 37  1  0
 18 38  1  0
 20 39  1  0
 20 40  1  0
M  END
$$$$
