@<TRIPOS>MOLECULE
*****
 40 41 0 0 0
SMALL
GASTEIGER

@<TRIPOS>ATOM
      1 C           3.7191    0.7094    1.7515 C.3     1  UNL1       -0.0612
      2 C           2.5309    1.1119    2.6294 C.3     1  UNL1       -0.0312
      3 C           3.0643    1.7286    3.9239 C.3     1  UNL1       -0.0612
      4 C           1.7301   -0.1017    2.9786 C.3     1  UNL1        0.0128
      5 N           1.2128   -0.7665    1.8134 N.pl3   1  UNL1       -0.3272
      6 C           0.3186   -0.1390    0.9063 C.ar    1  UNL1        0.1460
      7 N          -0.0464    1.1336    1.1748 N.ar    1  UNL1       -0.2017
      8 C          -0.8927    1.7718    0.3474 C.ar    1  UNL1        0.2354
      9 C          -1.2989    3.1346    0.5985 C.1     1  UNL1        0.1400
     10 N          -1.6485    4.2386    0.8091 N.1     1  UNL1       -0.1876
     11 N          -1.3602    1.1441   -0.7240 N.ar    1  UNL1       -0.2015
     12 C          -1.0432   -0.1330   -1.0650 C.ar    1  UNL1        0.1487
     13 N          -1.5780   -0.7475   -2.2254 N.pl3   1  UNL1       -0.3092
     14 C          -2.3675   -1.9574   -2.2234 C.3     1  UNL1        0.0371
     15 C          -3.6189   -1.6624   -3.0419 C.3     1  UNL1        0.0634
     16 O          -3.3542   -1.0539   -4.2448 O.3     1  UNL1       -0.3767
     17 C          -2.7360    0.1957   -4.0531 C.3     1  UNL1        0.0634
     18 C          -1.3363   -0.1398   -3.5171 C.3     1  UNL1        0.0371
     19 C          -0.1757   -0.7793   -0.2122 C.ar    1  UNL1        0.1054
     20 N           0.2185   -2.1003   -0.4671 N.pl3   1  UNL1       -0.3526
     21 H           4.6143    0.4881    2.3600 H       1  UNL1        0.0233
     22 H           3.4706   -0.1035    1.0627 H       1  UNL1        0.0233
     23 H           4.0080    1.5832    1.1087 H       1  UNL1        0.0233
     24 H           1.9957    1.8918    2.0922 H       1  UNL1        0.0310
     25 H           2.3799    1.5533    4.7640 H       1  UNL1        0.0233
     26 H           4.0552    1.2810    4.1299 H       1  UNL1        0.0233
     27 H           3.2134    2.8150    3.7581 H       1  UNL1        0.0233
     28 H           0.8841    0.1890    3.6365 H       1  UNL1        0.0464
     29 H           2.3985   -0.8172    3.5125 H       1  UNL1        0.0464
     30 H           1.4815   -1.7505    1.5902 H       1  UNL1        0.1475
     31 H          -1.7757   -2.7252   -2.7677 H       1  UNL1        0.0487
     32 H          -2.6738   -2.2883   -1.2309 H       1  UNL1        0.0487
     33 H          -4.3511   -1.0913   -2.4237 H       1  UNL1        0.0575
     34 H          -4.0915   -2.6394   -3.2407 H       1  UNL1        0.0575
     35 H          -3.3008    0.6775   -3.2119 H       1  UNL1        0.0575
     36 H          -2.7137    0.7813   -4.9672 H       1  UNL1        0.0575
     37 H          -0.6910    0.7395   -3.4744 H       1  UNL1        0.0487
     38 H          -0.9324   -0.8891   -4.2576 H       1  UNL1        0.0487
     39 H           1.0677   -2.3918   -0.9984 H       1  UNL1        0.1425
     40 H          -0.3766   -2.8908   -0.1010 H       1  UNL1        0.1425
@<TRIPOS>BOND
     1     1     2    1
     2     2     3    1
     3     2     4    1
     4     4     5    1
     5     5     6    1
     6     6     7   ar
     7     7     8   ar
     8     8     9    1
     9     9    10    3
    10     8    11   ar
    11    11    12   ar
    12    12    13    1
    13    13    14    1
    14    14    15    1
    15    15    16    1
    16    16    17    1
    17    17    18    1
    18    12    19   ar
    19    19    20    1
    20    19     6   ar
    21    18    13    1
    22     1    21    1
    23     1    22    1
    24     1    23    1
    25     2    24    1
    26     3    25    1
    27     3    26    1
    28     3    27    1
    29     4    28    1
    30     4    29    1
    31     5    30    1
    32    14    31    1
    33    14    32    1
    34    15    33    1
    35    15    34    1
    36    17    35    1
    37    17    36    1
    38    18    37    1
    39    18    38    1
    40    20    39    1
    41    20    40    1
