@<TRIPOS>MOLECULE
*****
 82 83 0 0 0
SMALL
GASTEIGER

@<TRIPOS>ATOM
      1 C          -2.5668   -0.4917   -0.3136 C.3     1  UNL1        0.1341
      2 C          -2.1443    0.8381    0.1365 C.3     1  UNL1       -0.0193
      3 C          -2.1479    1.2643    1.5216 C.3     1  UNL1       -0.0443
      4 C          -1.3319    0.5867    2.5441 C.3     1  UNL1       -0.0626
      5 C          -1.7692    2.7606    1.5447 C.3     1  UNL1       -0.0626
      6 N          -3.8690   -0.9372   -0.0723 N.2     1  UNL1       -0.2036
      7 C          -4.4726   -1.6886    0.6934 C.2     1  UNL1        0.3844
      8 O          -3.7981   -2.3862    1.6857 O.2     1  UNL1       -0.4658
      9 O          -5.8572   -1.7398    0.4376 O.2     1  UNL1       -0.4452
     10 C          -6.4308   -1.2252   -0.7483 C.3     1  UNL1        0.1193
     11 C          -7.8791   -1.5969   -0.8419 C.ar    1  UNL1       -0.0102
     12 C          -8.9668   -0.8930   -0.3702 C.ar    1  UNL1       -0.0554
     13 C         -10.2153   -1.4367   -0.5735 C.ar    1  UNL1       -0.0614
     14 C         -10.3992   -2.6384   -1.2213 C.ar    1  UNL1       -0.0617
     15 C          -9.3214   -3.3601   -1.7022 C.ar    1  UNL1       -0.0614
     16 C          -8.0750   -2.8117   -1.4962 C.ar    1  UNL1       -0.0554
     17 C          -1.5883   -1.5808   -0.0109 C.2     1  UNL1        0.2281
     18 O          -1.0430   -2.0197    1.1875 O.2     1  UNL1       -0.4931
     19 N          -1.0972   -2.3018   -0.9243 N.2     1  UNL1       -0.1433
     20 N          -0.2057   -3.3363   -0.8934 N.pl3   1  UNL1       -0.1863
     21 C           0.6050   -3.5122   -2.0781 C.2     1  UNL1        0.3190
     22 O           0.8124   -4.7760   -2.6683 O.2     1  UNL1       -0.4794
     23 N           1.1878   -2.5265   -2.6674 N.2     1  UNL1       -0.0917
     24 N           1.0736   -1.2269   -2.1971 N.2     1  UNL1       -0.1093
     25 C           2.1608   -0.4910   -2.1315 C.2     1  UNL1        0.2325
     26 O           2.4371   -1.7545   -2.6182 O.2     1  UNL1       -0.4930
     27 C           2.4707    0.8977   -1.7042 C.3     1  UNL1        0.1344
     28 C           3.0199    1.6313   -2.9018 C.3     1  UNL1       -0.0193
     29 C           3.3854    3.0647   -2.6251 C.3     1  UNL1       -0.0443
     30 C           4.4384    3.1947   -1.5580 C.3     1  UNL1       -0.0626
     31 C           2.2215    3.9460   -2.3196 C.3     1  UNL1       -0.0626
     32 N           3.5306    0.8955   -0.6894 N.2     1  UNL1       -0.2036
     33 C           3.3530    0.2580    0.4150 C.2     1  UNL1        0.3844
     34 O           2.1335   -0.4121    0.5936 O.2     1  UNL1       -0.4658
     35 O           4.3225    0.2210    1.4070 O.2     1  UNL1       -0.4452
     36 C           5.4478    1.0405    1.2820 C.3     1  UNL1        0.1193
     37 C           6.4248    0.8306    2.3961 C.ar    1  UNL1       -0.0102
     38 C           7.3682   -0.1491    2.1273 C.ar    1  UNL1       -0.0554
     39 C           8.3122   -0.4074    3.1088 C.ar    1  UNL1       -0.0614
     40 C           8.3641    0.2487    4.3228 C.ar    1  UNL1       -0.0617
     41 C           7.3899    1.2257    4.5402 C.ar    1  UNL1       -0.0614
     42 C           6.4245    1.5206    3.5904 C.ar    1  UNL1       -0.0554
     43 H          -2.5101   -0.4636   -1.4827 H       1  UNL1        0.0645
     44 H          -2.7545    1.6063   -0.4433 H       1  UNL1        0.0293
     45 H          -1.1124    1.0153   -0.3130 H       1  UNL1        0.0293
     46 H          -3.2122    1.2833    1.9280 H       1  UNL1        0.0296
     47 H          -0.2826    0.3707    2.2360 H       1  UNL1        0.0232
     48 H          -1.8239   -0.2396    3.0920 H       1  UNL1        0.0232
     49 H          -1.1718    1.3489    3.3798 H       1  UNL1        0.0232
     50 H          -2.1625    3.2774    0.6687 H       1  UNL1        0.0232
     51 H          -2.1382    3.1711    2.5210 H       1  UNL1        0.0232
     52 H          -0.6641    2.7707    1.6389 H       1  UNL1        0.0232
     53 H          -3.4023   -1.8783    2.4957 H       1  UNL1        0.2969
     54 H          -6.4373   -0.0993   -0.6996 H       1  UNL1        0.0749
     55 H          -5.8689   -1.5322   -1.6291 H       1  UNL1        0.0749
     56 H          -8.7167    0.0286    0.1205 H       1  UNL1        0.0621
     57 H         -11.0542   -0.8533   -0.1889 H       1  UNL1        0.0618
     58 H         -11.3905   -3.0533   -1.3724 H       1  UNL1        0.0618
     59 H          -9.4726   -4.3106   -2.2131 H       1  UNL1        0.0618
     60 H          -7.2596   -3.4255   -1.8969 H       1  UNL1        0.0621
     61 H          -0.0678   -1.9552    1.3633 H       1  UNL1        0.2935
     62 H           0.0083   -4.0595   -0.1431 H       1  UNL1        0.1791
     63 H           1.6738   -4.9035   -3.1999 H       1  UNL1        0.2951
     64 H           3.3636   -2.0429   -2.9695 H       1  UNL1        0.2935
     65 H           1.5453    1.3382   -1.3420 H       1  UNL1        0.0645
     66 H           3.9682    1.1066   -3.1835 H       1  UNL1        0.0293
     67 H           2.3579    1.5462   -3.7771 H       1  UNL1        0.0293
     68 H           3.8725    3.4505   -3.5680 H       1  UNL1        0.0296
     69 H           3.9937    3.2264   -0.5235 H       1  UNL1        0.0232
     70 H           5.1610    2.3792   -1.5643 H       1  UNL1        0.0232
     71 H           5.0101    4.1465   -1.6607 H       1  UNL1        0.0232
     72 H           1.2940    3.7009   -2.8736 H       1  UNL1        0.0232
     73 H           2.4897    4.9922   -2.6492 H       1  UNL1        0.0232
     74 H           2.0335    4.0614   -1.2235 H       1  UNL1        0.0232
     75 H           1.2650    0.0175    0.2968 H       1  UNL1        0.2969
     76 H           5.1094    2.1047    1.4036 H       1  UNL1        0.0749
     77 H           5.9754    0.9829    0.3245 H       1  UNL1        0.0749
     78 H           7.4188   -0.7282    1.1995 H       1  UNL1        0.0621
     79 H           9.0877   -1.1680    2.9651 H       1  UNL1        0.0618
     80 H           9.1245    0.0077    5.0552 H       1  UNL1        0.0618
     81 H           7.3839    1.7815    5.4926 H       1  UNL1        0.0618
     82 H           5.6605    2.2734    3.7345 H       1  UNL1        0.0621
@<TRIPOS>BOND
     1     1     2    1
     2     2     3    1
     3     3     4    1
     4     3     5    1
     5     1     6    1
     6     6     7    2
     7     7     8    1
     8     7     9    1
     9     9    10    1
    10    10    11    1
    11    11    12   ar
    12    12    13   ar
    13    13    14   ar
    14    14    15   ar
    15    15    16   ar
    16     1    17    1
    17    17    18    1
    18    17    19    2
    19    19    20    1
    20    20    21    1
    21    21    22    1
    22    21    23    2
    23    23    24    1
    24    24    25    2
    25    25    26    1
    26    25    27    1
    27    27    28    1
    28    28    29    1
    29    29    30    1
    30    29    31    1
    31    27    32    1
    32    32    33    2
    33    33    34    1
    34    33    35    1
    35    35    36    1
    36    36    37    1
    37    37    38   ar
    38    38    39   ar
    39    39    40   ar
    40    40    41   ar
    41    41    42   ar
    42    16    11   ar
    43    42    37   ar
    44     1    43    1
    45     2    44    1
    46     2    45    1
    47     3    46    1
    48     4    47    1
    49     4    48    1
    50     4    49    1
    51     5    50    1
    52     5    51    1
    53     5    52    1
    54     8    53    1
    55    10    54    1
    56    10    55    1
    57    12    56    1
    58    13    57    1
    59    14    58    1
    60    15    59    1
    61    16    60    1
    62    18    61    1
    63    20    62    1
    64    22    63    1
    65    26    64    1
    66    27    65    1
    67    28    66    1
    68    28    67    1
    69    29    68    1
    70    30    69    1
    71    30    70    1
    72    30    71    1
    73    31    72    1
    74    31    73    1
    75    31    74    1
    76    34    75    1
    77    36    76    1
    78    36    77    1
    79    38    78    1
    80    39    79    1
    81    40    80    1
    82    41    81    1
    83    42    82    1
