@<TRIPOS>MOLECULE
*****
 47 48 0 0 0
SMALL
GASTEIGER

@<TRIPOS>ATOM
      1 C           0.8148    0.7259    0.1284 C.3     1  UNL1        0.0946
      2 C           2.2148    0.6931    0.7443 C.3     1  UNL1       -0.0053
      3 C           3.2248    1.1546   -0.2459 C.2     1  UNL1       -0.0828
      4 C           4.2577    0.4583   -0.7052 C.2     1  UNL1       -0.0795
      5 C           4.4954   -0.9293   -0.2294 C.3     1  UNL1       -0.0440
      6 C           5.1431    1.1134   -1.6921 C.3     1  UNL1       -0.0440
      7 O           0.6098   -0.0675   -1.0054 O.3     1  UNL1       -0.3616
      8 C           0.0201   -0.5473    0.1650 C.3     1  UNL1        0.1275
      9 C           0.7721   -1.7513    0.7478 C.3     1  UNL1       -0.0304
     10 C          -1.4414   -0.4829    0.3575 C.3     1  UNL1        0.1578
     11 O          -1.6945   -1.1021    1.6280 O.3     1  UNL1       -0.3797
     12 C          -1.9806    0.8810    0.4990 C.3     1  UNL1        0.1500
     13 O          -2.2859    1.2236    1.8263 O.3     1  UNL1       -0.3692
     14 C          -1.7722    2.4871    2.0662 C.3     1  UNL1        0.0375
     15 C          -3.2983    0.9038   -0.2939 C.2     1  UNL1        0.1649
     16 O          -4.4021    1.1106    0.2006 O.2     1  UNL1       -0.2945
     17 C          -3.1936    0.6532   -1.7681 C.3     1  UNL1        0.0112
     18 C          -2.5452   -0.6903   -1.9178 C.3     1  UNL1       -0.0146
     19 C          -2.2241   -1.3456   -0.6051 C.3     1  UNL1        0.0979
     20 C          -3.4950   -1.7889    0.0830 C.3     1  UNL1       -0.0331
     21 O          -1.4862   -2.4832   -0.8983 O.3     1  UNL1       -0.3858
     22 H           0.4335    1.7245   -0.0138 H       1  UNL1        0.0629
     23 H           2.2236    1.4364    1.5906 H       1  UNL1        0.0333
     24 H           2.4676   -0.2638    1.2045 H       1  UNL1        0.0333
     25 H           3.0095    2.1634   -0.5596 H       1  UNL1        0.0572
     26 H           5.5686   -1.2003   -0.4513 H       1  UNL1        0.0274
     27 H           3.8723   -1.6310   -0.8382 H       1  UNL1        0.0274
     28 H           4.3282   -1.0233    0.8617 H       1  UNL1        0.0274
     29 H           5.5514    0.3732   -2.4376 H       1  UNL1        0.0274
     30 H           6.0349    1.5464   -1.1590 H       1  UNL1        0.0274
     31 H           4.6404    1.9548   -2.2051 H       1  UNL1        0.0274
     32 H           1.7208   -1.8581    0.1983 H       1  UNL1        0.0259
     33 H           1.0458   -1.5697    1.8252 H       1  UNL1        0.0259
     34 H           0.2326   -2.6972    0.6237 H       1  UNL1        0.0259
     35 H          -1.2456   -0.6082    2.3435 H       1  UNL1        0.2105
     36 H          -1.4189    1.7104    0.0663 H       1  UNL1        0.0707
     37 H          -2.2223    3.2342    1.3488 H       1  UNL1        0.0524
     38 H          -0.6888    2.5042    1.8956 H       1  UNL1        0.0524
     39 H          -2.0355    2.7862    3.1108 H       1  UNL1        0.0524
     40 H          -2.4751    1.4114   -2.1947 H       1  UNL1        0.0343
     41 H          -4.1714    0.7645   -2.2332 H       1  UNL1        0.0343
     42 H          -1.6733   -0.6660   -2.6063 H       1  UNL1        0.0298
     43 H          -3.2959   -1.3500   -2.4050 H       1  UNL1        0.0298
     44 H          -3.5852   -1.3507    1.1053 H       1  UNL1        0.0258
     45 H          -3.5081   -2.8964    0.2510 H       1  UNL1        0.0258
     46 H          -4.4177   -1.5479   -0.4895 H       1  UNL1        0.0258
     47 H          -2.1250   -3.1632   -1.2335 H       1  UNL1        0.2103
@<TRIPOS>BOND
     1     1     2    1
     2     2     3    1
     3     3     4    2
     4     4     5    1
     5     4     6    1
     6     1     7    1
     7     7     8    1
     8     8     9    1
     9     8    10    1
    10    10    11    1
    11    10    12    1
    12    12    13    1
    13    13    14    1
    14    12    15    1
    15    15    16    2
    16    15    17    1
    17    17    18    1
    18    18    19    1
    19    19    20    1
    20    19    21    1
    21     8     1    1
    22    19    10    1
    23     1    22    1
    24     2    23    1
    25     2    24    1
    26     3    25    1
    27     5    26    1
    28     5    27    1
    29     5    28    1
    30     6    29    1
    31     6    30    1
    32     6    31    1
    33     9    32    1
    34     9    33    1
    35     9    34    1
    36    11    35    1
    37    12    36    1
    38    14    37    1
    39    14    38    1
    40    14    39    1
    41    17    40    1
    42    17    41    1
    43    18    42    1
    44    18    43    1
    45    20    44    1
    46    20    45    1
    47    20    46    1
    48    21    47    1
