
     RDKit          3D

 47 48  0  0  0  0  0  0  0  0999 V2000
    0.8148    0.7259    0.1284 C   0  0  1  0  0  0  0  0  0  0  0  0
    2.2148    0.6931    0.7443 C   0  0  0  0  0  0  0  0  0  0  0  0
    3.2248    1.1546   -0.2459 C   0  0  0  0  0  0  0  0  0  0  0  0
    4.2577    0.4583   -0.7052 C   0  0  0  0  0  0  0  0  0  0  0  0
    4.4954   -0.9293   -0.2294 C   0  0  0  0  0  0  0  0  0  0  0  0
    5.1431    1.1134   -1.6921 C   0  0  0  0  0  0  0  0  0  0  0  0
    0.6098   -0.0675   -1.0054 O   0  0  0  0  0  0  0  0  0  0  0  0
    0.0201   -0.5473    0.1650 C   0  0  1  0  0  0  0  0  0  0  0  0
    0.7721   -1.7513    0.7478 C   0  0  0  0  0  0  0  0  0  0  0  0
   -1.4414   -0.4829    0.3575 C   0  0  1  0  0  0  0  0  0  0  0  0
   -1.6945   -1.1021    1.6280 O   0  0  0  0  0  0  0  0  0  0  0  0
   -1.9806    0.8810    0.4990 C   0  0  2  0  0  0  0  0  0  0  0  0
   -2.2859    1.2236    1.8263 O   0  0  0  0  0  0  0  0  0  0  0  0
   -1.7722    2.4871    2.0662 C   0  0  0  0  0  0  0  0  0  0  0  0
   -3.2983    0.9038   -0.2939 C   0  0  0  0  0  0  0  0  0  0  0  0
   -4.4021    1.1106    0.2006 O   0  0  0  0  0  0  0  0  0  0  0  0
   -3.1936    0.6532   -1.7681 C   0  0  0  0  0  0  0  0  0  0  0  0
   -2.5452   -0.6903   -1.9178 C   0  0  0  0  0  0  0  0  0  0  0  0
   -2.2241   -1.3456   -0.6051 C   0  0  2  0  0  0  0  0  0  0  0  0
   -3.4950   -1.7889    0.0830 C   0  0  0  0  0  0  0  0  0  0  0  0
   -1.4862   -2.4832   -0.8983 O   0  0  0  0  0  0  0  0  0  0  0  0
    0.4335    1.7245   -0.0138 H   0  0  0  0  0  0  0  0  0  0  0  0
    2.2236    1.4364    1.5906 H   0  0  0  0  0  0  0  0  0  0  0  0
    2.4676   -0.2638    1.2045 H   0  0  0  0  0  0  0  0  0  0  0  0
    3.0095    2.1634   -0.5596 H   0  0  0  0  0  0  0  0  0  0  0  0
    5.5686   -1.2003   -0.4513 H   0  0  0  0  0  0  0  0  0  0  0  0
    3.8723   -1.6310   -0.8382 H   0  0  0  0  0  0  0  0  0  0  0  0
    4.3282   -1.0233    0.8617 H   0  0  0  0  0  0  0  0  0  0  0  0
    5.5514    0.3732   -2.4376 H   0  0  0  0  0  0  0  0  0  0  0  0
    6.0349    1.5464   -1.1590 H   0  0  0  0  0  0  0  0  0  0  0  0
    4.6404    1.9548   -2.2051 H   0  0  0  0  0  0  0  0  0  0  0  0
    1.7208   -1.8581    0.1983 H   0  0  0  0  0  0  0  0  0  0  0  0
    1.0458   -1.5697    1.8252 H   0  0  0  0  0  0  0  0  0  0  0  0
    0.2326   -2.6972    0.6237 H   0  0  0  0  0  0  0  0  0  0  0  0
   -1.2456   -0.6082    2.3435 H   0  0  0  0  0  0  0  0  0  0  0  0
   -1.4189    1.7104    0.0663 H   0  0  0  0  0  0  0  0  0  0  0  0
   -2.2223    3.2342    1.3488 H   0  0  0  0  0  0  0  0  0  0  0  0
   -0.6888    2.5042    1.8956 H   0  0  0  0  0  0  0  0  0  0  0  0
   -2.0355    2.7862    3.1108 H   0  0  0  0  0  0  0  0  0  0  0  0
   -2.4751    1.4114   -2.1947 H   0  0  0  0  0  0  0  0  0  0  0  0
   -4.1714    0.7645   -2.2332 H   0  0  0  0  0  0  0  0  0  0  0  0
   -1.6733   -0.6660   -2.6063 H   0  0  0  0  0  0  0  0  0  0  0  0
   -3.2959   -1.3500   -2.4050 H   0  0  0  0  0  0  0  0  0  0  0  0
   -3.5852   -1.3507    1.1053 H   0  0  0  0  0  0  0  0  0  0  0  0
   -3.5081   -2.8964    0.2510 H   0  0  0  0  0  0  0  0  0  0  0  0
   -4.4177   -1.5479   -0.4895 H   0  0  0  0  0  0  0  0  0  0  0  0
   -2.1250   -3.1632   -1.2335 H   0  0  0  0  0  0  0  0  0  0  0  0
  1  2  1  0
  2  3  1  0
  3  4  2  3
  4  5  1  0
  4  6  1  0
  1  7  1  0
  7  8  1  0
  8  9  1  1
  8 10  1  0
 10 11  1  1
 10 12  1  0
 12 13  1  0
 13 14  1  0
 12 15  1  0
 15 16  2  0
 15 17  1  0
 17 18  1  0
 18 19  1  0
 19 20  1  0
 19 21  1  6
  8  1  1  0
 19 10  1  0
  1 22  1  6
  2 23  1  0
  2 24  1  0
  3 25  1  0
  5 26  1  0
  5 27  1  0
  5 28  1  0
  6 29  1  0
  6 30  1  0
  6 31  1  0
  9 32  1  0
  9 33  1  0
  9 34  1  0
 11 35  1  0
 12 36  1  6
 14 37  1  0
 14 38  1  0
 14 39  1  0
 17 40  1  0
 17 41  1  0
 18 42  1  0
 18 43  1  0
 20 44  1  0
 20 45  1  0
 20 46  1  0
 21 47  1  0
M  END
$$$$
