@<TRIPOS>MOLECULE
*****
 18 17 0 0 0
SMALL
GASTEIGER

@<TRIPOS>ATOM
      1 C          -1.6523    0.7779    0.8514 C.3     1  UNL1       -0.0626
      2 C          -0.6375   -0.2541    0.3531 C.3     1  UNL1       -0.0447
      3 C          -1.0979   -0.7812   -0.9573 C.3     1  UNL1       -0.0626
      4 C           0.7048    0.4363    0.2982 C.3     1  UNL1       -0.0274
      5 C           1.8040   -0.5058   -0.1898 C.3     1  UNL1        0.0444
      6 O           3.0365    0.1461   -0.2354 O.3     1  UNL1       -0.3950
      7 H          -1.1418    1.6177    1.3628 H       1  UNL1        0.0232
      8 H          -2.2051    1.2058   -0.0131 H       1  UNL1        0.0232
      9 H          -2.4085    0.3147    1.5137 H       1  UNL1        0.0232
     10 H          -0.5409   -1.0355    1.1507 H       1  UNL1        0.0296
     11 H          -0.4005   -0.6904   -1.8002 H       1  UNL1        0.0232
     12 H          -1.4434   -1.8355   -0.7872 H       1  UNL1        0.0232
     13 H          -2.0309   -0.2557   -1.3033 H       1  UNL1        0.0232
     14 H           0.7038    1.3762   -0.2697 H       1  UNL1        0.0290
     15 H           1.0064    0.6989    1.3333 H       1  UNL1        0.0290
     16 H           1.5392   -0.8795   -1.1984 H       1  UNL1        0.0557
     17 H           1.8800   -1.4015    0.4563 H       1  UNL1        0.0557
     18 H           2.8840    1.0657   -0.5650 H       1  UNL1        0.2094
@<TRIPOS>BOND
     1     1     2    1
     2     2     3    1
     3     2     4    1
     4     4     5    1
     5     5     6    1
     6     1     7    1
     7     1     8    1
     8     1     9    1
     9     2    10    1
    10     3    11    1
    11     3    12    1
    12     3    13    1
    13     4    14    1
    14     4    15    1
    15     5    16    1
    16     5    17    1
    17     6    18    1
