
     RDKit          3D

 18 17  0  0  0  0  0  0  0  0999 V2000
   -1.6523    0.7779    0.8514 C   0  0  0  0  0  0  0  0  0  0  0  0
   -0.6375   -0.2541    0.3531 C   0  0  0  0  0  0  0  0  0  0  0  0
   -1.0979   -0.7812   -0.9573 C   0  0  0  0  0  0  0  0  0  0  0  0
    0.7048    0.4363    0.2982 C   0  0  0  0  0  0  0  0  0  0  0  0
    1.8040   -0.5058   -0.1898 C   0  0  0  0  0  0  0  0  0  0  0  0
    3.0365    0.1461   -0.2354 O   0  0  0  0  0  0  0  0  0  0  0  0
   -1.1418    1.6177    1.3628 H   0  0  0  0  0  0  0  0  0  0  0  0
   -2.2051    1.2058   -0.0131 H   0  0  0  0  0  0  0  0  0  0  0  0
   -2.4085    0.3147    1.5137 H   0  0  0  0  0  0  0  0  0  0  0  0
   -0.5409   -1.0355    1.1507 H   0  0  0  0  0  0  0  0  0  0  0  0
   -0.4005   -0.6904   -1.8002 H   0  0  0  0  0  0  0  0  0  0  0  0
   -1.4434   -1.8355   -0.7872 H   0  0  0  0  0  0  0  0  0  0  0  0
   -2.0309   -0.2557   -1.3033 H   0  0  0  0  0  0  0  0  0  0  0  0
    0.7038    1.3762   -0.2697 H   0  0  0  0  0  0  0  0  0  0  0  0
    1.0064    0.6989    1.3333 H   0  0  0  0  0  0  0  0  0  0  0  0
    1.5392   -0.8795   -1.1984 H   0  0  0  0  0  0  0  0  0  0  0  0
    1.8800   -1.4015    0.4563 H   0  0  0  0  0  0  0  0  0  0  0  0
    2.8840    1.0657   -0.5650 H   0  0  0  0  0  0  0  0  0  0  0  0
  1  2  1  0
  2  3  1  0
  2  4  1  0
  4  5  1  0
  5  6  1  0
  1  7  1  0
  1  8  1  0
  1  9  1  0
  2 10  1  0
  3 11  1  0
  3 12  1  0
  3 13  1  0
  4 14  1  0
  4 15  1  0
  5 16  1  0
  5 17  1  0
  6 18  1  0
M  END
$$$$
