@<TRIPOS>MOLECULE
*****
 28 29 0 0 0
SMALL
GASTEIGER

@<TRIPOS>ATOM
      1 C           1.2347    0.3912   -0.1526 C.3     1  UNL1        0.1219
      2 N           2.5708    0.2457    0.3871 N.am    1  UNL1       -0.2868
      3 C           2.8337   -1.1309    0.5536 C.2     1  UNL1        0.3006
      4 O           3.9803   -1.6009    0.7571 O.2     1  UNL1       -0.2651
      5 C           1.5124   -1.7645    0.4301 C.2     1  UNL1        0.3034
      6 O           1.3639   -3.0240    0.5285 O.2     1  UNL1       -0.2649
      7 N           0.5079   -0.8058    0.2002 N.am    1  UNL1       -0.2649
      8 C          -0.9154   -0.8709    0.2652 C.3     1  UNL1        0.0797
      9 C          -1.5158   -1.7689   -0.8187 C.3     1  UNL1        0.0653
     10 O          -1.0457   -3.0703   -0.7061 O.3     1  UNL1       -0.3931
     11 C          -1.6128    0.4364    0.3263 C.3     1  UNL1        0.1042
     12 O          -2.1210    0.7280    1.6075 O.3     1  UNL1       -0.3872
     13 C          -0.8322    1.6244   -0.1298 C.3     1  UNL1        0.1119
     14 O          -0.7995    1.7603   -1.4988 O.3     1  UNL1       -0.3865
     15 C           0.5464    1.5691    0.4723 C.3     1  UNL1        0.1183
     16 O           1.2639    2.7344    0.3570 O.3     1  UNL1       -0.3856
     17 H           1.2668    0.4651   -1.2609 H       1  UNL1        0.0737
     18 H           3.2060    1.0522    0.6045 H       1  UNL1        0.1510
     19 H          -1.1655   -1.4046    1.2291 H       1  UNL1        0.0550
     20 H          -1.2793   -1.3193   -1.8021 H       1  UNL1        0.0576
     21 H          -2.6105   -1.7979   -0.6447 H       1  UNL1        0.0576
     22 H          -0.5676   -3.4064   -1.4812 H       1  UNL1        0.2095
     23 H          -2.5172    0.3864   -0.3328 H       1  UNL1        0.0639
     24 H          -3.0015    1.1379    1.5735 H       1  UNL1        0.2100
     25 H          -1.3356    2.5343    0.2984 H       1  UNL1        0.0647
     26 H          -1.0219    2.7011   -1.7698 H       1  UNL1        0.2100
     27 H           0.4255    1.3286    1.5576 H       1  UNL1        0.0655
     28 H           1.6293    2.8695   -0.5507 H       1  UNL1        0.2100
@<TRIPOS>BOND
     1     1     2    1
     2     2     3   am
     3     3     4    2
     4     3     5    1
     5     5     6    2
     6     5     7   am
     7     7     8    1
     8     8     9    1
     9     9    10    1
    10     8    11    1
    11    11    12    1
    12    11    13    1
    13    13    14    1
    14    13    15    1
    15    15    16    1
    16     7     1    1
    17    15     1    1
    18     1    17    1
    19     2    18    1
    20     8    19    1
    21     9    20    1
    22     9    21    1
    23    10    22    1
    24    11    23    1
    25    12    24    1
    26    13    25    1
    27    14    26    1
    28    15    27    1
    29    16    28    1
