@<TRIPOS>MOLECULE
*****
 53 54 0 0 0
SMALL
GASTEIGER

@<TRIPOS>ATOM
      1 C           4.3483    1.8581   -1.4494 C.3     1  UNL1        0.0000
      2 C           3.2809    1.5185   -0.3974 C.3     1  UNL1        0.0000
      3 C           3.7567    2.1638    0.8825 C.3     1  UNL1        0.0000
      4 C           3.2488    0.0221   -0.3091 C.3     1  UNL1        0.0000
      5 C           2.2507   -0.5135    0.6810 C.3     1  UNL1        0.0000
      6 N           0.9014   -0.1228    0.3773 N.am    1  UNL1        0.0000
      7 C          -0.0787   -1.1019    0.0689 C.2     1  UNL1        0.0000
      8 O           0.2882   -2.3030    0.0754 O.2     1  UNL1        0.0000
      9 C          -1.4754   -0.7879   -0.2518 C.3     1  UNL1        0.0000
     10 C          -1.9921   -1.3768   -1.5298 C.3     1  UNL1        0.0000
     11 C          -1.9318   -2.8261   -1.5489 C.ar    1  UNL1        0.0000
     12 C          -2.9590   -3.5696   -1.0177 C.ar    1  UNL1        0.0000
     13 C          -2.9719   -4.9472   -1.0188 C.ar    1  UNL1        0.0000
     14 C          -1.8844   -5.5766   -1.5894 C.ar    1  UNL1        0.0000
     15 C          -0.8450   -4.8631   -2.1273 C.ar    1  UNL1        0.0000
     16 C          -0.8678   -3.4902   -2.1078 C.ar    1  UNL1        0.0000
     17 N          -1.7591    0.6372   -0.1589 N.am    1  UNL1        0.0000
     18 C          -2.6556    1.1992    0.7996 C.2     1  UNL1        0.0000
     19 O          -3.2065    0.3889    1.5836 O.2     1  UNL1        0.0000
     20 C          -2.9083    2.6504    0.8516 C.ar    1  UNL1        0.0000
     21 C          -3.7938    3.0780    1.8200 C.ar    1  UNL1        0.0000
     22 N          -4.0919    4.3793    1.9507 N.ar    1  UNL1        0.0000
     23 C          -3.5119    5.2705    1.1187 C.ar    1  UNL1        0.0000
     24 C          -2.6235    4.8229    0.1503 C.ar    1  UNL1        0.0000
     25 N          -2.3210    3.5025    0.0178 N.ar    1  UNL1        0.0000
     26 B           2.6003   -0.1365    2.1657 B       1  UNL1        0.0000
     27 O           3.8241   -0.6677    2.8017 O.3     1  UNL1        0.0000
     28 O           1.5407    0.4170    3.0176 O.3     1  UNL1        0.0000
     29 H           5.1822    1.1452   -1.2509 H       1  UNL1        0.0000
     30 H           3.9386    1.7275   -2.4553 H       1  UNL1        0.0000
     31 H           4.7108    2.8787   -1.2352 H       1  UNL1        0.0000
     32 H           2.3149    1.9604   -0.6886 H       1  UNL1        0.0000
     33 H           2.9024    2.3268    1.5849 H       1  UNL1        0.0000
     34 H           4.5200    1.5983    1.4133 H       1  UNL1        0.0000
     35 H           4.2306    3.1492    0.6130 H       1  UNL1        0.0000
     36 H           4.2627   -0.2975    0.0635 H       1  UNL1        0.0000
     37 H           3.1024   -0.4763   -1.2660 H       1  UNL1        0.0000
     38 H           2.3116   -1.6253    0.6181 H       1  UNL1        0.0000
     39 H           0.5864    0.8707    0.3691 H       1  UNL1        0.0000
     40 H          -2.0981   -1.2576    0.5585 H       1  UNL1        0.0000
     41 H          -1.4749   -0.9977   -2.4312 H       1  UNL1        0.0000
     42 H          -3.0464   -0.9797   -1.6327 H       1  UNL1        0.0000
     43 H          -3.8370   -3.0906   -0.5572 H       1  UNL1        0.0000
     44 H          -3.7894   -5.5200   -0.5959 H       1  UNL1        0.0000
     45 H          -1.8510   -6.6740   -1.6129 H       1  UNL1        0.0000
     46 H           0.0244   -5.3659   -2.5834 H       1  UNL1        0.0000
     47 H          -0.0376   -2.9084   -2.5461 H       1  UNL1        0.0000
     48 H          -1.3009    1.3149   -0.8116 H       1  UNL1        0.0000
     49 H          -4.2729    2.3859    2.4996 H       1  UNL1        0.0000
     50 H          -3.7499    6.3084    1.2234 H       1  UNL1        0.0000
     51 H          -2.1885    5.5618   -0.4855 H       1  UNL1        0.0000
     52 H           4.2794   -1.3084    2.2096 H       1  UNL1        0.0000
     53 H           1.1180   -0.3519    3.4740 H       1  UNL1        0.0000
@<TRIPOS>BOND
     1     1     2    1
     2     2     3    1
     3     2     4    1
     4     4     5    1
     5     5     6    1
     6     6     7   am
     7     7     8    2
     8     7     9    1
     9     9    10    1
    10    10    11    1
    11    11    12   ar
    12    12    13   ar
    13    13    14   ar
    14    14    15   ar
    15    15    16   ar
    16     9    17    1
    17    17    18   am
    18    18    19    2
    19    18    20    1
    20    20    21   ar
    21    21    22   ar
    22    22    23   ar
    23    23    24   ar
    24    24    25   ar
    25     5    26    1
    26    26    27    1
    27    26    28    1
    28    16    11   ar
    29    25    20   ar
    30     1    29    1
    31     1    30    1
    32     1    31    1
    33     2    32    1
    34     3    33    1
    35     3    34    1
    36     3    35    1
    37     4    36    1
    38     4    37    1
    39     5    38    1
    40     6    39    1
    41     9    40    1
    42    10    41    1
    43    10    42    1
    44    12    43    1
    45    13    44    1
    46    14    45    1
    47    15    46    1
    48    16    47    1
    49    17    48    1
    50    21    49    1
    51    23    50    1
    52    24    51    1
    53    27    52    1
    54    28    53    1
