
     RDKit          3D

 53 54  0  0  0  0  0  0  0  0999 V2000
    4.3483    1.8581   -1.4494 C   0  0  0  0  0  0  0  0  0  0  0  0
    3.2809    1.5185   -0.3974 C   0  0  0  0  0  0  0  0  0  0  0  0
    3.7567    2.1638    0.8825 C   0  0  0  0  0  0  0  0  0  0  0  0
    3.2488    0.0221   -0.3091 C   0  0  0  0  0  0  0  0  0  0  0  0
    2.2507   -0.5135    0.6810 C   0  0  2  0  0  0  0  0  0  0  0  0
    0.9014   -0.1228    0.3773 N   0  0  0  0  0  0  0  0  0  0  0  0
   -0.0787   -1.1019    0.0689 C   0  0  0  0  0  0  0  0  0  0  0  0
    0.2882   -2.3030    0.0754 O   0  0  0  0  0  0  0  0  0  0  0  0
   -1.4754   -0.7879   -0.2518 C   0  0  2  0  0  0  0  0  0  0  0  0
   -1.9921   -1.3768   -1.5298 C   0  0  0  0  0  0  0  0  0  0  0  0
   -1.9318   -2.8261   -1.5489 C   0  0  0  0  0  0  0  0  0  0  0  0
   -2.9590   -3.5696   -1.0177 C   0  0  0  0  0  0  0  0  0  0  0  0
   -2.9719   -4.9472   -1.0188 C   0  0  0  0  0  0  0  0  0  0  0  0
   -1.8844   -5.5766   -1.5894 C   0  0  0  0  0  0  0  0  0  0  0  0
   -0.8450   -4.8631   -2.1273 C   0  0  0  0  0  0  0  0  0  0  0  0
   -0.8678   -3.4902   -2.1078 C   0  0  0  0  0  0  0  0  0  0  0  0
   -1.7591    0.6372   -0.1589 N   0  0  0  0  0  0  0  0  0  0  0  0
   -2.6556    1.1992    0.7996 C   0  0  0  0  0  0  0  0  0  0  0  0
   -3.2065    0.3889    1.5836 O   0  0  0  0  0  0  0  0  0  0  0  0
   -2.9083    2.6504    0.8516 C   0  0  0  0  0  0  0  0  0  0  0  0
   -3.7938    3.0780    1.8200 C   0  0  0  0  0  0  0  0  0  0  0  0
   -4.0919    4.3793    1.9507 N   0  0  0  0  0  0  0  0  0  0  0  0
   -3.5119    5.2705    1.1187 C   0  0  0  0  0  0  0  0  0  0  0  0
   -2.6235    4.8229    0.1503 C   0  0  0  0  0  0  0  0  0  0  0  0
   -2.3210    3.5025    0.0178 N   0  0  0  0  0  0  0  0  0  0  0  0
    2.6003   -0.1365    2.1657 B   0  0  0  0  0  0  0  0  0  0  0  0
    3.8241   -0.6677    2.8017 O   0  0  0  0  0  0  0  0  0  0  0  0
    1.5407    0.4170    3.0176 O   0  0  0  0  0  0  0  0  0  0  0  0
    5.1822    1.1452   -1.2509 H   0  0  0  0  0  0  0  0  0  0  0  0
    3.9386    1.7275   -2.4553 H   0  0  0  0  0  0  0  0  0  0  0  0
    4.7108    2.8787   -1.2352 H   0  0  0  0  0  0  0  0  0  0  0  0
    2.3149    1.9604   -0.6886 H   0  0  0  0  0  0  0  0  0  0  0  0
    2.9024    2.3268    1.5849 H   0  0  0  0  0  0  0  0  0  0  0  0
    4.5200    1.5983    1.4133 H   0  0  0  0  0  0  0  0  0  0  0  0
    4.2306    3.1492    0.6130 H   0  0  0  0  0  0  0  0  0  0  0  0
    4.2627   -0.2975    0.0635 H   0  0  0  0  0  0  0  0  0  0  0  0
    3.1024   -0.4763   -1.2660 H   0  0  0  0  0  0  0  0  0  0  0  0
    2.3116   -1.6253    0.6181 H   0  0  0  0  0  0  0  0  0  0  0  0
    0.5864    0.8707    0.3691 H   0  0  0  0  0  0  0  0  0  0  0  0
   -2.0981   -1.2576    0.5585 H   0  0  0  0  0  0  0  0  0  0  0  0
   -1.4749   -0.9977   -2.4312 H   0  0  0  0  0  0  0  0  0  0  0  0
   -3.0464   -0.9797   -1.6327 H   0  0  0  0  0  0  0  0  0  0  0  0
   -3.8370   -3.0906   -0.5572 H   0  0  0  0  0  0  0  0  0  0  0  0
   -3.7894   -5.5200   -0.5959 H   0  0  0  0  0  0  0  0  0  0  0  0
   -1.8510   -6.6740   -1.6129 H   0  0  0  0  0  0  0  0  0  0  0  0
    0.0244   -5.3659   -2.5834 H   0  0  0  0  0  0  0  0  0  0  0  0
   -0.0376   -2.9084   -2.5461 H   0  0  0  0  0  0  0  0  0  0  0  0
   -1.3009    1.3149   -0.8116 H   0  0  0  0  0  0  0  0  0  0  0  0
   -4.2729    2.3859    2.4996 H   0  0  0  0  0  0  0  0  0  0  0  0
   -3.7499    6.3084    1.2234 H   0  0  0  0  0  0  0  0  0  0  0  0
   -2.1885    5.5618   -0.4855 H   0  0  0  0  0  0  0  0  0  0  0  0
    4.2794   -1.3084    2.2096 H   0  0  0  0  0  0  0  0  0  0  0  0
    1.1180   -0.3519    3.4740 H   0  0  0  0  0  0  0  0  0  0  0  0
  1  2  1  0
  2  3  1  0
  2  4  1  0
  4  5  1  0
  5  6  1  0
  6  7  1  0
  7  8  2  0
  7  9  1  0
  9 10  1  0
 10 11  1  0
 11 12  2  0
 12 13  1  0
 13 14  2  0
 14 15  1  0
 15 16  2  0
  9 17  1  0
 17 18  1  0
 18 19  2  0
 18 20  1  0
 20 21  2  0
 21 22  1  0
 22 23  2  0
 23 24  1  0
 24 25  2  0
  5 26  1  0
 26 27  1  0
 26 28  1  0
 16 11  1  0
 25 20  1  0
  1 29  1  0
  1 30  1  0
  1 31  1  0
  2 32  1  0
  3 33  1  0
  3 34  1  0
  3 35  1  0
  4 36  1  0
  4 37  1  0
  5 38  1  1
  6 39  1  0
  9 40  1  1
 10 41  1  0
 10 42  1  0
 12 43  1  0
 13 44  1  0
 14 45  1  0
 15 46  1  0
 16 47  1  0
 17 48  1  0
 21 49  1  0
 23 50  1  0
 24 51  1  0
 27 52  1  0
 28 53  1  0
M  END
$$$$
