@<TRIPOS>MOLECULE
*****
 57 60 0 0 0
SMALL
GASTEIGER

@<TRIPOS>ATOM
      1 C           0.4792    0.3019   -1.0276 C.3     1  UNL1       -0.0290
      2 C           1.3563    0.0631   -2.1975 C.3     1  UNL1       -0.0460
      3 C           2.7146    0.5174   -1.6939 C.3     1  UNL1       -0.0149
      4 C           2.6106    0.5594   -0.1640 C.3     1  UNL1        0.1087
      5 O           3.7571   -0.0541    0.3845 O.3     1  UNL1       -0.4608
      6 C           4.5363    0.7208    1.2410 C.2     1  UNL1        0.3071
      7 O           4.2379    1.9108    1.5150 O.2     1  UNL1       -0.2509
      8 C           5.7534    0.0584    1.8196 C.3     1  UNL1        0.0421
      9 C           6.9589    0.5495    1.0200 C.3     1  UNL1       -0.0552
     10 C           1.3536   -0.1857    0.1163 C.3     1  UNL1        0.0081
     11 C           1.5833   -1.6709    0.0588 C.3     1  UNL1       -0.0559
     12 C           0.6837    0.1761    1.4016 C.3     1  UNL1       -0.0437
     13 C          -0.7152   -0.3827    1.4448 C.3     1  UNL1       -0.0485
     14 C          -1.4969    0.1042    0.2643 C.3     1  UNL1       -0.0288
     15 C          -0.8079   -0.4290   -0.9902 C.3     1  UNL1       -0.0337
     16 C          -1.6716   -0.3075   -2.1981 C.3     1  UNL1       -0.0459
     17 C          -2.7428    0.7344   -2.1090 C.3     1  UNL1       -0.0305
     18 C          -3.5583    0.4920   -0.8907 C.2     1  UNL1       -0.0601
     19 C          -4.8226    0.9114   -0.8942 C.2     1  UNL1       -0.0194
     20 C          -5.6276    0.6666    0.3212 C.2     1  UNL1        0.1561
     21 O          -6.8784    0.8033    0.2871 O.2     1  UNL1       -0.2927
     22 C          -5.0290    0.2574    1.6146 C.3     1  UNL1        0.0107
     23 C          -3.5184    0.3279    1.5842 C.3     1  UNL1       -0.0367
     24 C          -2.9497   -0.2076    0.2972 C.3     1  UNL1       -0.0072
     25 C          -3.2254   -1.6906    0.2403 C.3     1  UNL1       -0.0556
     26 H           0.3511    1.3924   -0.9035 H       1  UNL1        0.0310
     27 H           1.3741   -0.9593   -2.5959 H       1  UNL1        0.0269
     28 H           1.1250    0.7351   -3.0710 H       1  UNL1        0.0269
     29 H           2.9427    1.5594   -2.0232 H       1  UNL1        0.0301
     30 H           3.5324   -0.1192   -2.0475 H       1  UNL1        0.0301
     31 H           2.5097    1.6044    0.1890 H       1  UNL1        0.0739
     32 H           5.8154    0.3836    2.8877 H       1  UNL1        0.0375
     33 H           5.6549   -1.0317    1.7891 H       1  UNL1        0.0375
     34 H           6.6739    0.9313    0.0251 H       1  UNL1        0.0235
     35 H           7.5181    1.3431    1.5581 H       1  UNL1        0.0235
     36 H           7.6560   -0.3330    0.9458 H       1  UNL1        0.0235
     37 H           1.0368   -2.2412    0.8467 H       1  UNL1        0.0236
     38 H           2.6789   -1.8303    0.2833 H       1  UNL1        0.0236
     39 H           1.3845   -2.1219   -0.9143 H       1  UNL1        0.0236
     40 H           1.2543   -0.3016    2.2241 H       1  UNL1        0.0272
     41 H           0.6698    1.2540    1.6139 H       1  UNL1        0.0272
     42 H          -0.7386   -1.4775    1.5510 H       1  UNL1        0.0268
     43 H          -1.1810    0.0365    2.3675 H       1  UNL1        0.0268
     44 H          -1.3914    1.2085    0.2119 H       1  UNL1        0.0312
     45 H          -0.5807   -1.5099   -0.7574 H       1  UNL1        0.0307
     46 H          -1.0826   -0.1977   -3.1383 H       1  UNL1        0.0271
     47 H          -2.2036   -1.2959   -2.3191 H       1  UNL1        0.0271
     48 H          -3.3655    0.6383   -3.0292 H       1  UNL1        0.0310
     49 H          -2.2616    1.7525   -2.0696 H       1  UNL1        0.0310
     50 H          -5.2418    1.4149   -1.7609 H       1  UNL1        0.0652
     51 H          -5.3656    0.9412    2.4222 H       1  UNL1        0.0345
     52 H          -5.3675   -0.7634    1.9076 H       1  UNL1        0.0345
     53 H          -3.1965    1.3598    1.7249 H       1  UNL1        0.0278
     54 H          -3.1775   -0.3759    2.3881 H       1  UNL1        0.0278
     55 H          -2.3597   -2.2876   -0.1302 H       1  UNL1        0.0238
     56 H          -4.1267   -1.8666   -0.4126 H       1  UNL1        0.0238
     57 H          -3.5186   -2.0688    1.2382 H       1  UNL1        0.0238
@<TRIPOS>BOND
     1     1     2    1
     2     2     3    1
     3     3     4    1
     4     4     5    1
     5     5     6    1
     6     6     7    2
     7     6     8    1
     8     8     9    1
     9     4    10    1
    10    10    11    1
    11    10    12    1
    12    12    13    1
    13    13    14    1
    14    14    15    1
    15    15    16    1
    16    16    17    1
    17    17    18    1
    18    18    19    2
    19    19    20    1
    20    20    21    2
    21    20    22    1
    22    22    23    1
    23    23    24    1
    24    24    25    1
    25    10     1    1
    26    24    14    1
    27    15     1    1
    28    24    18    1
    29     1    26    1
    30     2    27    1
    31     2    28    1
    32     3    29    1
    33     3    30    1
    34     4    31    1
    35     8    32    1
    36     8    33    1
    37     9    34    1
    38     9    35    1
    39     9    36    1
    40    11    37    1
    41    11    38    1
    42    11    39    1
    43    12    40    1
    44    12    41    1
    45    13    42    1
    46    13    43    1
    47    14    44    1
    48    15    45    1
    49    16    46    1
    50    16    47    1
    51    17    48    1
    52    17    49    1
    53    19    50    1
    54    22    51    1
    55    22    52    1
    56    23    53    1
    57    23    54    1
    58    25    55    1
    59    25    56    1
    60    25    57    1
