@<TRIPOS>MOLECULE
*****
 35 37 0 0 0
SMALL
GASTEIGER

@<TRIPOS>ATOM
      1 C          -2.6886   -3.0157    0.2288 C.3     1  UNL1        0.0371
      2 O          -2.5145   -1.7072   -0.1955 O.3     1  UNL1       -0.3726
      3 C          -1.3485   -1.1649    0.3002 C.3     1  UNL1        0.1316
      4 C          -1.6575    0.1457    0.9902 C.3     1  UNL1        0.1138
      5 O          -2.6572    0.0855    1.9018 O.3     1  UNL1       -0.3864
      6 C          -2.0410    0.9304   -0.2727 C.3     1  UNL1        0.1126
      7 C          -2.2590    2.3585    0.0796 C.3     1  UNL1        0.0730
      8 O          -2.4297    3.1219   -1.0637 O.3     1  UNL1       -0.3924
      9 O          -0.9409    0.6896   -1.0569 O.3     1  UNL1       -0.3457
     10 C          -0.5515   -0.6229   -0.8692 C.3     1  UNL1        0.1669
     11 N           0.8487   -0.7317   -0.4965 N.ar    1  UNL1       -0.2855
     12 C           1.4403   -1.8390   -0.0343 C.ar    1  UNL1        0.1004
     13 N           2.7407   -1.6061    0.2159 N.ar    1  UNL1       -0.2306
     14 C           2.9463   -0.3017   -0.1086 C.ar    1  UNL1        0.1473
     15 C           4.0851    0.4790   -0.0551 C.ar    1  UNL1        0.1472
     16 N           5.2926   -0.1061    0.4074 N.pl3   1  UNL1       -0.3413
     17 N           3.9829    1.7565   -0.4470 N.ar    1  UNL1       -0.2188
     18 C           2.8178    2.2788   -0.8811 C.ar    1  UNL1        0.1205
     19 N           1.7056    1.5291   -0.9369 N.ar    1  UNL1       -0.2159
     20 C           1.7538    0.2353   -0.5536 C.ar    1  UNL1        0.1674
     21 H          -2.7292   -3.0134    1.3284 H       1  UNL1        0.0524
     22 H          -3.6605   -3.3668   -0.2000 H       1  UNL1        0.0524
     23 H          -1.9142   -3.7007   -0.1446 H       1  UNL1        0.0524
     24 H          -0.7698   -1.8529    0.9347 H       1  UNL1        0.0668
     25 H          -0.7091    0.5750    1.3397 H       1  UNL1        0.0647
     26 H          -2.5679    0.8517    2.5256 H       1  UNL1        0.2100
     27 H          -2.9332    0.4357   -0.6896 H       1  UNL1        0.0647
     28 H          -3.1868    2.4357    0.6731 H       1  UNL1        0.0584
     29 H          -1.4149    2.7377    0.6706 H       1  UNL1        0.0584
     30 H          -3.2162    3.7093   -0.9942 H       1  UNL1        0.2095
     31 H          -0.7087   -1.1910   -1.7969 H       1  UNL1        0.0866
     32 H           0.9872   -2.8174    0.1363 H       1  UNL1        0.1030
     33 H           5.9123   -0.5627   -0.2883 H       1  UNL1        0.1438
     34 H           5.5570   -0.0822    1.4168 H       1  UNL1        0.1438
     35 H           2.8286    3.3272   -1.1795 H       1  UNL1        0.1048
@<TRIPOS>BOND
     1     1     2    1
     2     2     3    1
     3     3     4    1
     4     4     5    1
     5     4     6    1
     6     6     7    1
     7     7     8    1
     8     6     9    1
     9     9    10    1
    10    10    11    1
    11    11    12   ar
    12    12    13   ar
    13    13    14   ar
    14    14    15   ar
    15    15    16    1
    16    15    17   ar
    17    17    18   ar
    18    18    19   ar
    19    19    20   ar
    20    10     3    1
    21    20    11   ar
    22    20    14   ar
    23     1    21    1
    24     1    22    1
    25     1    23    1
    26     3    24    1
    27     4    25    1
    28     5    26    1
    29     6    27    1
    30     7    28    1
    31     7    29    1
    32     8    30    1
    33    10    31    1
    34    12    32    1
    35    16    33    1
    36    16    34    1
    37    18    35    1
