@<TRIPOS>MOLECULE
*****
 49 53 0 0 0
SMALL
GASTEIGER

@<TRIPOS>ATOM
      1 C          -6.9831    1.7591   -0.7852 C.3     1  UNL1       -0.0222
      2 C          -6.3202    0.4736   -0.4566 C.ar    1  UNL1        0.0435
      3 C          -7.1132   -0.6128   -0.1760 C.ar    1  UNL1       -0.0224
      4 C          -6.5110   -1.8099    0.1300 C.ar    1  UNL1        0.0317
      5 N          -5.1675   -1.9316    0.1583 N.ar    1  UNL1       -0.2358
      6 C          -4.4099   -0.8703   -0.1158 C.ar    1  UNL1        0.1604
      7 C          -3.0466   -0.7103   -0.1598 C.ar    1  UNL1        0.0349
      8 C          -2.8408    0.6116   -0.4996 C.ar    1  UNL1        0.0839
      9 N          -4.0375    1.2276   -0.6552 N.ar    1  UNL1       -0.1681
     10 N          -4.9777    0.3281   -0.4222 N.ar    1  UNL1       -0.2183
     11 C          -1.3854    0.8078   -0.5532 C.3     1  UNL1        0.0440
     12 N          -0.8967   -0.2001    0.3725 N.3     1  UNL1       -0.2871
     13 C           0.5107   -0.3683    0.0933 C.3     1  UNL1        0.0360
     14 C           1.1389   -1.3822    0.9801 C.3     1  UNL1        0.0641
     15 O           2.5018   -1.2795    1.1022 O.3     1  UNL1       -0.3688
     16 C           3.0847   -0.4031    0.2001 C.3     1  UNL1        0.1015
     17 C           4.5370   -0.3974    0.3881 C.ar    1  UNL1        0.0207
     18 C           5.1905   -0.7300    1.5606 C.ar    1  UNL1       -0.0152
     19 C           6.5569   -0.7072    1.6781 C.ar    1  UNL1        0.1589
     20 F           7.1519   -1.0422    2.8504 F       1  UNL1       -0.2025
     21 C           7.3328   -0.3437    0.6052 C.ar    1  UNL1        0.1611
     22 F           8.6986   -0.3190    0.7163 F       1  UNL1       -0.2024
     23 C           6.7174   -0.0070   -0.5754 C.ar    1  UNL1        0.0120
     24 C           5.3537   -0.0388   -0.6632 C.ar    1  UNL1        0.1320
     25 F           4.7658    0.3005   -1.8485 F       1  UNL1       -0.2050
     26 C           2.5737    0.9890    0.5604 C.3     1  UNL1        0.0371
     27 N           3.2336    2.0014   -0.2600 N.3     1  UNL1       -0.3248
     28 C           1.1196    1.0137    0.2219 C.3     1  UNL1       -0.0172
     29 C          -1.6898   -1.3476    0.0009 C.3     1  UNL1        0.0301
     30 H          -6.3598    2.6355   -0.5120 H       1  UNL1        0.0293
     31 H          -7.9507    1.7960   -0.2586 H       1  UNL1        0.0293
     32 H          -7.2088    1.7606   -1.8871 H       1  UNL1        0.0293
     33 H          -8.2065   -0.5298   -0.1949 H       1  UNL1        0.0650
     34 H          -7.1798   -2.6510    0.3474 H       1  UNL1        0.0831
     35 H          -1.0325    0.6010   -1.5962 H       1  UNL1        0.0492
     36 H          -1.0660    1.8228   -0.2492 H       1  UNL1        0.0492
     37 H           0.6682   -0.7107   -0.9699 H       1  UNL1        0.0486
     38 H           0.9308   -2.3969    0.5306 H       1  UNL1        0.0576
     39 H           0.6999   -1.4335    2.0006 H       1  UNL1        0.0576
     40 H           2.7761   -0.5971   -0.8440 H       1  UNL1        0.0663
     41 H           4.5344   -1.0142    2.3927 H       1  UNL1        0.0651
     42 H           7.3355    0.2784   -1.4164 H       1  UNL1        0.0676
     43 H           2.7470    1.1917    1.6287 H       1  UNL1        0.0488
     44 H           3.0634    2.9196    0.2282 H       1  UNL1        0.1186
     45 H           2.7224    2.0127   -1.1717 H       1  UNL1        0.1186
     46 H           0.6055    1.5999    1.0387 H       1  UNL1        0.0297
     47 H           0.9172    1.5430   -0.7349 H       1  UNL1        0.0297
     48 H          -1.6817   -2.0473    0.8503 H       1  UNL1        0.0478
     49 H          -1.4029   -1.7921   -0.9598 H       1  UNL1        0.0478
@<TRIPOS>BOND
     1     1     2    1
     2     2     3   ar
     3     3     4   ar
     4     4     5   ar
     5     5     6   ar
     6     6     7   ar
     7     7     8   ar
     8     8     9   ar
     9     9    10   ar
    10     8    11    1
    11    11    12    1
    12    12    13    1
    13    13    14    1
    14    14    15    1
    15    15    16    1
    16    16    17    1
    17    17    18   ar
    18    18    19   ar
    19    19    20    1
    20    19    21   ar
    21    21    22    1
    22    21    23   ar
    23    23    24   ar
    24    24    25    1
    25    16    26    1
    26    26    27    1
    27    26    28    1
    28    12    29    1
    29    10     2   ar
    30    28    13    1
    31    10     6   ar
    32    24    17   ar
    33    29     7    1
    34     1    30    1
    35     1    31    1
    36     1    32    1
    37     3    33    1
    38     4    34    1
    39    11    35    1
    40    11    36    1
    41    13    37    1
    42    14    38    1
    43    14    39    1
    44    16    40    1
    45    18    41    1
    46    23    42    1
    47    26    43    1
    48    27    44    1
    49    27    45    1
    50    28    46    1
    51    28    47    1
    52    29    48    1
    53    29    49    1
