
     RDKit          3D

 33 35  0  0  0  0  0  0  0  0999 V2000
    3.2408   -2.7145   -0.4422 Cl  0  0  0  0  0  0  0  0  0  0  0  0
    3.7281   -1.0285   -0.2336 C   0  0  0  0  0  0  0  0  0  0  0  0
    5.0059   -0.6815   -0.4530 N   0  0  0  0  0  0  0  0  0  0  0  0
    5.3882    0.5920   -0.2983 C   0  0  0  0  0  0  0  0  0  0  0  0
    4.5242    1.6018    0.0845 C   0  0  0  0  0  0  0  0  0  0  0  0
    3.2040    1.2456    0.3117 C   0  0  0  0  0  0  0  0  0  0  0  0
    2.8303   -0.0613    0.1487 C   0  0  0  0  0  0  0  0  0  0  0  0
    1.4230   -0.4590    0.3859 C   0  0  0  0  0  0  0  0  0  0  0  0
    0.7958   -0.6421   -0.8795 N   0  0  0  0  0  0  0  0  0  0  0  0
   -0.5577   -1.0183   -0.8987 C   0  0  1  0  0  0  0  0  0  0  0  0
   -1.1363   -2.2239   -0.3316 C   0  0  0  0  0  0  0  0  0  0  0  0
   -1.2209   -1.0169    0.5045 C   0  0  0  0  0  0  0  0  0  0  0  0
   -2.3974   -0.1512    0.5665 C   0  0  0  0  0  0  0  0  0  0  0  0
   -3.3410   -0.0701   -0.4520 C   0  0  0  0  0  0  0  0  0  0  0  0
   -4.4030    0.7840   -0.2715 C   0  0  0  0  0  0  0  0  0  0  0  0
   -4.5609    1.5474    0.8620 C   0  0  0  0  0  0  0  0  0  0  0  0
   -3.6331    1.4758    1.8778 C   0  0  0  0  0  0  0  0  0  0  0  0
   -2.5738    0.6221    1.6950 C   0  0  0  0  0  0  0  0  0  0  0  0
    6.4175    0.8538   -0.4778 H   0  0  0  0  0  0  0  0  0  0  0  0
    4.8778    2.6114    0.1963 H   0  0  0  0  0  0  0  0  0  0  0  0
    2.4992    2.0293    0.6168 H   0  0  0  0  0  0  0  0  0  0  0  0
    1.4249   -1.3662    1.0253 H   0  0  0  0  0  0  0  0  0  0  0  0
    0.9272    0.3473    0.9625 H   0  0  0  0  0  0  0  0  0  0  0  0
    1.1721   -0.1125   -1.6667 H   0  0  0  0  0  0  0  0  0  0  0  0
   -1.1394   -0.5431   -1.7373 H   0  0  0  0  0  0  0  0  0  0  0  0
   -0.5219   -3.0804    0.0384 H   0  0  0  0  0  0  0  0  0  0  0  0
   -2.1143   -2.5966   -0.7445 H   0  0  0  0  0  0  0  0  0  0  0  0
   -0.5502   -0.9920    1.3693 H   0  0  0  0  0  0  0  0  0  0  0  0
   -3.1968   -0.6749   -1.3266 H   0  0  0  0  0  0  0  0  0  0  0  0
   -5.1427    0.8586   -1.0507 H   0  0  0  0  0  0  0  0  0  0  0  0
   -5.3970    2.2180    1.0006 H   0  0  0  0  0  0  0  0  0  0  0  0
   -3.7258    2.0631    2.7847 H   0  0  0  0  0  0  0  0  0  0  0  0
   -1.8467    0.5828    2.5204 H   0  0  0  0  0  0  0  0  0  0  0  0
  1  2  1  0
  2  3  2  0
  3  4  1  0
  4  5  2  0
  5  6  1  0
  6  7  2  0
  7  8  1  0
  8  9  1  0
  9 10  1  0
 10 11  1  0
 11 12  1  0
 12 13  1  0
 13 14  2  0
 14 15  1  0
 15 16  2  0
 16 17  1  0
 17 18  2  0
  7  2  1  0
 12 10  1  0
 18 13  1  0
  4 19  1  0
  5 20  1  0
  6 21  1  0
  8 22  1  0
  8 23  1  0
  9 24  1  0
 10 25  1  6
 11 26  1  0
 11 27  1  0
 12 28  1  0
 14 29  1  0
 15 30  1  0
 16 31  1  0
 17 32  1  0
 18 33  1  0
M  END
$$$$
