@<TRIPOS>MOLECULE
*****
 33 35 0 0 0
SMALL
GASTEIGER

@<TRIPOS>ATOM
      1 CL          3.2408   -2.7145   -0.4422 Cl      1  UNL1       -0.0617
      2 C           3.7281   -1.0285   -0.2336 C.ar    1  UNL1        0.1336
      3 N           5.0059   -0.6815   -0.4530 N.ar    1  UNL1       -0.2432
      4 C           5.3882    0.5920   -0.2983 C.ar    1  UNL1        0.0293
      5 C           4.5242    1.6018    0.0845 C.ar    1  UNL1       -0.0432
      6 C           3.2040    1.2456    0.3117 C.ar    1  UNL1       -0.0530
      7 C           2.8303   -0.0613    0.1487 C.ar    1  UNL1        0.0032
      8 C           1.4230   -0.4590    0.3859 C.3     1  UNL1        0.0244
      9 N           0.7958   -0.6421   -0.8795 N.3     1  UNL1       -0.3086
     10 C          -0.5577   -1.0183   -0.8987 C.3     1  UNL1        0.0154
     11 C          -1.1363   -2.2239   -0.3316 C.3     1  UNL1       -0.0287
     12 C          -1.2209   -1.0169    0.5045 C.3     1  UNL1        0.0010
     13 C          -2.3974   -0.1512    0.5665 C.ar    1  UNL1       -0.0428
     14 C          -3.3410   -0.0701   -0.4520 C.ar    1  UNL1       -0.0583
     15 C          -4.4030    0.7840   -0.2715 C.ar    1  UNL1       -0.0615
     16 C          -4.5609    1.5474    0.8620 C.ar    1  UNL1       -0.0617
     17 C          -3.6331    1.4758    1.8778 C.ar    1  UNL1       -0.0615
     18 C          -2.5738    0.6221    1.6950 C.ar    1  UNL1       -0.0583
     19 H           6.4175    0.8538   -0.4778 H       1  UNL1        0.0830
     20 H           4.8778    2.6114    0.1963 H       1  UNL1        0.0633
     21 H           2.4992    2.0293    0.6168 H       1  UNL1        0.0622
     22 H           1.4249   -1.3662    1.0253 H       1  UNL1        0.0474
     23 H           0.9272    0.3473    0.9625 H       1  UNL1        0.0474
     24 H           1.1721   -0.1125   -1.6667 H       1  UNL1        0.1225
     25 H          -1.1394   -0.5431   -1.7373 H       1  UNL1        0.0466
     26 H          -0.5219   -3.0804    0.0384 H       1  UNL1        0.0287
     27 H          -2.1143   -2.5966   -0.7445 H       1  UNL1        0.0287
     28 H          -0.5502   -0.9920    1.3693 H       1  UNL1        0.0364
     29 H          -3.1968   -0.6749   -1.3266 H       1  UNL1        0.0620
     30 H          -5.1427    0.8586   -1.0507 H       1  UNL1        0.0618
     31 H          -5.3970    2.2180    1.0006 H       1  UNL1        0.0618
     32 H          -3.7258    2.0631    2.7847 H       1  UNL1        0.0618
     33 H          -1.8467    0.5828    2.5204 H       1  UNL1        0.0620
@<TRIPOS>BOND
     1     1     2    1
     2     2     3   ar
     3     3     4   ar
     4     4     5   ar
     5     5     6   ar
     6     6     7   ar
     7     7     8    1
     8     8     9    1
     9     9    10    1
    10    10    11    1
    11    11    12    1
    12    12    13    1
    13    13    14   ar
    14    14    15   ar
    15    15    16   ar
    16    16    17   ar
    17    17    18   ar
    18     7     2   ar
    19    12    10    1
    20    18    13   ar
    21     4    19    1
    22     5    20    1
    23     6    21    1
    24     8    22    1
    25     8    23    1
    26     9    24    1
    27    10    25    1
    28    11    26    1
    29    11    27    1
    30    12    28    1
    31    14    29    1
    32    15    30    1
    33    16    31    1
    34    17    32    1
    35    18    33    1
