
     RDKit          3D

 49 51  0  0  0  0  0  0  0  0999 V2000
    1.7627   -1.1086   -2.6174 O   0  0  0  0  0  0  0  0  0  0  0  0
    2.3335    0.1354   -2.4067 C   0  0  0  0  0  0  0  0  0  0  0  0
    3.3875    0.3420   -3.0620 O   0  0  0  0  0  0  0  0  0  0  0  0
    1.7482    1.1490   -1.4799 C   0  0  0  0  0  0  0  0  0  0  0  0
    0.5814    0.7664   -0.7819 N   0  0  0  0  0  0  0  0  0  0  0  0
    0.5161   -0.2742   -0.0468 C   0  0  0  0  0  0  0  0  0  0  0  0
   -0.6626   -0.6792    0.6653 N   0  0  0  0  0  0  0  0  0  0  0  0
   -1.7551    0.2721    0.8193 C   0  0  0  0  0  0  0  0  0  0  0  0
   -2.1949    0.6275   -0.5403 C   0  0  0  0  0  0  0  0  0  0  0  0
   -2.4666    1.9158   -0.9935 C   0  0  0  0  0  0  0  0  0  0  0  0
   -2.8664    2.0894   -2.2830 C   0  0  0  0  0  0  0  0  0  0  0  0
   -3.0103    1.0260   -3.1540 C   0  0  0  0  0  0  0  0  0  0  0  0
   -2.7498   -0.2632   -2.7390 C   0  0  0  0  0  0  0  0  0  0  0  0
   -2.3444   -0.4355   -1.4303 C   0  0  0  0  0  0  0  0  0  0  0  0
   -2.8137   -0.2609    1.6878 C   0  0  0  0  0  0  0  0  0  0  0  0
   -4.1269   -0.1039    1.2748 C   0  0  0  0  0  0  0  0  0  0  0  0
   -5.1492   -0.5950    2.0701 C   0  0  0  0  0  0  0  0  0  0  0  0
   -4.8045   -1.2246    3.2497 C   0  0  0  0  0  0  0  0  0  0  0  0
   -3.4868   -1.3763    3.6533 C   0  0  0  0  0  0  0  0  0  0  0  0
   -2.4526   -0.8822    2.8538 C   0  0  0  0  0  0  0  0  0  0  0  0
    1.7031   -1.0391    0.0499 N   0  0  0  0  0  0  0  0  0  0  0  0
    2.9687   -0.4657    0.3401 C   0  0  0  0  0  0  0  0  0  0  0  0
    3.3632    0.7011    0.9544 C   0  0  0  0  0  0  0  0  0  0  0  0
    4.6597    1.0794    1.1748 C   0  0  0  0  0  0  0  0  0  0  0  0
    5.6859    0.2822    0.7793 C   0  0  0  0  0  0  0  0  0  0  0  0
    5.4174   -0.9141    0.1526 C   0  0  0  0  0  0  0  0  0  0  0  0
    4.0990   -1.2289   -0.0356 C   0  0  0  0  0  0  0  0  0  0  0  0
    7.0179    0.7166    1.0296 C   0  0  0  0  0  0  0  0  0  0  0  0
    8.0978    1.0846    1.2243 N   0  0  0  0  0  0  0  0  0  0  0  0
    1.6101   -1.4790   -3.5693 H   0  0  0  0  0  0  0  0  0  0  0  0
    1.2174    1.7784   -2.3106 H   0  0  0  0  0  0  0  0  0  0  0  0
    2.3907    1.9440   -1.1517 H   0  0  0  0  0  0  0  0  0  0  0  0
   -0.7101   -1.6513    1.0522 H   0  0  0  0  0  0  0  0  0  0  0  0
   -1.3622    1.2023    1.3091 H   0  0  0  0  0  0  0  0  0  0  0  0
   -2.3306    2.6827   -0.2563 H   0  0  0  0  0  0  0  0  0  0  0  0
   -3.0758    3.1079   -2.6230 H   0  0  0  0  0  0  0  0  0  0  0  0
   -3.3305    1.1554   -4.1900 H   0  0  0  0  0  0  0  0  0  0  0  0
   -2.8658   -1.0868   -3.4289 H   0  0  0  0  0  0  0  0  0  0  0  0
   -2.1472   -1.4527   -1.1312 H   0  0  0  0  0  0  0  0  0  0  0  0
   -4.3460    0.4002    0.3359 H   0  0  0  0  0  0  0  0  0  0  0  0
   -6.1636   -0.4579    1.7224 H   0  0  0  0  0  0  0  0  0  0  0  0
   -5.6006   -1.6011    3.8581 H   0  0  0  0  0  0  0  0  0  0  0  0
   -3.2840   -1.8808    4.5914 H   0  0  0  0  0  0  0  0  0  0  0  0
   -1.4554   -1.0273    3.2144 H   0  0  0  0  0  0  0  0  0  0  0  0
    1.6052   -2.1006   -0.0720 H   0  0  0  0  0  0  0  0  0  0  0  0
    2.4912    1.3042    1.2634 H   0  0  0  0  0  0  0  0  0  0  0  0
    4.7601    2.0482    1.6802 H   0  0  0  0  0  0  0  0  0  0  0  0
    6.2055   -1.5493   -0.1630 H   0  0  0  0  0  0  0  0  0  0  0  0
    3.9331   -2.1931   -0.5397 H   0  0  0  0  0  0  0  0  0  0  0  0
  1  2  1  0
  2  3  2  0
  2  4  1  0
  4  5  1  0
  5  6  2  0
  6  7  1  0
  7  8  1  0
  8  9  1  0
  9 10  2  0
 10 11  1  0
 11 12  2  0
 12 13  1  0
 13 14  2  0
  8 15  1  0
 15 16  2  0
 16 17  1  0
 17 18  2  0
 18 19  1  0
 19 20  2  0
  6 21  1  0
 21 22  1  0
 22 23  2  0
 23 24  1  0
 24 25  2  0
 25 26  1  0
 26 27  2  0
 25 28  1  0
 28 29  3  0
 14  9  1  0
 20 15  1  0
 27 22  1  0
  1 30  1  0
  4 31  1  0
  4 32  1  0
  7 33  1  0
  8 34  1  0
 10 35  1  0
 11 36  1  0
 12 37  1  0
 13 38  1  0
 14 39  1  0
 16 40  1  0
 17 41  1  0
 18 42  1  0
 19 43  1  0
 20 44  1  0
 21 45  1  0
 23 46  1  0
 24 47  1  0
 26 48  1  0
 27 49  1  0
M  END
$$$$
