
     RDKit          3D

 43 46  0  0  0  0  0  0  0  0999 V2000
    1.3444   -1.5118    1.2324 C   0  0  0  0  0  0  0  0  0  0  0  0
    0.7742   -0.5191    0.3256 N   0  0  0  0  0  0  0  0  0  0  0  0
   -0.5178   -0.3504    0.0172 C   0  0  0  0  0  0  0  0  0  0  0  0
   -0.5922    0.7017   -0.8754 C   0  0  0  0  0  0  0  0  0  0  0  0
    0.6996    1.1417   -1.0778 C   0  0  0  0  0  0  0  0  0  0  0  0
    1.0377    2.1031   -1.8409 O   0  0  0  0  0  0  0  0  0  0  0  0
    1.5037    0.3702   -0.3264 N   0  0  0  0  0  0  0  0  0  0  0  0
    2.9195    0.5067   -0.2581 C   0  0  0  0  0  0  0  0  0  0  0  0
    3.5019    1.5167    0.5154 C   0  0  0  0  0  0  0  0  0  0  0  0
    4.8799    1.5966    0.5405 C   0  0  0  0  0  0  0  0  0  0  0  0
    5.6287    2.8443    1.4952 Cl  0  0  0  0  0  0  0  0  0  0  0  0
    5.6711    0.7184   -0.1671 C   0  0  0  0  0  0  0  0  0  0  0  0
    5.1024   -0.2864   -0.9369 C   0  0  0  0  0  0  0  0  0  0  0  0
    3.7194   -0.3666   -0.9621 C   0  0  0  0  0  0  0  0  0  0  0  0
    2.9494   -1.6091   -1.9121 Cl  0  0  0  0  0  0  0  0  0  0  0  0
   -2.0446    0.8686   -1.2035 C   0  0  1  0  0  0  0  0  0  0  0  0
   -2.4480   -0.3320   -2.0083 C   0  0  0  0  0  0  0  0  0  0  0  0
   -2.3677   -1.4998   -1.0099 C   0  0  0  0  0  0  0  0  0  0  0  0
   -1.9167   -0.8456    0.2532 C   0  0  1  0  0  0  0  0  0  0  0  0
   -2.1073   -1.5635    1.4996 C   0  0  0  0  0  0  0  0  0  0  0  0
   -2.6506    0.5041    0.1622 C   0  0  0  0  0  0  0  0  0  0  0  0
   -4.1246    0.3397    0.1037 C   0  0  0  0  0  0  0  0  0  0  0  0
   -2.1562    1.4112    1.2403 C   0  0  0  0  0  0  0  0  0  0  0  0
    0.7334   -2.4575    1.2032 H   0  0  0  0  0  0  0  0  0  0  0  0
    1.2193   -1.1099    2.2591 H   0  0  0  0  0  0  0  0  0  0  0  0
    2.3997   -1.6951    1.0433 H   0  0  0  0  0  0  0  0  0  0  0  0
    2.8583    2.2038    1.0697 H   0  0  0  0  0  0  0  0  0  0  0  0
    6.7428    0.8403   -0.1009 H   0  0  0  0  0  0  0  0  0  0  0  0
    5.7036   -0.9829   -1.4974 H   0  0  0  0  0  0  0  0  0  0  0  0
   -2.3236    1.8268   -1.5705 H   0  0  0  0  0  0  0  0  0  0  0  0
   -1.7031   -0.4527   -2.8209 H   0  0  0  0  0  0  0  0  0  0  0  0
   -3.4513   -0.2659   -2.4315 H   0  0  0  0  0  0  0  0  0  0  0  0
   -3.3217   -2.0190   -0.9325 H   0  0  0  0  0  0  0  0  0  0  0  0
   -1.5340   -2.1646   -1.3609 H   0  0  0  0  0  0  0  0  0  0  0  0
   -2.1792   -2.6733    1.3366 H   0  0  0  0  0  0  0  0  0  0  0  0
   -2.9912   -1.2601    2.1148 H   0  0  0  0  0  0  0  0  0  0  0  0
   -1.2157   -1.4159    2.1767 H   0  0  0  0  0  0  0  0  0  0  0  0
   -4.4554   -0.7025    0.3065 H   0  0  0  0  0  0  0  0  0  0  0  0
   -4.5388    0.6273   -0.8908 H   0  0  0  0  0  0  0  0  0  0  0  0
   -4.6056    1.0427    0.8376 H   0  0  0  0  0  0  0  0  0  0  0  0
   -1.0774    1.5510    1.1368 H   0  0  0  0  0  0  0  0  0  0  0  0
   -2.4150    0.9649    2.2130 H   0  0  0  0  0  0  0  0  0  0  0  0
   -2.6517    2.4039    1.1014 H   0  0  0  0  0  0  0  0  0  0  0  0
  1  2  1  0
  2  3  1  0
  3  4  2  0
  4  5  1  0
  5  6  2  0
  5  7  1  0
  7  8  1  0
  8  9  2  0
  9 10  1  0
 10 11  1  0
 10 12  2  0
 12 13  1  0
 13 14  2  0
 14 15  1  0
  4 16  1  0
 16 17  1  0
 17 18  1  0
 18 19  1  0
 19 20  1  1
 19 21  1  0
 21 22  1  0
 21 23  1  0
  7  2  1  0
 14  8  1  0
 21 16  1  0
 19  3  1  0
  1 24  1  0
  1 25  1  0
  1 26  1  0
  9 27  1  0
 12 28  1  0
 13 29  1  0
 16 30  1  6
 17 31  1  0
 17 32  1  0
 18 33  1  0
 18 34  1  0
 20 35  1  0
 20 36  1  0
 20 37  1  0
 22 38  1  0
 22 39  1  0
 22 40  1  0
 23 41  1  0
 23 42  1  0
 23 43  1  0
M  END
$$$$
