@<TRIPOS>MOLECULE
*****
 43 46 0 0 0
SMALL
GASTEIGER

@<TRIPOS>ATOM
      1 C           1.3444   -1.5118    1.2324 C.3     1  UNL1        0.0291
      2 N           0.7742   -0.5191    0.3256 N.ar    1  UNL1       -0.2830
      3 C          -0.5178   -0.3504    0.0172 C.ar    1  UNL1        0.0511
      4 C          -0.5922    0.7017   -0.8754 C.ar    1  UNL1        0.0437
      5 C           0.6996    1.1417   -1.0778 C.ar    1  UNL1        0.2756
      6 O           1.0377    2.1031   -1.8409 O.2     1  UNL1       -0.2655
      7 N           1.5037    0.3702   -0.3264 N.ar    1  UNL1       -0.2155
      8 C           2.9195    0.5067   -0.2581 C.ar    1  UNL1        0.0870
      9 C           3.5019    1.5167    0.5154 C.ar    1  UNL1       -0.0164
     10 C           4.8799    1.5966    0.5405 C.ar    1  UNL1        0.0431
     11 CL          5.6287    2.8443    1.4952 Cl      1  UNL1       -0.0835
     12 C           5.6711    0.7184   -0.1671 C.ar    1  UNL1       -0.0419
     13 C           5.1024   -0.2864   -0.9369 C.ar    1  UNL1       -0.0399
     14 C           3.7194   -0.3666   -0.9621 C.ar    1  UNL1        0.0665
     15 CL          2.9494   -1.6091   -1.9121 Cl      1  UNL1       -0.0813
     16 C          -2.0446    0.8686   -1.2035 C.3     1  UNL1       -0.0029
     17 C          -2.4480   -0.3320   -2.0083 C.3     1  UNL1       -0.0446
     18 C          -2.3677   -1.4998   -1.0099 C.3     1  UNL1       -0.0411
     19 C          -1.9167   -0.8456    0.2532 C.3     1  UNL1        0.0158
     20 C          -2.1073   -1.5635    1.4996 C.3     1  UNL1       -0.0536
     21 C          -2.6506    0.5041    0.1622 C.3     1  UNL1       -0.0171
     22 C          -4.1246    0.3397    0.1037 C.3     1  UNL1       -0.0584
     23 C          -2.1562    1.4112    1.2403 C.3     1  UNL1       -0.0584
     24 H           0.7334   -2.4575    1.2032 H       1  UNL1        0.0472
     25 H           1.2193   -1.1099    2.2591 H       1  UNL1        0.0472
     26 H           2.3997   -1.6951    1.0433 H       1  UNL1        0.0472
     27 H           2.8583    2.2038    1.0697 H       1  UNL1        0.0654
     28 H           6.7428    0.8403   -0.1009 H       1  UNL1        0.0633
     29 H           5.7036   -0.9829   -1.4974 H       1  UNL1        0.0633
     30 H          -2.3236    1.8268   -1.5705 H       1  UNL1        0.0357
     31 H          -1.7031   -0.4527   -2.8209 H       1  UNL1        0.0272
     32 H          -3.4513   -0.2659   -2.4315 H       1  UNL1        0.0272
     33 H          -3.3217   -2.0190   -0.9325 H       1  UNL1        0.0274
     34 H          -1.5340   -2.1646   -1.3609 H       1  UNL1        0.0274
     35 H          -2.1792   -2.6733    1.3366 H       1  UNL1        0.0239
     36 H          -2.9912   -1.2601    2.1148 H       1  UNL1        0.0239
     37 H          -1.2157   -1.4159    2.1767 H       1  UNL1        0.0239
     38 H          -4.4554   -0.7025    0.3065 H       1  UNL1        0.0235
     39 H          -4.5388    0.6273   -0.8908 H       1  UNL1        0.0235
     40 H          -4.6056    1.0427    0.8376 H       1  UNL1        0.0235
     41 H          -1.0774    1.5510    1.1368 H       1  UNL1        0.0235
     42 H          -2.4150    0.9649    2.2130 H       1  UNL1        0.0235
     43 H          -2.6517    2.4039    1.1014 H       1  UNL1        0.0235
@<TRIPOS>BOND
     1     1     2    1
     2     2     3   ar
     3     3     4   ar
     4     4     5   ar
     5     5     6    2
     6     5     7   ar
     7     7     8    1
     8     8     9   ar
     9     9    10   ar
    10    10    11    1
    11    10    12   ar
    12    12    13   ar
    13    13    14   ar
    14    14    15    1
    15     4    16    1
    16    16    17    1
    17    17    18    1
    18    18    19    1
    19    19    20    1
    20    19    21    1
    21    21    22    1
    22    21    23    1
    23     7     2   ar
    24    14     8   ar
    25    21    16    1
    26    19     3    1
    27     1    24    1
    28     1    25    1
    29     1    26    1
    30     9    27    1
    31    12    28    1
    32    13    29    1
    33    16    30    1
    34    17    31    1
    35    17    32    1
    36    18    33    1
    37    18    34    1
    38    20    35    1
    39    20    36    1
    40    20    37    1
    41    22    38    1
    42    22    39    1
    43    22    40    1
    44    23    41    1
    45    23    42    1
    46    23    43    1
