@<TRIPOS>MOLECULE
*****
 76 78 0 0 0
SMALL
GASTEIGER

@<TRIPOS>ATOM
      1 C           9.5700    1.5493   -1.6157 C.3     1  UNL1        0.0364
      2 O           9.2818    1.7231   -0.2815 O.3     1  UNL1       -0.3829
      3 C           7.9943    1.3501    0.0022 C.3     1  UNL1        0.0504
      4 C           6.9526    2.1067   -0.7719 C.3     1  UNL1        0.0049
      5 C           5.5986    1.6164   -0.3129 C.3     1  UNL1        0.0918
      6 O           5.4839    0.2328   -0.5446 O.3     1  UNL1       -0.4882
      7 C           4.3123   -0.4596   -0.1986 C.ar    1  UNL1        0.1626
      8 C           3.2362    0.1933    0.3602 C.ar    1  UNL1       -0.0042
      9 C           2.0440   -0.4587    0.7244 C.ar    1  UNL1        0.0406
     10 C           1.0054    0.3398    1.3301 C.2     1  UNL1        0.2470
     11 O           1.3098    0.7110    2.5457 O.2     1  UNL1       -0.2700
     12 N          -0.2245    0.7772    0.8607 N.am    1  UNL1       -0.2946
     13 C          -1.0359    1.6066    1.7098 C.3     1  UNL1        0.0210
     14 C          -1.9894    0.9743    2.6248 C.3     1  UNL1        0.0070
     15 C          -1.3449   -0.0050    3.6070 C.3     1  UNL1        0.0020
     16 N          -2.5060   -0.4708    4.3392 N.3     1  UNL1       -0.3138
     17 C          -3.6017   -0.5004    3.4374 C.3     1  UNL1        0.0148
     18 C          -3.1518    0.2442    2.1539 C.3     1  UNL1        0.0441
     19 N          -4.2678    1.0648    1.7087 N.am    1  UNL1       -0.2767
     20 C          -5.4108    0.5964    1.0519 C.2     1  UNL1        0.4008
     21 O          -5.4673   -0.6452    0.8287 O.2     1  UNL1       -0.2265
     22 O          -6.4644    1.3651    0.6398 O.3     1  UNL1       -0.4456
     23 C          -7.6526    0.9904    0.0326 C.3     1  UNL1        0.1191
     24 C          -7.4551    0.2495   -1.2138 C.ar    1  UNL1       -0.0103
     25 C          -7.2459    0.8289   -2.4407 C.ar    1  UNL1       -0.0554
     26 C          -7.1330    0.0592   -3.5971 C.ar    1  UNL1       -0.0614
     27 C          -7.2325   -1.3065   -3.4944 C.ar    1  UNL1       -0.0617
     28 C          -7.4444   -1.9515   -2.2623 C.ar    1  UNL1       -0.0614
     29 C          -7.5494   -1.1324   -1.1518 C.ar    1  UNL1       -0.0554
     30 C          -0.7201    0.4428   -0.4468 C.3     1  UNL1        0.0207
     31 C           0.2803    0.8191   -1.5497 C.3     1  UNL1       -0.0467
     32 C          -0.9808   -1.0327   -0.6388 C.3     1  UNL1       -0.0467
     33 C           1.9822   -1.8043    0.5026 C.ar    1  UNL1       -0.0459
     34 C           3.0642   -2.4999   -0.0662 C.ar    1  UNL1       -0.0156
     35 C           4.2136   -1.8059   -0.4056 C.ar    1  UNL1        0.1615
     36 O           5.3209   -2.4675   -0.9762 O.3     1  UNL1       -0.4915
     37 C           5.2704   -3.8597   -1.2147 C.3     1  UNL1        0.0790
     38 H           9.4235    0.4831   -1.8900 H       1  UNL1        0.0523
     39 H           8.9593    2.1985   -2.2718 H       1  UNL1        0.0523
     40 H          10.6628    1.8099   -1.7509 H       1  UNL1        0.0523
     41 H           7.8190    0.2596   -0.1893 H       1  UNL1        0.0561
     42 H           7.7551    1.5200    1.0970 H       1  UNL1        0.0561
     43 H           7.0361    1.9205   -1.8795 H       1  UNL1        0.0320
     44 H           7.0331    3.1934   -0.6530 H       1  UNL1        0.0320
     45 H           4.8149    2.1918   -0.8758 H       1  UNL1        0.0697
     46 H           5.4383    1.8453    0.7586 H       1  UNL1        0.0697
     47 H           3.2943    1.2535    0.5335 H       1  UNL1        0.0663
     48 H          -1.6232    2.3582    1.0943 H       1  UNL1        0.0468
     49 H          -0.3888    2.2977    2.3474 H       1  UNL1        0.0468
     50 H          -2.3533    1.8018    3.3692 H       1  UNL1        0.0347
     51 H          -0.7157    0.5246    4.3389 H       1  UNL1        0.0428
     52 H          -0.8635   -0.8596    3.1107 H       1  UNL1        0.0428
     53 H          -2.3786   -1.3937    4.7901 H       1  UNL1        0.1220
     54 H          -4.4967    0.0743    3.8437 H       1  UNL1        0.0442
     55 H          -3.9991   -1.4625    3.1312 H       1  UNL1        0.0442
     56 H          -2.9441   -0.5453    1.4520 H       1  UNL1        0.0515
     57 H          -4.2005    2.1052    1.9024 H       1  UNL1        0.1523
     58 H          -8.2565    0.3839    0.7717 H       1  UNL1        0.0749
     59 H          -8.2193    1.9428   -0.1899 H       1  UNL1        0.0749
     60 H          -7.1603    1.9170   -2.5606 H       1  UNL1        0.0621
     61 H          -6.9698    0.5108   -4.5888 H       1  UNL1        0.0618
     62 H          -7.1516   -1.9233   -4.4080 H       1  UNL1        0.0618
     63 H          -7.5147   -3.0214   -2.2102 H       1  UNL1        0.0618
     64 H          -7.7249   -1.5941   -0.1969 H       1  UNL1        0.0621
     65 H          -1.7213    0.9326   -0.6327 H       1  UNL1        0.0495
     66 H          -0.1710    0.9034   -2.5328 H       1  UNL1        0.0247
     67 H           0.8533    1.6884   -1.2183 H       1  UNL1        0.0247
     68 H           1.0407   -0.0238   -1.6022 H       1  UNL1        0.0247
     69 H          -1.0796   -1.5875    0.3174 H       1  UNL1        0.0247
     70 H          -0.2348   -1.4921   -1.3171 H       1  UNL1        0.0247
     71 H          -1.9604   -1.1488   -1.1398 H       1  UNL1        0.0247
     72 H           1.0948   -2.3836    0.7771 H       1  UNL1        0.0626
     73 H           3.0159   -3.5582   -0.2392 H       1  UNL1        0.0655
     74 H           6.3302   -4.1440   -1.4794 H       1  UNL1        0.0660
     75 H           4.9227   -4.3801   -0.3289 H       1  UNL1        0.0660
     76 H           4.5917   -4.0395   -2.0586 H       1  UNL1        0.0660
@<TRIPOS>BOND
     1     1     2    1
     2     2     3    1
     3     3     4    1
     4     4     5    1
     5     5     6    1
     6     6     7    1
     7     7     8   ar
     8     8     9   ar
     9     9    10    1
    10    10    11    2
    11    10    12   am
    12    12    13    1
    13    13    14    1
    14    14    15    1
    15    15    16    1
    16    16    17    1
    17    17    18    1
    18    18    19    1
    19    19    20   am
    20    20    21    2
    21    20    22    1
    22    22    23    1
    23    23    24    1
    24    24    25   ar
    25    25    26   ar
    26    26    27   ar
    27    27    28   ar
    28    28    29   ar
    29    12    30    1
    30    30    31    1
    31    30    32    1
    32     9    33   ar
    33    33    34   ar
    34    34    35   ar
    35    35    36    1
    36    36    37    1
    37    35     7   ar
    38    18    14    1
    39    29    24   ar
    40     1    38    1
    41     1    39    1
    42     1    40    1
    43     3    41    1
    44     3    42    1
    45     4    43    1
    46     4    44    1
    47     5    45    1
    48     5    46    1
    49     8    47    1
    50    13    48    1
    51    13    49    1
    52    14    50    1
    53    15    51    1
    54    15    52    1
    55    16    53    1
    56    17    54    1
    57    17    55    1
    58    18    56    1
    59    19    57    1
    60    23    58    1
    61    23    59    1
    62    25    60    1
    63    26    61    1
    64    27    62    1
    65    28    63    1
    66    29    64    1
    67    30    65    1
    68    31    66    1
    69    31    67    1
    70    31    68    1
    71    32    69    1
    72    32    70    1
    73    32    71    1
    74    33    72    1
    75    34    73    1
    76    37    74    1
    77    37    75    1
    78    37    76    1
