@<TRIPOS>MOLECULE
*****
 37 38 0 0 0
SMALL
GASTEIGER

@<TRIPOS>ATOM
      1 C           0.3750   -1.0269    0.1217 C.3     1  UNL1        0.0709
      2 N           0.0000   -0.2356   -1.0567 N.3     1  UNL1       -0.3209
      3 C           1.2355   -0.0677    0.9563 C.3     1  UNL1       -0.0276
      4 C           2.4383    0.3803    0.1903 C.3     1  UNL1       -0.0204
      5 C           3.2966   -0.8006   -0.1908 C.3     1  UNL1        0.0647
      6 N           4.4630   -0.3598   -0.9339 N.pl3   1  UNL1       -0.2761
      7 C           5.5228    0.4073   -0.3503 C.cat   1  UNL1        0.3762
      8 N           6.6401    0.8368   -1.1499 N.pl3   1  UNL1       -0.2893
      9 N           5.4219    0.6848    0.9019 N.pl3   1  UNL1       -0.1298
     10 C          -0.8664   -1.2502    0.9067 C.2     1  UNL1        0.2045
     11 O          -0.6458   -1.9568    1.9235 O.2     1  UNL1       -0.2882
     12 C          -2.1636   -0.6786    0.4808 C.ar    1  UNL1        0.1462
     13 N          -2.8014   -0.0543   -0.2566 N.ar    1  UNL1       -0.2360
     14 C          -4.0823    0.2295   -0.2410 C.ar    1  UNL1        0.0790
     15 C          -4.8036    0.9799   -1.1419 C.ar    1  UNL1       -0.0352
     16 C          -6.1335    1.1716   -0.9647 C.ar    1  UNL1       -0.0597
     17 C          -6.8872    0.6637    0.0862 C.ar    1  UNL1       -0.0606
     18 C          -6.2065   -0.0918    1.0092 C.ar    1  UNL1       -0.0459
     19 C          -4.8082   -0.2898    0.8179 C.ar    1  UNL1        0.0396
     20 S          -3.5156   -1.1700    1.7182 S.2     1  UNL1       -0.0643
     21 H           0.8984   -1.9482   -0.1129 H       1  UNL1        0.0541
     22 H           0.7816   -0.0996   -1.7180 H       1  UNL1        0.1189
     23 H          -0.8631   -0.6183   -1.5070 H       1  UNL1        0.1189
     24 H           1.5630   -0.5274    1.8975 H       1  UNL1        0.0285
     25 H           0.6198    0.8176    1.2493 H       1  UNL1        0.0285
     26 H           2.1741    0.9906   -0.7087 H       1  UNL1        0.0296
     27 H           3.0594    1.0018    0.8797 H       1  UNL1        0.0296
     28 H           3.5573   -1.3713    0.7073 H       1  UNL1        0.0655
     29 H           2.7155   -1.4570   -0.8633 H       1  UNL1        0.0655
     30 H           4.5974   -0.5796   -1.9495 H       1  UNL1        0.2579
     31 H           6.6438    1.7520   -1.6562 H       1  UNL1        0.2546
     32 H           7.2509    0.0084   -1.0002 H       1  UNL1        0.2546
     33 H           6.1372    1.2399    1.4347 H       1  UNL1        0.3062
     34 H          -4.3943    1.4665   -2.0364 H       1  UNL1        0.0639
     35 H          -6.7406    1.7666   -1.6662 H       1  UNL1        0.0618
     36 H          -7.9332    0.7724    0.2897 H       1  UNL1        0.0618
     37 H          -6.5466   -0.5862    1.8925 H       1  UNL1        0.0629
@<TRIPOS>BOND
     1     1     2    1
     2     1     3    1
     3     3     4    1
     4     4     5    1
     5     5     6    1
     6     6     7    1
     7     7     8    1
     8     7     9    2
     9     1    10    1
    10    10    11    2
    11    10    12    1
    12    12    13   ar
    13    13    14   ar
    14    14    15   ar
    15    15    16   ar
    16    16    17   ar
    17    17    18   ar
    18    18    19   ar
    19    19    20   ar
    20    20    12   ar
    21    19    14   ar
    22     1    21    1
    23     2    22    1
    24     2    23    1
    25     3    24    1
    26     3    25    1
    27     4    26    1
    28     4    27    1
    29     5    28    1
    30     5    29    1
    31     6    30    1
    32     8    31    1
    33     8    32    1
    34     9    33    1
    35    15    34    1
    36    16    35    1
    37    17    36    1
    38    18    37    1
