@<TRIPOS>MOLECULE
*****
 75 80 0 0 0
SMALL
GASTEIGER

@<TRIPOS>ATOM
      1 C          -6.7988    5.0555   -0.1813 C.3     1  UNL1       -0.0151
      2 N          -5.9277    5.7429    0.7348 N.3     1  UNL1       -0.3089
      3 C          -4.5403    5.6212    0.3495 C.3     1  UNL1        0.0820
      4 C          -3.6187    6.3011    1.3298 C.3     1  UNL1       -0.0411
      5 C          -4.1983    4.1548    0.3520 C.2     1  UNL1        0.2350
      6 O          -5.1180    3.3605    0.6212 O.2     1  UNL1       -0.2737
      7 N          -2.8868    3.7180    0.0598 N.am    1  UNL1       -0.2691
      8 C          -2.5069    2.3547    0.0410 C.ar    1  UNL1        0.1263
      9 C          -3.3171    1.2828    0.1878 C.ar    1  UNL1       -0.0208
     10 C          -2.7571   -0.0020    0.1685 C.ar    1  UNL1       -0.0466
     11 C          -1.4202   -0.1899    0.0056 C.ar    1  UNL1        0.0349
     12 C          -0.8519   -1.5042   -0.0075 C.ar    1  UNL1        0.0838
     13 C          -0.8200   -2.4050    1.0504 C.ar    1  UNL1        0.1028
     14 C          -1.3736   -2.1856    2.3869 C.ar    1  UNL1        0.0639
     15 C          -1.0051   -1.1472    3.2105 C.ar    1  UNL1       -0.0460
     16 C          -1.5597   -0.9866    4.4770 C.ar    1  UNL1       -0.0427
     17 C          -2.4938   -1.8713    4.9316 C.ar    1  UNL1        0.0314
     18 N          -2.8553   -2.8944    4.1179 N.ar    1  UNL1       -0.2208
     19 C          -2.3153   -3.0569    2.8753 C.ar    1  UNL1        0.2239
     20 O          -2.7708   -4.1436    2.1459 O.3     1  UNL1       -0.4792
     21 C          -3.7411   -5.0435    2.6478 C.3     1  UNL1        0.0804
     22 N          -0.1902   -3.4903    0.5820 N.ar    1  UNL1       -0.2270
     23 C           0.1782   -3.3375   -0.6989 C.ar    1  UNL1        0.1390
     24 C           0.8359   -4.1060   -1.6493 C.ar    1  UNL1       -0.0158
     25 C           1.0864   -3.6761   -2.9331 C.ar    1  UNL1       -0.0456
     26 C           1.7975   -4.5147   -3.9403 C.3     1  UNL1       -0.0395
     27 C           0.6486   -2.4000   -3.2764 C.ar    1  UNL1       -0.0421
     28 C          -0.0021   -1.6596   -2.3106 C.ar    1  UNL1        0.0120
     29 N          -0.2313   -2.1171   -1.0523 N.ar    1  UNL1       -0.2986
     30 C          -0.6136    0.9148   -0.1422 C.ar    1  UNL1        0.1250
     31 C           0.8247    0.7145   -0.2967 C.1     1  UNL1       -0.0404
     32 C           2.0010    0.5312   -0.4312 C.1     1  UNL1       -0.0595
     33 C           3.4078    0.3297   -0.6073 C.ar    1  UNL1        0.0259
     34 C           4.2911    0.2961    0.4738 C.ar    1  UNL1       -0.0457
     35 C           5.6435    0.1104    0.3006 C.ar    1  UNL1       -0.0512
     36 C           6.1871   -0.0499   -0.9350 C.ar    1  UNL1        0.0032
     37 C           7.5460   -0.2296   -1.0600 C.ar    1  UNL1        0.0459
     38 C           8.4165   -0.2502    0.1435 C.3     1  UNL1       -0.0218
     39 N           8.0709   -0.3830   -2.2725 N.ar    1  UNL1       -0.2595
     40 C           7.2805   -0.3639   -3.3839 C.ar    1  UNL1        0.0285
     41 C           5.9187   -0.1847   -3.2717 C.ar    1  UNL1       -0.0358
     42 C           5.3368   -0.0225   -2.0384 C.ar    1  UNL1       -0.0136
     43 C           3.9973    0.1630   -1.8443 C.ar    1  UNL1       -0.0385
     44 N          -1.1592    2.1363   -0.1224 N.ar    1  UNL1       -0.2229
     45 H          -7.3235    4.1844    0.2885 H       1  UNL1        0.0388
     46 H          -6.2958    4.7114   -1.1115 H       1  UNL1        0.0388
     47 H          -7.6065    5.7531   -0.4893 H       1  UNL1        0.0388
     48 H          -6.0226    5.2706    1.6809 H       1  UNL1        0.1223
     49 H          -4.4259    6.0289   -0.6812 H       1  UNL1        0.0554
     50 H          -3.0444    5.5452    1.8840 H       1  UNL1        0.0249
     51 H          -4.2770    6.7909    2.1063 H       1  UNL1        0.0249
     52 H          -2.9642    7.0580    0.8466 H       1  UNL1        0.0249
     53 H          -2.1830    4.4861   -0.1527 H       1  UNL1        0.1563
     54 H          -4.3670    1.3907    0.3119 H       1  UNL1        0.0652
     55 H          -3.4701   -0.8264    0.2932 H       1  UNL1        0.0626
     56 H          -0.2844   -0.4392    2.8954 H       1  UNL1        0.0626
     57 H          -1.2693   -0.1624    5.1322 H       1  UNL1        0.0633
     58 H          -2.9733   -1.8049    5.9213 H       1  UNL1        0.0831
     59 H          -3.4589   -6.0909    2.4494 H       1  UNL1        0.0660
     60 H          -3.8861   -4.8611    3.7537 H       1  UNL1        0.0660
     61 H          -4.7449   -4.8090    2.2025 H       1  UNL1        0.0660
     62 H           1.1714   -5.0901   -1.3772 H       1  UNL1        0.0657
     63 H           1.6357   -4.0551   -4.9410 H       1  UNL1        0.0278
     64 H           2.8671   -4.6434   -3.6958 H       1  UNL1        0.0278
     65 H           1.2916   -5.5014   -3.9687 H       1  UNL1        0.0278
     66 H           0.8178   -2.0043   -4.2768 H       1  UNL1        0.0635
     67 H          -0.3426   -0.6715   -2.5731 H       1  UNL1        0.0813
     68 H           3.9309    0.4166    1.4845 H       1  UNL1        0.0630
     69 H           6.3174    0.0867    1.1632 H       1  UNL1        0.0625
     70 H           8.0805   -1.0167    0.8772 H       1  UNL1        0.0293
     71 H           8.5060    0.7398    0.6320 H       1  UNL1        0.0293
     72 H           9.4412   -0.5626   -0.1565 H       1  UNL1        0.0293
     73 H           7.7888   -0.4961   -4.3249 H       1  UNL1        0.0830
     74 H           5.3155   -0.1747   -4.1618 H       1  UNL1        0.0639
     75 H           3.3795    0.1754   -2.7506 H       1  UNL1        0.0636
@<TRIPOS>BOND
     1     1     2    1
     2     2     3    1
     3     3     4    1
     4     3     5    1
     5     5     6    2
     6     5     7   am
     7     7     8    1
     8     8     9   ar
     9     9    10   ar
    10    10    11   ar
    11    11    12    1
    12    12    13   ar
    13    13    14    1
    14    14    15   ar
    15    15    16   ar
    16    16    17   ar
    17    17    18   ar
    18    18    19   ar
    19    19    20    1
    20    20    21    1
    21    13    22   ar
    22    22    23   ar
    23    23    24   ar
    24    24    25   ar
    25    25    26    1
    26    25    27   ar
    27    27    28   ar
    28    28    29   ar
    29    11    30   ar
    30    30    31    1
    31    31    32    3
    32    32    33    1
    33    33    34   ar
    34    34    35   ar
    35    35    36   ar
    36    36    37   ar
    37    37    38    1
    38    37    39   ar
    39    39    40   ar
    40    40    41   ar
    41    41    42   ar
    42    42    43   ar
    43    30    44   ar
    44    44     8   ar
    45    29    12   ar
    46    43    33   ar
    47    19    14   ar
    48    29    23   ar
    49    42    36   ar
    50     1    45    1
    51     1    46    1
    52     1    47    1
    53     2    48    1
    54     3    49    1
    55     4    50    1
    56     4    51    1
    57     4    52    1
    58     7    53    1
    59     9    54    1
    60    10    55    1
    61    15    56    1
    62    16    57    1
    63    17    58    1
    64    21    59    1
    65    21    60    1
    66    21    61    1
    67    24    62    1
    68    26    63    1
    69    26    64    1
    70    26    65    1
    71    27    66    1
    72    28    67    1
    73    34    68    1
    74    35    69    1
    75    38    70    1
    76    38    71    1
    77    38    72    1
    78    40    73    1
    79    41    74    1
    80    43    75    1
