@<TRIPOS>MOLECULE
*****
 54 58 0 0 0
SMALL
GASTEIGER

@<TRIPOS>ATOM
      1 C          -3.7379   -0.3586    1.8899 C.3     1  UNL1       -0.0275
      2 C          -3.3565    0.0497    0.4549 C.3     1  UNL1        0.1021
      3 O          -2.0435    0.2133    0.3649 O.3     1  UNL1       -0.4880
      4 C          -1.0331    1.0253    0.0530 C.ar    1  UNL1        0.1321
      5 C           0.2646    0.5167    0.2012 C.ar    1  UNL1       -0.0114
      6 C           1.4097    1.2089   -0.0715 C.ar    1  UNL1       -0.0123
      7 C           2.7108    0.5627    0.1254 C.ar    1  UNL1       -0.0169
      8 C           3.8458    1.2254    0.4819 C.ar    1  UNL1       -0.0520
      9 C           5.0624    0.5758    0.6594 C.ar    1  UNL1       -0.0354
     10 C           5.1551   -0.7958    0.4740 C.ar    1  UNL1        0.0705
     11 C           4.0109   -1.4800    0.1122 C.ar    1  UNL1        0.0417
     12 C           2.8133   -0.8141   -0.0586 C.ar    1  UNL1       -0.0415
     13 C           4.3369   -2.8144   -0.0149 C.ar    1  UNL1        0.1459
     14 N           3.5262   -3.9242   -0.3654 N.pl3   1  UNL1       -0.3412
     15 N           5.6475   -2.9131    0.2668 N.ar    1  UNL1       -0.1556
     16 N           6.1322   -1.7019    0.5587 N.ar    1  UNL1       -0.2650
     17 C           7.5017   -1.3918    0.9155 C.3     1  UNL1        0.0309
     18 C           1.2874    2.4825   -0.5189 C.ar    1  UNL1       -0.0260
     19 C           0.0458    3.0682   -0.6956 C.ar    1  UNL1        0.0968
     20 N          -0.3733    4.2716   -1.1109 N.ar    1  UNL1       -0.1713
     21 N          -1.6870    4.3262   -1.0982 N.ar    1  UNL1       -0.2732
     22 C          -2.5660    5.4230   -1.4645 C.3     1  UNL1        0.0302
     23 C          -2.1778    3.1296   -0.6631 C.ar    1  UNL1        0.0364
     24 C          -1.1054    2.3389   -0.4096 C.ar    1  UNL1        0.0614
     25 C          -3.8135   -1.0633   -0.5037 C.3     1  UNL1        0.0195
     26 C          -3.1726   -2.3758   -0.1968 C.3     1  UNL1        0.0182
     27 N          -4.2959   -3.2611    0.1217 N.am    1  UNL1       -0.3149
     28 C          -5.4785   -2.7095   -0.4086 C.2     1  UNL1        0.2135
     29 O          -6.4960   -3.3332   -0.7614 O.2     1  UNL1       -0.2758
     30 C          -5.2921   -1.2438   -0.4712 C.3     1  UNL1        0.0315
     31 H          -3.6135   -1.4420    2.0105 H       1  UNL1        0.0265
     32 H          -4.7923   -0.0680    2.0164 H       1  UNL1        0.0265
     33 H          -3.0520    0.1895    2.5831 H       1  UNL1        0.0265
     34 H          -3.9822    0.9140    0.1646 H       1  UNL1        0.0733
     35 H           0.3521   -0.5096    0.5617 H       1  UNL1        0.0660
     36 H           3.8139    2.2815    0.6335 H       1  UNL1        0.0624
     37 H           5.9679    1.0950    0.9423 H       1  UNL1        0.0639
     38 H           1.9521   -1.4009   -0.3418 H       1  UNL1        0.0631
     39 H           2.5390   -4.0108   -0.0375 H       1  UNL1        0.1438
     40 H           3.8908   -4.6940   -0.9651 H       1  UNL1        0.1438
     41 H           7.5965   -1.0397    1.9636 H       1  UNL1        0.0473
     42 H           7.9215   -0.5785    0.2737 H       1  UNL1        0.0473
     43 H           8.1461   -2.2825    0.7351 H       1  UNL1        0.0473
     44 H           2.1407    3.0842   -0.7525 H       1  UNL1        0.0646
     45 H          -2.9641    5.1813   -2.4699 H       1  UNL1        0.0473
     46 H          -3.3923    5.4642   -0.7103 H       1  UNL1        0.0473
     47 H          -2.0062    6.3701   -1.4949 H       1  UNL1        0.0473
     48 H          -3.2164    2.8736   -0.5472 H       1  UNL1        0.0833
     49 H          -3.5290   -0.6979   -1.5192 H       1  UNL1        0.0356
     50 H          -2.4530   -2.3739    0.6192 H       1  UNL1        0.0466
     51 H          -2.7052   -2.8347   -1.1170 H       1  UNL1        0.0466
     52 H          -4.1698   -4.1398    0.6565 H       1  UNL1        0.1487
     53 H          -5.7924   -0.7129    0.3601 H       1  UNL1        0.0363
     54 H          -5.7733   -0.9055   -1.4310 H       1  UNL1        0.0363
@<TRIPOS>BOND
     1     1     2    1
     2     2     3    1
     3     3     4    1
     4     4     5   ar
     5     5     6   ar
     6     6     7    1
     7     7     8   ar
     8     8     9   ar
     9     9    10   ar
    10    10    11   ar
    11    11    12   ar
    12    11    13   ar
    13    13    14    1
    14    13    15   ar
    15    15    16   ar
    16    16    17    1
    17     6    18   ar
    18    18    19   ar
    19    19    20   ar
    20    20    21   ar
    21    21    22    1
    22    21    23   ar
    23    23    24   ar
    24     2    25    1
    25    25    26    1
    26    26    27    1
    27    27    28   am
    28    28    29    2
    29    28    30    1
    30    24     4   ar
    31    30    25    1
    32    12     7   ar
    33    24    19   ar
    34    16    10   ar
    35     1    31    1
    36     1    32    1
    37     1    33    1
    38     2    34    1
    39     5    35    1
    40     8    36    1
    41     9    37    1
    42    12    38    1
    43    14    39    1
    44    14    40    1
    45    17    41    1
    46    17    42    1
    47    17    43    1
    48    18    44    1
    49    22    45    1
    50    22    46    1
    51    22    47    1
    52    23    48    1
    53    25    49    1
    54    26    50    1
    55    26    51    1
    56    27    52    1
    57    30    53    1
    58    30    54    1
