@<TRIPOS>MOLECULE
*****
 36 38 0 0 0
SMALL
GASTEIGER

@<TRIPOS>ATOM
      1 C           5.6775   -1.0133   -0.5943 C.3     1  UNL1        0.0790
      2 O           4.8065   -0.0198   -0.0891 O.3     1  UNL1       -0.4914
      3 C           3.4260   -0.1703   -0.0851 C.ar    1  UNL1        0.1635
      4 C           2.7897   -1.2909   -0.5674 C.ar    1  UNL1        0.0098
      5 C           1.4147   -1.4637   -0.5736 C.ar    1  UNL1        0.0797
      6 N           0.8251   -2.5610   -1.0497 N.ar    1  UNL1       -0.2352
      7 C          -0.5022   -2.7505   -1.0685 C.ar    1  UNL1        0.1187
      8 N          -1.2530   -1.7666   -0.5752 N.ar    1  UNL1       -0.2200
      9 C          -0.7514   -0.6111   -0.0676 C.ar    1  UNL1        0.1340
     10 N          -1.5922    0.4026    0.4411 N.pl3   1  UNL1       -0.2988
     11 C          -3.0080    0.2832    0.3175 C.ar    1  UNL1        0.0339
     12 C          -3.6103   -0.3259   -0.7511 C.ar    1  UNL1       -0.0377
     13 C          -4.9943   -0.4558   -0.8510 C.ar    1  UNL1       -0.0232
     14 C          -5.7781    0.0365    0.1406 C.ar    1  UNL1        0.1417
     15 F          -7.1236   -0.1035    0.0218 F       1  UNL1       -0.2040
     16 C          -5.1909    0.6504    1.2183 C.ar    1  UNL1        0.0778
     17 CL         -6.2723    1.2633    2.4693 Cl      1  UNL1       -0.0805
     18 C          -3.8375    0.7849    1.3310 C.ar    1  UNL1       -0.0194
     19 C           0.6260   -0.4318   -0.0566 C.ar    1  UNL1        0.0441
     20 C           1.2315    0.7017    0.4331 C.ar    1  UNL1       -0.0038
     21 C           2.6277    0.8349    0.4202 C.ar    1  UNL1        0.1623
     22 O           3.2224    1.9711    0.9123 O.3     1  UNL1       -0.4914
     23 C           2.5595    3.0802    1.4596 C.3     1  UNL1        0.0790
     24 H           6.6756   -0.6117   -0.8398 H       1  UNL1        0.0660
     25 H           5.2180   -1.3653   -1.5580 H       1  UNL1        0.0660
     26 H           5.7485   -1.8985    0.0506 H       1  UNL1        0.0660
     27 H           3.3946   -2.1031   -0.9752 H       1  UNL1        0.0677
     28 H          -0.9817   -3.6459   -1.4573 H       1  UNL1        0.1048
     29 H          -1.2772    1.2706    0.9241 H       1  UNL1        0.1536
     30 H          -2.9931   -0.7070   -1.5505 H       1  UNL1        0.0637
     31 H          -5.3797   -0.9532   -1.7311 H       1  UNL1        0.0647
     32 H          -3.4087    1.2655    2.1779 H       1  UNL1        0.0652
     33 H           0.6214    1.4989    0.8288 H       1  UNL1        0.0663
     34 H           1.6445    2.7914    2.0207 H       1  UNL1        0.0660
     35 H           2.2226    3.7191    0.5925 H       1  UNL1        0.0660
     36 H           3.2227    3.6948    2.1064 H       1  UNL1        0.0660
@<TRIPOS>BOND
     1     1     2    1
     2     2     3    1
     3     3     4   ar
     4     4     5   ar
     5     5     6   ar
     6     6     7   ar
     7     7     8   ar
     8     8     9   ar
     9     9    10    1
    10    10    11    1
    11    11    12   ar
    12    12    13   ar
    13    13    14   ar
    14    14    15    1
    15    14    16   ar
    16    16    17    1
    17    16    18   ar
    18     9    19   ar
    19    19    20   ar
    20    20    21   ar
    21    21    22    1
    22    22    23    1
    23    21     3   ar
    24    19     5   ar
    25    18    11   ar
    26     1    24    1
    27     1    25    1
    28     1    26    1
    29     4    27    1
    30     7    28    1
    31    10    29    1
    32    12    30    1
    33    13    31    1
    34    18    32    1
    35    20    33    1
    36    23    34    1
    37    23    35    1
    38    23    36    1
