
     RDKit          3D

 36 38  0  0  0  0  0  0  0  0999 V2000
    5.6775   -1.0133   -0.5943 C   0  0  0  0  0  0  0  0  0  0  0  0
    4.8065   -0.0198   -0.0891 O   0  0  0  0  0  0  0  0  0  0  0  0
    3.4260   -0.1703   -0.0851 C   0  0  0  0  0  0  0  0  0  0  0  0
    2.7897   -1.2909   -0.5674 C   0  0  0  0  0  0  0  0  0  0  0  0
    1.4147   -1.4637   -0.5736 C   0  0  0  0  0  0  0  0  0  0  0  0
    0.8251   -2.5610   -1.0497 N   0  0  0  0  0  0  0  0  0  0  0  0
   -0.5022   -2.7505   -1.0685 C   0  0  0  0  0  0  0  0  0  0  0  0
   -1.2530   -1.7666   -0.5752 N   0  0  0  0  0  0  0  0  0  0  0  0
   -0.7514   -0.6111   -0.0676 C   0  0  0  0  0  0  0  0  0  0  0  0
   -1.5922    0.4026    0.4411 N   0  0  0  0  0  0  0  0  0  0  0  0
   -3.0080    0.2832    0.3175 C   0  0  0  0  0  0  0  0  0  0  0  0
   -3.6103   -0.3259   -0.7511 C   0  0  0  0  0  0  0  0  0  0  0  0
   -4.9943   -0.4558   -0.8510 C   0  0  0  0  0  0  0  0  0  0  0  0
   -5.7781    0.0365    0.1406 C   0  0  0  0  0  0  0  0  0  0  0  0
   -7.1236   -0.1035    0.0218 F   0  0  0  0  0  0  0  0  0  0  0  0
   -5.1909    0.6504    1.2183 C   0  0  0  0  0  0  0  0  0  0  0  0
   -6.2723    1.2633    2.4693 Cl  0  0  0  0  0  0  0  0  0  0  0  0
   -3.8375    0.7849    1.3310 C   0  0  0  0  0  0  0  0  0  0  0  0
    0.6260   -0.4318   -0.0566 C   0  0  0  0  0  0  0  0  0  0  0  0
    1.2315    0.7017    0.4331 C   0  0  0  0  0  0  0  0  0  0  0  0
    2.6277    0.8349    0.4202 C   0  0  0  0  0  0  0  0  0  0  0  0
    3.2224    1.9711    0.9123 O   0  0  0  0  0  0  0  0  0  0  0  0
    2.5595    3.0802    1.4596 C   0  0  0  0  0  0  0  0  0  0  0  0
    6.6756   -0.6117   -0.8398 H   0  0  0  0  0  0  0  0  0  0  0  0
    5.2180   -1.3653   -1.5580 H   0  0  0  0  0  0  0  0  0  0  0  0
    5.7485   -1.8985    0.0506 H   0  0  0  0  0  0  0  0  0  0  0  0
    3.3946   -2.1031   -0.9752 H   0  0  0  0  0  0  0  0  0  0  0  0
   -0.9817   -3.6459   -1.4573 H   0  0  0  0  0  0  0  0  0  0  0  0
   -1.2772    1.2706    0.9241 H   0  0  0  0  0  0  0  0  0  0  0  0
   -2.9931   -0.7070   -1.5505 H   0  0  0  0  0  0  0  0  0  0  0  0
   -5.3797   -0.9532   -1.7311 H   0  0  0  0  0  0  0  0  0  0  0  0
   -3.4087    1.2655    2.1779 H   0  0  0  0  0  0  0  0  0  0  0  0
    0.6214    1.4989    0.8288 H   0  0  0  0  0  0  0  0  0  0  0  0
    1.6445    2.7914    2.0207 H   0  0  0  0  0  0  0  0  0  0  0  0
    2.2226    3.7191    0.5925 H   0  0  0  0  0  0  0  0  0  0  0  0
    3.2227    3.6948    2.1064 H   0  0  0  0  0  0  0  0  0  0  0  0
  1  2  1  0
  2  3  1  0
  3  4  2  0
  4  5  1  0
  5  6  2  0
  6  7  1  0
  7  8  2  0
  8  9  1  0
  9 10  1  0
 10 11  1  0
 11 12  2  0
 12 13  1  0
 13 14  2  0
 14 15  1  0
 14 16  1  0
 16 17  1  0
 16 18  2  0
  9 19  2  0
 19 20  1  0
 20 21  2  0
 21 22  1  0
 22 23  1  0
 21  3  1  0
 19  5  1  0
 18 11  1  0
  1 24  1  0
  1 25  1  0
  1 26  1  0
  4 27  1  0
  7 28  1  0
 10 29  1  0
 12 30  1  0
 13 31  1  0
 18 32  1  0
 20 33  1  0
 23 34  1  0
 23 35  1  0
 23 36  1  0
M  END
$$$$
