
     RDKit          3D

 52 55  0  0  0  0  0  0  0  0999 V2000
   -2.6757    2.2925    1.5064 C   0  0  0  0  0  0  0  0  0  0  0  0
   -2.7558    0.9038    0.8365 C   0  0  1  0  0  0  0  0  0  0  0  0
   -1.8215    0.5983    0.0218 O   0  0  0  0  0  0  0  0  0  0  0  0
   -0.8895    0.2934   -0.7914 C   0  0  0  0  0  0  0  0  0  0  0  0
    0.4742    0.1846   -0.4092 C   0  0  0  0  0  0  0  0  0  0  0  0
    1.3882   -0.1446   -1.3486 C   0  0  0  0  0  0  0  0  0  0  0  0
    2.8032   -0.2536   -0.9303 C   0  0  0  0  0  0  0  0  0  0  0  0
    3.9168    0.0099   -1.6804 C   0  0  0  0  0  0  0  0  0  0  0  0
    4.9820   -0.2265   -0.8934 N   0  0  0  0  0  0  0  0  0  0  0  0
    4.5568   -0.6201    0.2952 N   0  0  0  0  0  0  0  0  0  0  0  0
    5.4137   -0.9657    1.4073 C   0  0  0  0  0  0  0  0  0  0  0  0
    5.7240    0.2141    2.2716 C   0  0  0  0  0  0  0  0  0  0  0  0
    6.4268    1.3334    1.5568 C   0  0  0  0  0  0  0  0  0  0  0  0
    6.6377    2.3393    2.4959 F   0  0  0  0  0  0  0  0  0  0  0  0
    5.6114    1.8667    0.5803 F   0  0  0  0  0  0  0  0  0  0  0  0
    7.6646    0.9724    1.0832 F   0  0  0  0  0  0  0  0  0  0  0  0
    3.2045   -0.6543    0.3258 C   0  0  0  0  0  0  0  0  0  0  0  0
    1.0500   -0.3796   -2.6658 C   0  0  0  0  0  0  0  0  0  0  0  0
   -0.2639   -0.2841   -3.0773 C   0  0  0  0  0  0  0  0  0  0  0  0
   -0.8914   -0.4512   -4.2658 N   0  0  0  0  0  0  0  0  0  0  0  0
   -2.1820   -0.2449   -4.1449 N   0  0  0  0  0  0  0  0  0  0  0  0
   -3.1994   -0.3267   -5.1892 C   0  0  0  0  0  0  0  0  0  0  0  0
   -2.4029    0.0628   -2.8538 C   0  0  0  0  0  0  0  0  0  0  0  0
   -3.5922    0.3481   -2.2980 F   0  0  0  0  0  0  0  0  0  0  0  0
   -1.2006    0.0459   -2.1490 C   0  0  0  0  0  0  0  0  0  0  0  0
   -3.0213   -0.1317    1.9702 C   0  0  1  0  0  0  0  0  0  0  0  0
   -4.3036    0.1943    2.6596 C   0  0  0  0  0  0  0  0  0  0  0  0
   -4.9778   -1.0757    2.8605 N   0  0  0  0  0  0  0  0  0  0  0  0
   -4.2039   -2.1191    2.2853 C   0  0  0  0  0  0  0  0  0  0  0  0
   -4.3309   -3.3371    2.5572 O   0  0  0  0  0  0  0  0  0  0  0  0
   -3.2714   -1.4669    1.3483 C   0  0  0  0  0  0  0  0  0  0  0  0
   -3.6948    2.6735    1.7084 H   0  0  0  0  0  0  0  0  0  0  0  0
   -2.1039    2.9828    0.8574 H   0  0  0  0  0  0  0  0  0  0  0  0
   -2.1609    2.2322    2.4734 H   0  0  0  0  0  0  0  0  0  0  0  0
   -3.7819    0.9287    0.3165 H   0  0  0  0  0  0  0  0  0  0  0  0
    0.6908    0.3782    0.6356 H   0  0  0  0  0  0  0  0  0  0  0  0
    3.8799    0.3431   -2.7085 H   0  0  0  0  0  0  0  0  0  0  0  0
    4.9899   -1.7555    2.0499 H   0  0  0  0  0  0  0  0  0  0  0  0
    6.3658   -1.3968    0.9926 H   0  0  0  0  0  0  0  0  0  0  0  0
    6.3722   -0.1410    3.1065 H   0  0  0  0  0  0  0  0  0  0  0  0
    4.7553    0.6190    2.6426 H   0  0  0  0  0  0  0  0  0  0  0  0
    2.5609   -0.9343    1.1528 H   0  0  0  0  0  0  0  0  0  0  0  0
    1.7924   -0.6369   -3.3824 H   0  0  0  0  0  0  0  0  0  0  0  0
   -2.9360   -1.1012   -5.9436 H   0  0  0  0  0  0  0  0  0  0  0  0
   -3.2666    0.6308   -5.7589 H   0  0  0  0  0  0  0  0  0  0  0  0
   -4.1895   -0.6043   -4.7825 H   0  0  0  0  0  0  0  0  0  0  0  0
   -2.1491   -0.1693    2.6255 H   0  0  0  0  0  0  0  0  0  0  0  0
   -4.0799    0.6407    3.6700 H   0  0  0  0  0  0  0  0  0  0  0  0
   -4.9467    0.8710    2.0580 H   0  0  0  0  0  0  0  0  0  0  0  0
   -5.8937   -1.1773    3.3573 H   0  0  0  0  0  0  0  0  0  0  0  0
   -3.7608   -1.3221    0.3426 H   0  0  0  0  0  0  0  0  0  0  0  0
   -2.3135   -2.0392    1.2221 H   0  0  0  0  0  0  0  0  0  0  0  0
  1  2  1  0
  2  3  1  0
  3  4  1  0
  4  5  2  0
  5  6  1  0
  6  7  1  0
  7  8  1  0
  8  9  2  0
  9 10  1  0
 10 11  1  0
 11 12  1  0
 12 13  1  0
 13 14  1  0
 13 15  1  0
 13 16  1  0
 10 17  1  0
  6 18  2  0
 18 19  1  0
 19 20  2  0
 20 21  1  0
 21 22  1  0
 21 23  1  0
 23 24  1  0
 23 25  2  0
  2 26  1  0
 26 27  1  0
 27 28  1  0
 28 29  1  0
 29 30  2  0
 29 31  1  0
 25  4  1  0
 31 26  1  0
 17  7  2  0
 25 19  1  0
  1 32  1  0
  1 33  1  0
  1 34  1  0
  2 35  1  6
  5 36  1  0
  8 37  1  0
 11 38  1  0
 11 39  1  0
 12 40  1  0
 12 41  1  0
 17 42  1  0
 18 43  1  0
 22 44  1  0
 22 45  1  0
 22 46  1  0
 26 47  1  1
 27 48  1  0
 27 49  1  0
 28 50  1  0
 31 51  1  0
 31 52  1  0
M  END
$$$$
