@<TRIPOS>MOLECULE
*****
 52 55 0 0 0
SMALL
GASTEIGER

@<TRIPOS>ATOM
      1 C          -2.6757    2.2925    1.5064 C.3     1  UNL1       -0.0275
      2 C          -2.7558    0.9038    0.8365 C.3     1  UNL1        0.1021
      3 O          -1.8215    0.5983    0.0218 O.3     1  UNL1       -0.4879
      4 C          -0.8895    0.2934   -0.7914 C.ar    1  UNL1        0.1350
      5 C           0.4742    0.1846   -0.4092 C.ar    1  UNL1       -0.0113
      6 C           1.3882   -0.1446   -1.3486 C.ar    1  UNL1       -0.0094
      7 C           2.8032   -0.2536   -0.9303 C.ar    1  UNL1        0.0197
      8 C           3.9168    0.0099   -1.6804 C.ar    1  UNL1        0.0571
      9 N           4.9820   -0.2265   -0.8934 N.ar    1  UNL1       -0.1790
     10 N           4.5568   -0.6201    0.2952 N.ar    1  UNL1       -0.2706
     11 C           5.4137   -0.9657    1.4073 C.3     1  UNL1        0.0497
     12 C           5.7240    0.2141    2.2716 C.3     1  UNL1        0.0623
     13 C           6.4268    1.3334    1.5568 C.3     1  UNL1        0.3918
     14 F           6.6377    2.3393    2.4959 F       1  UNL1       -0.1707
     15 F           5.6114    1.8667    0.5803 F       1  UNL1       -0.1707
     16 F           7.6646    0.9724    1.0832 F       1  UNL1       -0.1707
     17 C           3.2045   -0.6543    0.3258 C.ar    1  UNL1        0.0332
     18 C           1.0500   -0.3796   -2.6658 C.ar    1  UNL1       -0.0258
     19 C          -0.2639   -0.2841   -3.0773 C.ar    1  UNL1        0.0998
     20 N          -0.8914   -0.4512   -4.2658 N.ar    1  UNL1       -0.1689
     21 N          -2.1820   -0.2449   -4.1449 N.ar    1  UNL1       -0.2408
     22 C          -3.1994   -0.3267   -5.1892 C.3     1  UNL1        0.0331
     23 C          -2.4029    0.0628   -2.8538 C.ar    1  UNL1        0.2228
     24 F          -3.5922    0.3481   -2.2980 F       1  UNL1       -0.1834
     25 C          -1.2006    0.0459   -2.1490 C.ar    1  UNL1        0.0975
     26 C          -3.0213   -0.1317    1.9702 C.3     1  UNL1        0.0195
     27 C          -4.3036    0.1943    2.6596 C.3     1  UNL1        0.0182
     28 N          -4.9778   -1.0757    2.8605 N.am    1  UNL1       -0.3149
     29 C          -4.2039   -2.1191    2.2853 C.2     1  UNL1        0.2135
     30 O          -4.3309   -3.3371    2.5572 O.2     1  UNL1       -0.2758
     31 C          -3.2714   -1.4669    1.3483 C.3     1  UNL1        0.0315
     32 H          -3.6948    2.6735    1.7084 H       1  UNL1        0.0265
     33 H          -2.1039    2.9828    0.8574 H       1  UNL1        0.0265
     34 H          -2.1609    2.2322    2.4734 H       1  UNL1        0.0265
     35 H          -3.7819    0.9287    0.3165 H       1  UNL1        0.0733
     36 H           0.6908    0.3782    0.6356 H       1  UNL1        0.0660
     37 H           3.8799    0.3431   -2.7085 H       1  UNL1        0.0854
     38 H           4.9899   -1.7555    2.0499 H       1  UNL1        0.0511
     39 H           6.3658   -1.3968    0.9926 H       1  UNL1        0.0511
     40 H           6.3722   -0.1410    3.1065 H       1  UNL1        0.0370
     41 H           4.7553    0.6190    2.6426 H       1  UNL1        0.0370
     42 H           2.5609   -0.9343    1.1528 H       1  UNL1        0.0832
     43 H           1.7924   -0.6369   -3.3824 H       1  UNL1        0.0646
     44 H          -2.9360   -1.1012   -5.9436 H       1  UNL1        0.0474
     45 H          -3.2666    0.6308   -5.7589 H       1  UNL1        0.0474
     46 H          -4.1895   -0.6043   -4.7825 H       1  UNL1        0.0474
     47 H          -2.1491   -0.1693    2.6255 H       1  UNL1        0.0356
     48 H          -4.0799    0.6407    3.6700 H       1  UNL1        0.0466
     49 H          -4.9467    0.8710    2.0580 H       1  UNL1        0.0466
     50 H          -5.8937   -1.1773    3.3573 H       1  UNL1        0.1487
     51 H          -3.7608   -1.3221    0.3426 H       1  UNL1        0.0363
     52 H          -2.3135   -2.0392    1.2221 H       1  UNL1        0.0363
@<TRIPOS>BOND
     1     1     2    1
     2     2     3    1
     3     3     4    1
     4     4     5   ar
     5     5     6   ar
     6     6     7    1
     7     7     8   ar
     8     8     9   ar
     9     9    10   ar
    10    10    11    1
    11    11    12    1
    12    12    13    1
    13    13    14    1
    14    13    15    1
    15    13    16    1
    16    10    17   ar
    17     6    18   ar
    18    18    19   ar
    19    19    20   ar
    20    20    21   ar
    21    21    22    1
    22    21    23   ar
    23    23    24    1
    24    23    25   ar
    25     2    26    1
    26    26    27    1
    27    27    28    1
    28    28    29   am
    29    29    30    2
    30    29    31    1
    31    25     4   ar
    32    31    26    1
    33    17     7   ar
    34    25    19   ar
    35     1    32    1
    36     1    33    1
    37     1    34    1
    38     2    35    1
    39     5    36    1
    40     8    37    1
    41    11    38    1
    42    11    39    1
    43    12    40    1
    44    12    41    1
    45    17    42    1
    46    18    43    1
    47    22    44    1
    48    22    45    1
    49    22    46    1
    50    26    47    1
    51    27    48    1
    52    27    49    1
    53    28    50    1
    54    31    51    1
    55    31    52    1
