@<TRIPOS>MOLECULE
*****
 44 46 0 0 0
SMALL
GASTEIGER

@<TRIPOS>ATOM
      1 C           4.6490   -1.0229    0.1824 C.3     1  UNL1       -0.0130
      2 N           4.3299    0.3931    0.1626 N.3     1  UNL1       -0.3081
      3 C           4.8470    0.9900   -1.0507 C.3     1  UNL1       -0.0130
      4 C           2.9663    0.6727    0.4312 C.3     1  UNL1        0.0018
      5 C           2.0304    0.2248   -0.6750 C.3     1  UNL1       -0.0211
      6 C           0.6129    0.4974   -0.3770 C.2     1  UNL1       -0.0745
      7 C          -0.6739    0.1752   -0.1604 C.2     1  UNL1       -0.0141
      8 C          -1.6276    1.2866    0.1273 C.ar    1  UNL1       -0.0144
      9 C          -1.0004    2.2022    0.9726 C.ar    1  UNL1       -0.0538
     10 C          -1.7836    3.2825    1.2931 C.ar    1  UNL1       -0.0612
     11 C          -3.0821    3.4099    0.7948 C.ar    1  UNL1       -0.0615
     12 C          -3.6134    2.4562   -0.0309 C.ar    1  UNL1       -0.0580
     13 C          -2.9156    1.3106   -0.4297 C.ar    1  UNL1       -0.0393
     14 C          -3.6385    0.4066   -1.3445 C.3     1  UNL1       -0.0231
     15 C          -3.6281   -1.0348   -1.0256 C.3     1  UNL1       -0.0231
     16 C          -2.3647   -1.6571   -0.6276 C.ar    1  UNL1       -0.0393
     17 C          -2.5580   -3.0440   -0.6482 C.ar    1  UNL1       -0.0580
     18 C          -1.5212   -3.8646   -0.2849 C.ar    1  UNL1       -0.0615
     19 C          -0.2858   -3.4210    0.1058 C.ar    1  UNL1       -0.0612
     20 C          -0.0573   -2.0675    0.1404 C.ar    1  UNL1       -0.0538
     21 C          -1.0990   -1.2540   -0.2271 C.ar    1  UNL1       -0.0144
     22 H           4.0059   -1.5319    0.9270 H       1  UNL1        0.0391
     23 H           5.7082   -1.0990    0.5489 H       1  UNL1        0.0391
     24 H           4.6227   -1.5077   -0.8019 H       1  UNL1        0.0391
     25 H           5.9063    0.6139   -1.1372 H       1  UNL1        0.0391
     26 H           4.3338    0.6692   -1.9560 H       1  UNL1        0.0391
     27 H           4.8511    2.0726   -0.9446 H       1  UNL1        0.0391
     28 H           2.8822    1.7847    0.5798 H       1  UNL1        0.0429
     29 H           2.6772    0.1483    1.3561 H       1  UNL1        0.0429
     30 H           2.3506    0.8566   -1.5810 H       1  UNL1        0.0320
     31 H           2.2851   -0.8278   -0.9002 H       1  UNL1        0.0320
     32 H           0.7624    1.5615   -0.3176 H       1  UNL1        0.0579
     33 H           0.0054    2.0198    1.3169 H       1  UNL1        0.0624
     34 H          -1.3896    4.0401    1.9368 H       1  UNL1        0.0618
     35 H          -3.7046    4.2766    1.0509 H       1  UNL1        0.0618
     36 H          -4.6364    2.5603   -0.4212 H       1  UNL1        0.0620
     37 H          -3.3523    0.6272   -2.4065 H       1  UNL1        0.0316
     38 H          -4.7249    0.7345   -1.3130 H       1  UNL1        0.0316
     39 H          -4.4483   -1.2270   -0.2842 H       1  UNL1        0.0316
     40 H          -3.9354   -1.5662   -1.9835 H       1  UNL1        0.0316
     41 H          -3.5091   -3.5110   -0.9436 H       1  UNL1        0.0620
     42 H          -1.6401   -4.9588   -0.2909 H       1  UNL1        0.0618
     43 H           0.5291   -4.0691    0.3911 H       1  UNL1        0.0618
     44 H           0.8345   -1.6085    0.4536 H       1  UNL1        0.0624
@<TRIPOS>BOND
     1     1     2    1
     2     2     3    1
     3     2     4    1
     4     4     5    1
     5     5     6    1
     6     6     7    2
     7     7     8    1
     8     8     9   ar
     9     9    10   ar
    10    10    11   ar
    11    11    12   ar
    12    12    13   ar
    13    13    14    1
    14    14    15    1
    15    15    16    1
    16    16    17   ar
    17    17    18   ar
    18    18    19   ar
    19    19    20   ar
    20    20    21   ar
    21    21     7    1
    22    13     8   ar
    23    21    16   ar
    24     1    22    1
    25     1    23    1
    26     1    24    1
    27     3    25    1
    28     3    26    1
    29     3    27    1
    30     4    28    1
    31     4    29    1
    32     5    30    1
    33     5    31    1
    34     6    32    1
    35     9    33    1
    36    10    34    1
    37    11    35    1
    38    12    36    1
    39    14    37    1
    40    14    38    1
    41    15    39    1
    42    15    40    1
    43    17    41    1
    44    18    42    1
    45    19    43    1
    46    20    44    1
