@<TRIPOS>MOLECULE
*****
 37 39 0 0 0
SMALL
GASTEIGER

@<TRIPOS>ATOM
      1 C          -3.5965   -2.3394   -1.2643 C.3     1  UNL1       -0.0155
      2 N          -2.1622   -2.3493   -1.4818 N.3     1  UNL1       -0.3159
      3 C          -1.6003   -1.2944   -0.6803 C.3     1  UNL1        0.0122
      4 C          -2.1190    0.0632   -1.0181 C.3     1  UNL1       -0.0119
      5 C          -1.4845    1.0476   -0.1013 C.ar    1  UNL1       -0.0421
      6 C          -2.1614    2.2666    0.0601 C.ar    1  UNL1       -0.0582
      7 C          -1.6475    3.2396    0.8902 C.ar    1  UNL1       -0.0615
      8 C          -0.4666    2.9913    1.5512 C.ar    1  UNL1       -0.0615
      9 C           0.1947    1.7743    1.3805 C.ar    1  UNL1       -0.0577
     10 C          -0.3050    0.7992    0.5588 C.ar    1  UNL1       -0.0367
     11 C           0.4059   -0.4747    0.3934 C.3     1  UNL1        0.0109
     12 C           1.8698   -0.3403    0.4216 C.ar    1  UNL1       -0.0384
     13 C           2.5215   -0.4334    1.6336 C.ar    1  UNL1       -0.0565
     14 C           3.8811   -0.3214    1.7609 C.ar    1  UNL1       -0.0417
     15 C           4.6480   -0.1053    0.6330 C.ar    1  UNL1        0.0593
     16 CL          6.4006    0.0357    0.8222 Cl      1  UNL1       -0.0820
     17 C           4.0367   -0.0067   -0.5921 C.ar    1  UNL1        0.0595
     18 CL          5.0482    0.2675   -1.9949 Cl      1  UNL1       -0.0820
     19 C           2.6504   -0.1242   -0.6962 C.ar    1  UNL1       -0.0382
     20 C          -0.0790   -1.2264   -0.8330 C.3     1  UNL1       -0.0264
     21 H          -3.9692   -3.3933   -1.2072 H       1  UNL1        0.0388
     22 H          -4.1174   -1.7533   -2.0376 H       1  UNL1        0.0388
     23 H          -3.8559   -1.8957   -0.2660 H       1  UNL1        0.0388
     24 H          -1.9607   -2.2211   -2.4973 H       1  UNL1        0.1219
     25 H          -1.7959   -1.4980    0.3859 H       1  UNL1        0.0464
     26 H          -3.2313    0.0443   -0.8228 H       1  UNL1        0.0328
     27 H          -1.9855    0.3432   -2.0722 H       1  UNL1        0.0328
     28 H          -3.0896    2.4865   -0.4471 H       1  UNL1        0.0620
     29 H          -2.1501    4.1985    1.0369 H       1  UNL1        0.0618
     30 H          -0.0679    3.7581    2.2011 H       1  UNL1        0.0618
     31 H           1.1221    1.5776    1.8987 H       1  UNL1        0.0621
     32 H           0.1031   -1.1219    1.2650 H       1  UNL1        0.0398
     33 H           1.9331   -0.6050    2.5445 H       1  UNL1        0.0621
     34 H           4.3171   -0.4065    2.7501 H       1  UNL1        0.0633
     35 H           2.1749   -0.0457   -1.6626 H       1  UNL1        0.0635
     36 H           0.2048   -0.6866   -1.7471 H       1  UNL1        0.0289
     37 H           0.3333   -2.2508   -0.7658 H       1  UNL1        0.0289
@<TRIPOS>BOND
     1     1     2    1
     2     2     3    1
     3     3     4    1
     4     4     5    1
     5     5     6   ar
     6     6     7   ar
     7     7     8   ar
     8     8     9   ar
     9     9    10   ar
    10    10    11    1
    11    11    12    1
    12    12    13   ar
    13    13    14   ar
    14    14    15   ar
    15    15    16    1
    16    15    17   ar
    17    17    18    1
    18    17    19   ar
    19    11    20    1
    20    20     3    1
    21    10     5   ar
    22    19    12   ar
    23     1    21    1
    24     1    22    1
    25     1    23    1
    26     2    24    1
    27     3    25    1
    28     4    26    1
    29     4    27    1
    30     6    28    1
    31     7    29    1
    32     8    30    1
    33     9    31    1
    34    11    32    1
    35    13    33    1
    36    14    34    1
    37    19    35    1
    38    20    36    1
    39    20    37    1
