
     RDKit          3D

 37 39  0  0  0  0  0  0  0  0999 V2000
   -3.5965   -2.3394   -1.2643 C   0  0  0  0  0  0  0  0  0  0  0  0
   -2.1622   -2.3493   -1.4818 N   0  0  0  0  0  0  0  0  0  0  0  0
   -1.6003   -1.2944   -0.6803 C   0  0  2  0  0  0  0  0  0  0  0  0
   -2.1190    0.0632   -1.0181 C   0  0  0  0  0  0  0  0  0  0  0  0
   -1.4845    1.0476   -0.1013 C   0  0  0  0  0  0  0  0  0  0  0  0
   -2.1614    2.2666    0.0601 C   0  0  0  0  0  0  0  0  0  0  0  0
   -1.6475    3.2396    0.8902 C   0  0  0  0  0  0  0  0  0  0  0  0
   -0.4666    2.9913    1.5512 C   0  0  0  0  0  0  0  0  0  0  0  0
    0.1947    1.7743    1.3805 C   0  0  0  0  0  0  0  0  0  0  0  0
   -0.3050    0.7992    0.5588 C   0  0  0  0  0  0  0  0  0  0  0  0
    0.4059   -0.4747    0.3934 C   0  0  2  0  0  0  0  0  0  0  0  0
    1.8698   -0.3403    0.4216 C   0  0  0  0  0  0  0  0  0  0  0  0
    2.5215   -0.4334    1.6336 C   0  0  0  0  0  0  0  0  0  0  0  0
    3.8811   -0.3214    1.7609 C   0  0  0  0  0  0  0  0  0  0  0  0
    4.6480   -0.1053    0.6330 C   0  0  0  0  0  0  0  0  0  0  0  0
    6.4006    0.0357    0.8222 Cl  0  0  0  0  0  0  0  0  0  0  0  0
    4.0367   -0.0067   -0.5921 C   0  0  0  0  0  0  0  0  0  0  0  0
    5.0482    0.2675   -1.9949 Cl  0  0  0  0  0  0  0  0  0  0  0  0
    2.6504   -0.1242   -0.6962 C   0  0  0  0  0  0  0  0  0  0  0  0
   -0.0790   -1.2264   -0.8330 C   0  0  0  0  0  0  0  0  0  0  0  0
   -3.9692   -3.3933   -1.2072 H   0  0  0  0  0  0  0  0  0  0  0  0
   -4.1174   -1.7533   -2.0376 H   0  0  0  0  0  0  0  0  0  0  0  0
   -3.8559   -1.8957   -0.2660 H   0  0  0  0  0  0  0  0  0  0  0  0
   -1.9607   -2.2211   -2.4973 H   0  0  0  0  0  0  0  0  0  0  0  0
   -1.7959   -1.4980    0.3859 H   0  0  0  0  0  0  0  0  0  0  0  0
   -3.2313    0.0443   -0.8228 H   0  0  0  0  0  0  0  0  0  0  0  0
   -1.9855    0.3432   -2.0722 H   0  0  0  0  0  0  0  0  0  0  0  0
   -3.0896    2.4865   -0.4471 H   0  0  0  0  0  0  0  0  0  0  0  0
   -2.1501    4.1985    1.0369 H   0  0  0  0  0  0  0  0  0  0  0  0
   -0.0679    3.7581    2.2011 H   0  0  0  0  0  0  0  0  0  0  0  0
    1.1221    1.5776    1.8987 H   0  0  0  0  0  0  0  0  0  0  0  0
    0.1031   -1.1219    1.2650 H   0  0  0  0  0  0  0  0  0  0  0  0
    1.9331   -0.6050    2.5445 H   0  0  0  0  0  0  0  0  0  0  0  0
    4.3171   -0.4065    2.7501 H   0  0  0  0  0  0  0  0  0  0  0  0
    2.1749   -0.0457   -1.6626 H   0  0  0  0  0  0  0  0  0  0  0  0
    0.2048   -0.6866   -1.7471 H   0  0  0  0  0  0  0  0  0  0  0  0
    0.3333   -2.2508   -0.7658 H   0  0  0  0  0  0  0  0  0  0  0  0
  1  2  1  0
  2  3  1  0
  3  4  1  0
  4  5  1  0
  5  6  2  0
  6  7  1  0
  7  8  2  0
  8  9  1  0
  9 10  2  0
 10 11  1  0
 11 12  1  0
 12 13  2  0
 13 14  1  0
 14 15  2  0
 15 16  1  0
 15 17  1  0
 17 18  1  0
 17 19  2  0
 11 20  1  0
 20  3  1  0
 10  5  1  0
 19 12  1  0
  1 21  1  0
  1 22  1  0
  1 23  1  0
  2 24  1  0
  3 25  1  1
  4 26  1  0
  4 27  1  0
  6 28  1  0
  7 29  1  0
  8 30  1  0
  9 31  1  0
 11 32  1  1
 13 33  1  0
 14 34  1  0
 19 35  1  0
 20 36  1  0
 20 37  1  0
M  END
$$$$
