@<TRIPOS>MOLECULE
*****
 62 65 0 0 0
SMALL
GASTEIGER

@<TRIPOS>ATOM
      1 C           5.0657    0.7301   -2.9101 C.3     1  UNL1        0.0333
      2 C           4.3319    0.6258   -1.6119 C.2     1  UNL1        0.3049
      3 O           4.3456    1.6375   -0.8782 O.2     1  UNL1       -0.2511
      4 O           3.6814   -0.5370   -1.2641 O.3     1  UNL1       -0.4500
      5 C           2.9613   -0.6901   -0.0423 C.3     1  UNL1        0.1758
      6 C           3.8607   -0.4822    1.1045 C.2     1  UNL1        0.1741
      7 C           5.3029   -0.3000    0.9181 C.3     1  UNL1       -0.0020
      8 O           3.4186   -0.4624    2.2235 O.2     1  UNL1       -0.2934
      9 C           2.6493   -2.2233    0.0686 C.3     1  UNL1       -0.0050
     10 C           1.3804   -2.1463    0.9357 C.3     1  UNL1       -0.0453
     11 C           0.6539   -1.1593    0.1278 C.3     1  UNL1       -0.0283
     12 C          -0.6148   -0.5982    0.6063 C.3     1  UNL1       -0.0334
     13 C          -1.6332   -1.6313    1.0353 C.3     1  UNL1       -0.0433
     14 C          -2.7400   -0.8325    1.7251 C.3     1  UNL1       -0.0215
     15 C          -3.7437   -1.7586    2.3225 C.3     1  UNL1       -0.0587
     16 C          -3.3074    0.0629    0.6898 C.2     1  UNL1       -0.0572
     17 C          -4.6139    0.2779    0.7070 C.2     1  UNL1       -0.0192
     18 C          -5.3071    1.1337   -0.2483 C.2     1  UNL1        0.1561
     19 O          -6.4484    1.6167   -0.0336 O.2     1  UNL1       -0.2927
     20 C          -4.6240    1.4413   -1.5288 C.3     1  UNL1        0.0107
     21 C          -3.3366    0.6656   -1.6400 C.3     1  UNL1       -0.0366
     22 C          -2.5216    0.7285   -0.3540 C.3     1  UNL1       -0.0069
     23 C          -2.4147    2.2029    0.0364 C.3     1  UNL1       -0.0555
     24 C          -1.1903    0.1353   -0.6183 C.3     1  UNL1       -0.0288
     25 C          -0.2335    1.1393   -1.1588 C.3     1  UNL1       -0.0485
     26 C           1.2042    0.7089   -1.2312 C.3     1  UNL1       -0.0430
     27 C           1.6579   -0.0051   -0.0005 C.3     1  UNL1        0.0179
     28 C           1.5553    0.9562    1.1577 C.3     1  UNL1       -0.0552
     29 H           6.1644    0.6488   -2.7718 H       1  UNL1        0.0342
     30 H           4.8738    1.7442   -3.3125 H       1  UNL1        0.0342
     31 H           4.7790   -0.0831   -3.5997 H       1  UNL1        0.0342
     32 H           5.8357   -1.0181    1.6369 H       1  UNL1        0.0307
     33 H           5.6429    0.6925    1.2871 H       1  UNL1        0.0307
     34 H           5.7099   -0.5937   -0.0598 H       1  UNL1        0.0307
     35 H           3.4599   -2.7659    0.5369 H       1  UNL1        0.0308
     36 H           2.3860   -2.5261   -0.9454 H       1  UNL1        0.0308
     37 H           1.6019   -1.8649    1.9588 H       1  UNL1        0.0270
     38 H           0.8524   -3.1272    0.9183 H       1  UNL1        0.0270
     39 H           0.5302   -1.5605   -0.9096 H       1  UNL1        0.0310
     40 H          -0.5405    0.1319    1.4280 H       1  UNL1        0.0307
     41 H          -1.1300   -2.3126    1.7334 H       1  UNL1        0.0274
     42 H          -2.0619   -2.1480    0.1637 H       1  UNL1        0.0274
     43 H          -2.2508   -0.2312    2.5173 H       1  UNL1        0.0343
     44 H          -3.2085   -2.6064    2.8150 H       1  UNL1        0.0235
     45 H          -4.3861   -2.2127    1.5462 H       1  UNL1        0.0235
     46 H          -4.3298   -1.2641    3.1342 H       1  UNL1        0.0235
     47 H          -5.2283   -0.2003    1.4684 H       1  UNL1        0.0652
     48 H          -5.2993    1.0584   -2.3396 H       1  UNL1        0.0345
     49 H          -4.5088    2.5193   -1.6397 H       1  UNL1        0.0345
     50 H          -3.6277   -0.4173   -1.7465 H       1  UNL1        0.0278
     51 H          -2.7737    0.9801   -2.5178 H       1  UNL1        0.0278
     52 H          -2.2469    2.8473   -0.8404 H       1  UNL1        0.0238
     53 H          -1.6770    2.3562    0.8526 H       1  UNL1        0.0238
     54 H          -3.3977    2.5178    0.4658 H       1  UNL1        0.0238
     55 H          -1.3025   -0.6716   -1.3929 H       1  UNL1        0.0312
     56 H          -0.5465    1.3411   -2.2267 H       1  UNL1        0.0268
     57 H          -0.3368    2.1530   -0.6707 H       1  UNL1        0.0268
     58 H           1.7723    1.6121   -1.5010 H       1  UNL1        0.0272
     59 H           1.2698   -0.0204   -2.0868 H       1  UNL1        0.0272
     60 H           2.5309    1.5255    1.1804 H       1  UNL1        0.0237
     61 H           0.7864    1.7534    0.9814 H       1  UNL1        0.0237
     62 H           1.3175    0.5063    2.1195 H       1  UNL1        0.0237
@<TRIPOS>BOND
     1     1     2    1
     2     2     3    2
     3     2     4    1
     4     5     4    1
     5     5     6    1
     6     6     7    1
     7     6     8    2
     8     5     9    1
     9     9    10    1
    10    10    11    1
    11    11    12    1
    12    12    13    1
    13    13    14    1
    14    14    15    1
    15    14    16    1
    16    16    17    2
    17    17    18    1
    18    18    19    2
    19    18    20    1
    20    20    21    1
    21    21    22    1
    22    22    23    1
    23    22    24    1
    24    24    25    1
    25    25    26    1
    26    26    27    1
    27    27    28    1
    28    27     5    1
    29    27    11    1
    30    24    12    1
    31    22    16    1
    32     1    29    1
    33     1    30    1
    34     1    31    1
    35     7    32    1
    36     7    33    1
    37     7    34    1
    38     9    35    1
    39     9    36    1
    40    10    37    1
    41    10    38    1
    42    11    39    1
    43    12    40    1
    44    13    41    1
    45    13    42    1
    46    14    43    1
    47    15    44    1
    48    15    45    1
    49    15    46    1
    50    17    47    1
    51    20    48    1
    52    20    49    1
    53    21    50    1
    54    21    51    1
    55    23    52    1
    56    23    53    1
    57    23    54    1
    58    24    55    1
    59    25    56    1
    60    25    57    1
    61    26    58    1
    62    26    59    1
    63    28    60    1
    64    28    61    1
    65    28    62    1
