@<TRIPOS>MOLECULE
*****
 53 56 0 0 0
SMALL
GASTEIGER

@<TRIPOS>ATOM
      1 C          -3.9469   -1.2776   -0.5481 C.3     1  UNL1       -0.0121
      2 N          -4.5621   -0.4873    0.4252 N.3     1  UNL1       -0.2923
      3 C          -4.0351   -0.4478    1.7330 C.3     1  UNL1        0.0334
      4 C          -2.6769    0.2211    1.8224 C.3     1  UNL1        0.1023
      5 O          -1.7314   -0.4957    1.0078 O.3     1  UNL1       -0.4901
      6 C          -0.4278   -0.0462    0.9136 C.ar    1  UNL1        0.1283
      7 C          -0.0163    1.1031    1.5933 C.ar    1  UNL1       -0.0188
      8 C           1.2828    1.5516    1.4929 C.ar    1  UNL1       -0.0505
      9 C           2.1796    0.8448    0.7058 C.ar    1  UNL1       -0.0170
     10 C           3.5510    1.3803    0.6118 C.ar    1  UNL1       -0.0142
     11 C           4.1348    2.0666    1.6655 C.ar    1  UNL1       -0.0503
     12 C           5.4109    2.5803    1.5845 C.ar    1  UNL1       -0.0156
     13 C           6.1262    2.4025    0.4142 C.ar    1  UNL1        0.1663
     14 C           5.5455    1.7118   -0.6522 C.ar    1  UNL1        0.1668
     15 C           4.2730    1.2128   -0.5397 C.ar    1  UNL1       -0.0084
     16 O           6.4800    1.6970   -1.6556 O.3     1  UNL1       -0.4526
     17 C           7.6650    2.3706   -1.2401 C.3     1  UNL1        0.2332
     18 O           7.4061    2.8055    0.0578 O.3     1  UNL1       -0.4526
     19 C           1.7517   -0.2726    0.0557 C.ar    1  UNL1       -0.0428
     20 C           0.4632   -0.7579    0.1273 C.ar    1  UNL1        0.0258
     21 C           0.0471   -1.9572   -0.5801 C.ar    1  UNL1        0.0039
     22 C           0.1678   -3.2142   -0.0595 C.ar    1  UNL1       -0.0525
     23 C          -0.2300   -4.3560   -0.7493 C.ar    1  UNL1       -0.0611
     24 C          -0.7721   -4.2310   -2.0153 C.ar    1  UNL1       -0.0603
     25 C          -0.8991   -2.9592   -2.5518 C.ar    1  UNL1       -0.0428
     26 C          -0.4973   -1.8449   -1.8481 C.ar    1  UNL1        0.0488
     27 CL         -0.6562   -0.2412   -2.5255 Cl      1  UNL1       -0.0829
     28 C          -5.7453    0.2126    0.1368 C.3     1  UNL1        0.0966
     29 C          -5.6283    1.3177   -0.8046 C.2     1  UNL1        0.3189
     30 O          -4.4950    1.5980   -1.3357 O.2     1  UNL1       -0.2496
     31 O          -6.6850    2.1153   -1.1821 O.3     1  UNL1       -0.4797
     32 H          -3.3590   -2.0867   -0.0276 H       1  UNL1        0.0391
     33 H          -4.7319   -1.8518   -1.1158 H       1  UNL1        0.0391
     34 H          -3.3504   -0.7562   -1.3075 H       1  UNL1        0.0391
     35 H          -3.8846   -1.4923    2.0953 H       1  UNL1        0.0460
     36 H          -4.7474    0.0093    2.4440 H       1  UNL1        0.0460
     37 H          -2.6606    1.2700    1.5591 H       1  UNL1        0.0709
     38 H          -2.3326    0.0896    2.8685 H       1  UNL1        0.0709
     39 H          -0.7220    1.6559    2.2081 H       1  UNL1        0.0654
     40 H           1.6233    2.4339    2.0025 H       1  UNL1        0.0625
     41 H           3.5806    2.2092    2.5836 H       1  UNL1        0.0625
     42 H           5.8643    3.1165    2.4039 H       1  UNL1        0.0655
     43 H           3.8294    0.6840   -1.3601 H       1  UNL1        0.0661
     44 H           8.5219    1.6614   -1.2868 H       1  UNL1        0.1166
     45 H           7.8057    3.2429   -1.8948 H       1  UNL1        0.1166
     46 H           2.4518   -0.8269   -0.5584 H       1  UNL1        0.0631
     47 H           0.6011   -3.3058    0.9392 H       1  UNL1        0.0624
     48 H          -0.1199   -5.3244   -0.3074 H       1  UNL1        0.0618
     49 H          -1.0826   -5.1106   -2.5530 H       1  UNL1        0.0618
     50 H          -1.3280   -2.8721   -3.5509 H       1  UNL1        0.0632
     51 H          -6.4961   -0.5419   -0.2530 H       1  UNL1        0.0541
     52 H          -6.1743    0.5606    1.1247 H       1  UNL1        0.0541
     53 H          -6.7687    2.6330   -2.0334 H       1  UNL1        0.2951
@<TRIPOS>BOND
     1     1     2    1
     2     2     3    1
     3     3     4    1
     4     4     5    1
     5     5     6    1
     6     6     7   ar
     7     7     8   ar
     8     8     9   ar
     9     9    10    1
    10    10    11   ar
    11    11    12   ar
    12    12    13   ar
    13    13    14   ar
    14    14    15   ar
    15    14    16    1
    16    16    17    1
    17    17    18    1
    18     9    19   ar
    19    19    20   ar
    20    20    21    1
    21    21    22   ar
    22    22    23   ar
    23    23    24   ar
    24    24    25   ar
    25    25    26   ar
    26    26    27    1
    27     2    28    1
    28    28    29    1
    29    29    30    2
    30    29    31    1
    31    20     6   ar
    32    26    21   ar
    33    15    10   ar
    34    18    13    1
    35     1    32    1
    36     1    33    1
    37     1    34    1
    38     3    35    1
    39     3    36    1
    40     4    37    1
    41     4    38    1
    42     7    39    1
    43     8    40    1
    44    11    41    1
    45    12    42    1
    46    15    43    1
    47    17    44    1
    48    17    45    1
    49    19    46    1
    50    22    47    1
    51    23    48    1
    52    24    49    1
    53    25    50    1
    54    28    51    1
    55    28    52    1
    56    31    53    1
