
     RDKit          3D

 53 56  0  0  0  0  0  0  0  0999 V2000
   -3.9469   -1.2776   -0.5481 C   0  0  0  0  0  0  0  0  0  0  0  0
   -4.5621   -0.4873    0.4252 N   0  0  0  0  0  0  0  0  0  0  0  0
   -4.0351   -0.4478    1.7330 C   0  0  0  0  0  0  0  0  0  0  0  0
   -2.6769    0.2211    1.8224 C   0  0  0  0  0  0  0  0  0  0  0  0
   -1.7314   -0.4957    1.0078 O   0  0  0  0  0  0  0  0  0  0  0  0
   -0.4278   -0.0462    0.9136 C   0  0  0  0  0  0  0  0  0  0  0  0
   -0.0163    1.1031    1.5933 C   0  0  0  0  0  0  0  0  0  0  0  0
    1.2828    1.5516    1.4929 C   0  0  0  0  0  0  0  0  0  0  0  0
    2.1796    0.8448    0.7058 C   0  0  0  0  0  0  0  0  0  0  0  0
    3.5510    1.3803    0.6118 C   0  0  0  0  0  0  0  0  0  0  0  0
    4.1348    2.0666    1.6655 C   0  0  0  0  0  0  0  0  0  0  0  0
    5.4109    2.5803    1.5845 C   0  0  0  0  0  0  0  0  0  0  0  0
    6.1262    2.4025    0.4142 C   0  0  0  0  0  0  0  0  0  0  0  0
    5.5455    1.7118   -0.6522 C   0  0  0  0  0  0  0  0  0  0  0  0
    4.2730    1.2128   -0.5397 C   0  0  0  0  0  0  0  0  0  0  0  0
    6.4800    1.6970   -1.6556 O   0  0  0  0  0  0  0  0  0  0  0  0
    7.6650    2.3706   -1.2401 C   0  0  0  0  0  0  0  0  0  0  0  0
    7.4061    2.8055    0.0578 O   0  0  0  0  0  0  0  0  0  0  0  0
    1.7517   -0.2726    0.0557 C   0  0  0  0  0  0  0  0  0  0  0  0
    0.4632   -0.7579    0.1273 C   0  0  0  0  0  0  0  0  0  0  0  0
    0.0471   -1.9572   -0.5801 C   0  0  0  0  0  0  0  0  0  0  0  0
    0.1678   -3.2142   -0.0595 C   0  0  0  0  0  0  0  0  0  0  0  0
   -0.2300   -4.3560   -0.7493 C   0  0  0  0  0  0  0  0  0  0  0  0
   -0.7721   -4.2310   -2.0153 C   0  0  0  0  0  0  0  0  0  0  0  0
   -0.8991   -2.9592   -2.5518 C   0  0  0  0  0  0  0  0  0  0  0  0
   -0.4973   -1.8449   -1.8481 C   0  0  0  0  0  0  0  0  0  0  0  0
   -0.6562   -0.2412   -2.5255 Cl  0  0  0  0  0  0  0  0  0  0  0  0
   -5.7453    0.2126    0.1368 C   0  0  0  0  0  0  0  0  0  0  0  0
   -5.6283    1.3177   -0.8046 C   0  0  0  0  0  0  0  0  0  0  0  0
   -4.4950    1.5980   -1.3357 O   0  0  0  0  0  0  0  0  0  0  0  0
   -6.6850    2.1153   -1.1821 O   0  0  0  0  0  0  0  0  0  0  0  0
   -3.3590   -2.0867   -0.0276 H   0  0  0  0  0  0  0  0  0  0  0  0
   -4.7319   -1.8518   -1.1158 H   0  0  0  0  0  0  0  0  0  0  0  0
   -3.3504   -0.7562   -1.3075 H   0  0  0  0  0  0  0  0  0  0  0  0
   -3.8846   -1.4923    2.0953 H   0  0  0  0  0  0  0  0  0  0  0  0
   -4.7474    0.0093    2.4440 H   0  0  0  0  0  0  0  0  0  0  0  0
   -2.6606    1.2700    1.5591 H   0  0  0  0  0  0  0  0  0  0  0  0
   -2.3326    0.0896    2.8685 H   0  0  0  0  0  0  0  0  0  0  0  0
   -0.7220    1.6559    2.2081 H   0  0  0  0  0  0  0  0  0  0  0  0
    1.6233    2.4339    2.0025 H   0  0  0  0  0  0  0  0  0  0  0  0
    3.5806    2.2092    2.5836 H   0  0  0  0  0  0  0  0  0  0  0  0
    5.8643    3.1165    2.4039 H   0  0  0  0  0  0  0  0  0  0  0  0
    3.8294    0.6840   -1.3601 H   0  0  0  0  0  0  0  0  0  0  0  0
    8.5219    1.6614   -1.2868 H   0  0  0  0  0  0  0  0  0  0  0  0
    7.8057    3.2429   -1.8948 H   0  0  0  0  0  0  0  0  0  0  0  0
    2.4518   -0.8269   -0.5584 H   0  0  0  0  0  0  0  0  0  0  0  0
    0.6011   -3.3058    0.9392 H   0  0  0  0  0  0  0  0  0  0  0  0
   -0.1199   -5.3244   -0.3074 H   0  0  0  0  0  0  0  0  0  0  0  0
   -1.0826   -5.1106   -2.5530 H   0  0  0  0  0  0  0  0  0  0  0  0
   -1.3280   -2.8721   -3.5509 H   0  0  0  0  0  0  0  0  0  0  0  0
   -6.4961   -0.5419   -0.2530 H   0  0  0  0  0  0  0  0  0  0  0  0
   -6.1743    0.5606    1.1247 H   0  0  0  0  0  0  0  0  0  0  0  0
   -6.7687    2.6330   -2.0334 H   0  0  0  0  0  0  0  0  0  0  0  0
  1  2  1  0
  2  3  1  0
  3  4  1  0
  4  5  1  0
  5  6  1  0
  6  7  2  0
  7  8  1  0
  8  9  2  0
  9 10  1  0
 10 11  2  0
 11 12  1  0
 12 13  2  0
 13 14  1  0
 14 15  2  0
 14 16  1  0
 16 17  1  0
 17 18  1  0
  9 19  1  0
 19 20  2  0
 20 21  1  0
 21 22  2  0
 22 23  1  0
 23 24  2  0
 24 25  1  0
 25 26  2  0
 26 27  1  0
  2 28  1  0
 28 29  1  0
 29 30  2  0
 29 31  1  0
 20  6  1  0
 26 21  1  0
 15 10  1  0
 18 13  1  0
  1 32  1  0
  1 33  1  0
  1 34  1  0
  3 35  1  0
  3 36  1  0
  4 37  1  0
  4 38  1  0
  7 39  1  0
  8 40  1  0
 11 41  1  0
 12 42  1  0
 15 43  1  0
 17 44  1  0
 17 45  1  0
 19 46  1  0
 22 47  1  0
 23 48  1  0
 24 49  1  0
 25 50  1  0
 28 51  1  0
 28 52  1  0
 31 53  1  0
M  END
$$$$
