@<TRIPOS>MOLECULE
*****
 47 49 0 0 0
SMALL
GASTEIGER

@<TRIPOS>ATOM
      1 C          -3.6890    2.3186    0.9896 C.3     1  UNL1        0.0038
      2 N          -2.6301    1.4247    0.5444 N.am    1  UNL1       -0.2963
      3 C          -2.8073    0.0106    0.8179 C.3     1  UNL1        0.0397
      4 C          -4.2735   -0.2762    0.7101 C.ar    1  UNL1       -0.0301
      5 C          -5.0187   -0.3524    1.9081 C.ar    1  UNL1       -0.0571
      6 C          -6.3712   -0.5715    1.9234 C.ar    1  UNL1       -0.0615
      7 C          -7.0780   -0.7287    0.7505 C.ar    1  UNL1       -0.0617
      8 C          -6.3546   -0.6564   -0.4301 C.ar    1  UNL1       -0.0615
      9 C          -4.9765   -0.4345   -0.4470 C.ar    1  UNL1       -0.0571
     10 C          -1.5235    1.8420   -0.2195 C.2     1  UNL1        0.2467
     11 O          -1.5029    3.0655   -0.5516 O.2     1  UNL1       -0.2700
     12 C          -0.4826    0.9153   -0.5776 C.ar    1  UNL1        0.0370
     13 C          -0.5430   -0.0381   -1.5508 C.ar    1  UNL1       -0.0478
     14 C           0.4880   -0.8987   -1.8201 C.ar    1  UNL1       -0.0344
     15 C           1.6926   -0.8417   -1.0902 C.ar    1  UNL1        0.1085
     16 S           2.9070   -1.9885   -1.4753 S.O2    1  UNL1        0.0723
     17 O           3.3223   -1.6857   -2.9238 O.2     1  UNL1       -0.1500
     18 O           2.2869   -3.3748   -1.5175 O.2     1  UNL1       -0.1500
     19 N           4.2791   -1.9972   -0.5143 N.pl3   1  UNL1       -0.2163
     20 C           5.2225   -0.9733   -0.3478 C.ar    1  UNL1        0.0480
     21 C           5.1032    0.2865   -0.8636 C.ar    1  UNL1       -0.0393
     22 C           6.0815    1.2755   -0.7097 C.ar    1  UNL1       -0.0600
     23 C           7.2322    0.9921   -0.0062 C.ar    1  UNL1       -0.0616
     24 C           7.3913   -0.2715    0.5332 C.ar    1  UNL1       -0.0600
     25 C           6.4123   -1.2171    0.3621 C.ar    1  UNL1       -0.0393
     26 C           1.7532    0.1099   -0.1192 C.ar    1  UNL1       -0.0344
     27 C           0.6999    0.9848    0.1516 C.ar    1  UNL1       -0.0478
     28 H          -3.3619    3.3584    1.0949 H       1  UNL1        0.0429
     29 H          -4.1726    1.9986    1.9284 H       1  UNL1        0.0429
     30 H          -4.5067    2.3329    0.1914 H       1  UNL1        0.0429
     31 H          -2.2731   -0.6187    0.0728 H       1  UNL1        0.0514
     32 H          -2.4801   -0.1829    1.8467 H       1  UNL1        0.0514
     33 H          -4.4408   -0.2268    2.8261 H       1  UNL1        0.0621
     34 H          -6.8636   -0.6181    2.9084 H       1  UNL1        0.0618
     35 H          -8.1513   -0.9011    0.7902 H       1  UNL1        0.0618
     36 H          -6.9200   -0.7746   -1.3443 H       1  UNL1        0.0618
     37 H          -4.4358   -0.3815   -1.3946 H       1  UNL1        0.0621
     38 H          -1.4474   -0.1234   -2.1299 H       1  UNL1        0.0626
     39 H           0.4250   -1.6559   -2.6029 H       1  UNL1        0.0637
     40 H           4.4874   -2.8974    0.0536 H       1  UNL1        0.1737
     41 H           4.2403    0.5563   -1.4178 H       1  UNL1        0.0636
     42 H           5.9364    2.2576   -1.1383 H       1  UNL1        0.0618
     43 H           8.0304    1.7220    0.1434 H       1  UNL1        0.0618
     44 H           8.2957   -0.4928    1.0878 H       1  UNL1        0.0618
     45 H           6.5628   -2.1978    0.7952 H       1  UNL1        0.0636
     46 H           2.6517    0.1982    0.4809 H       1  UNL1        0.0637
     47 H           0.8026    1.7279    0.9353 H       1  UNL1        0.0626
@<TRIPOS>BOND
     1     1     2    1
     2     2     3    1
     3     3     4    1
     4     4     5   ar
     5     5     6   ar
     6     6     7   ar
     7     7     8   ar
     8     8     9   ar
     9     2    10   am
    10    10    11    2
    11    10    12    1
    12    12    13   ar
    13    13    14   ar
    14    14    15   ar
    15    15    16    1
    16    16    17    2
    17    16    18    2
    18    16    19    1
    19    19    20    1
    20    20    21   ar
    21    21    22   ar
    22    22    23   ar
    23    23    24   ar
    24    24    25   ar
    25    15    26   ar
    26    26    27   ar
    27     9     4   ar
    28    27    12   ar
    29    25    20   ar
    30     1    28    1
    31     1    29    1
    32     1    30    1
    33     3    31    1
    34     3    32    1
    35     5    33    1
    36     6    34    1
    37     7    35    1
    38     8    36    1
    39     9    37    1
    40    13    38    1
    41    14    39    1
    42    19    40    1
    43    21    41    1
    44    22    42    1
    45    23    43    1
    46    24    44    1
    47    25    45    1
    48    26    46    1
    49    27    47    1
