@<TRIPOS>MOLECULE
*****
 258 257 0 0 0
SMALL
GASTEIGER

@<TRIPOS>ATOM
      1 C          -4.4812   -5.7331   -5.3618 C.3     1  UNL1       -0.0653
      2 C          -3.0975   -6.3748   -5.2308 C.3     1  UNL1       -0.0559
      3 C          -2.2069   -5.4417   -4.4907 C.3     1  UNL1       -0.0533
      4 C          -0.7901   -5.9931   -4.2756 C.3     1  UNL1       -0.0531
      5 C          -0.8573   -7.2614   -3.5021 C.3     1  UNL1       -0.0531
      6 C           0.3848   -7.9478   -3.1664 C.3     1  UNL1       -0.0531
      7 C           1.3450   -7.2251   -2.3173 C.3     1  UNL1       -0.0531
      8 C           0.7046   -6.7142   -1.0283 C.3     1  UNL1       -0.0531
      9 C           1.7657   -6.2596   -0.1357 C.3     1  UNL1       -0.0531
     10 C           2.7516   -5.2006   -0.6514 C.3     1  UNL1       -0.0531
     11 C           3.7145   -5.0349    0.5105 C.3     1  UNL1       -0.0531
     12 C           4.8848   -4.1832    0.3961 C.3     1  UNL1       -0.0531
     13 C           4.7522   -2.7348    0.1173 C.3     1  UNL1       -0.0531
     14 C           3.9164   -1.9505    1.1102 C.3     1  UNL1       -0.0530
     15 C           3.9372   -0.4889    0.8075 C.3     1  UNL1       -0.0526
     16 C           3.1110    0.4137    1.6429 C.3     1  UNL1       -0.0430
     17 C           3.3345    0.5014    3.0976 C.3     1  UNL1        0.0449
     18 C           2.4379    1.4385    3.8496 C.2     1  UNL1        0.3072
     19 O           1.2782    1.0322    4.1940 O.2     1  UNL1       -0.2509
     20 O           2.2147    2.6814    4.4372 O.3     1  UNL1       -0.4608
     21 C           1.0564    3.0072    5.1001 C.3     1  UNL1        0.1315
     22 C          -0.2460    3.2388    4.3813 C.3     1  UNL1        0.1605
     23 C          -0.3325    4.6231    3.7390 C.3     1  UNL1        0.0993
     24 O           0.5441    4.8041    2.7384 O.3     1  UNL1       -0.2828
     25 P           0.3003    6.1296    1.7067 P.3     1  UNL1        0.4751
     26 O          -0.0929    7.4552    2.6871 O.3     1  UNL1       -0.3025
     27 O           1.6654    6.4305    1.1046 O.2     1  UNL1       -0.2273
     28 O          -0.7577    5.8862    0.4735 O.3     1  UNL1       -0.2840
     29 C          -0.6035    6.4264   -0.7426 C.3     1  UNL1        0.0872
     30 C          -1.8057    5.9805   -1.6282 C.3     1  UNL1        0.1028
     31 O          -2.9823    6.3314   -0.9818 O.3     1  UNL1       -0.3872
     32 C          -1.7079    4.5000   -1.9586 C.3     1  UNL1        0.0872
     33 O          -2.8083    4.0840   -2.6504 O.3     1  UNL1       -0.2840
     34 P          -2.6449    2.7510   -3.6492 P.3     1  UNL1        0.4751
     35 O          -1.6136    3.2201   -4.9835 O.3     1  UNL1       -0.3025
     36 O          -4.0176    2.5658   -4.3390 O.2     1  UNL1       -0.2273
     37 O          -2.1623    1.3970   -2.9943 O.3     1  UNL1       -0.2828
     38 C          -2.7310    0.2389   -2.6735 C.3     1  UNL1        0.0993
     39 C          -1.7156   -0.9145   -2.7701 C.3     1  UNL1        0.1605
     40 C          -1.5946   -1.9209   -1.7566 C.3     1  UNL1        0.1315
     41 O          -1.9237   -1.5166   -0.4463 O.3     1  UNL1       -0.4608
     42 C          -1.6350   -2.3842    0.6188 C.2     1  UNL1        0.3072
     43 O          -1.1031   -3.4050    0.0470 O.2     1  UNL1       -0.2509
     44 C          -1.6921   -2.5836    2.0756 C.3     1  UNL1        0.0449
     45 C          -0.2865   -2.5240    2.7101 C.3     1  UNL1       -0.0430
     46 C          -0.2830   -2.7237    4.1839 C.3     1  UNL1       -0.0526
     47 C           1.0830   -2.5855    4.8154 C.3     1  UNL1       -0.0530
     48 C           2.0926   -3.5684    4.3328 C.3     1  UNL1       -0.0531
     49 C           3.4808   -3.2970    4.9016 C.3     1  UNL1       -0.0531
     50 C           4.4810   -4.3185    4.4487 C.3     1  UNL1       -0.0531
     51 C           5.9170   -4.0163    4.8125 C.3     1  UNL1       -0.0531
     52 C           6.4189   -2.7777    4.1236 C.3     1  UNL1       -0.0531
     53 C           7.8778   -2.4842    4.3915 C.3     1  UNL1       -0.0531
     54 C           8.3041   -1.2639    3.6009 C.3     1  UNL1       -0.0531
     55 C           7.5814   -0.0140    3.9313 C.3     1  UNL1       -0.0531
     56 C           8.0862    1.0769    2.9696 C.3     1  UNL1       -0.0531
     57 C           7.3552    2.3644    3.3213 C.3     1  UNL1       -0.0531
     58 C           7.6923    3.5097    2.4185 C.3     1  UNL1       -0.0533
     59 C           7.3079    3.2647    0.9783 C.3     1  UNL1       -0.0559
     60 C           7.6055    4.4023    0.0507 C.3     1  UNL1       -0.0653
     61 O          -1.3345   -1.2981   -4.0635 O.3     1  UNL1       -0.4555
     62 C          -0.4724   -0.6087   -4.8367 C.2     1  UNL1        0.3075
     63 O          -0.1383    0.4565   -4.3182 O.2     1  UNL1       -0.2508
     64 C           0.2969   -0.6556   -6.1768 C.3     1  UNL1        0.0450
     65 C           0.9802    0.7093   -6.2156 C.3     1  UNL1       -0.0430
     66 C           1.9121    0.9262   -5.0378 C.3     1  UNL1       -0.0526
     67 C           2.2409    2.3749   -4.9947 C.3     1  UNL1       -0.0530
     68 C           2.8066    2.8144   -3.6062 C.3     1  UNL1       -0.0531
     69 C           1.7844    2.4200   -2.6134 C.3     1  UNL1       -0.0531
     70 C           1.8351    2.8602   -1.1770 C.3     1  UNL1       -0.0531
     71 C           0.6524    2.0685   -0.6016 C.3     1  UNL1       -0.0531
     72 C           0.3458    2.2704    0.8197 C.3     1  UNL1       -0.0531
     73 C          -0.7594    1.2937    1.2133 C.3     1  UNL1       -0.0531
     74 C          -2.1385    1.6876    0.6808 C.3     1  UNL1       -0.0531
     75 C          -2.6026    2.9650    1.3414 C.3     1  UNL1       -0.0531
     76 C          -3.9225    3.5034    0.8688 C.3     1  UNL1       -0.0531
     77 C          -4.2611    4.8060    1.6489 C.3     1  UNL1       -0.0531
     78 C          -4.4307    4.4772    3.1114 C.3     1  UNL1       -0.0533
     79 C          -4.7356    5.7507    3.9141 C.3     1  UNL1       -0.0559
     80 C          -4.9301    5.3265    5.3435 C.3     1  UNL1       -0.0653
     81 O          -1.3033    3.2077    5.4183 O.3     1  UNL1       -0.4555
     82 C          -2.2338    2.1666    5.3489 C.2     1  UNL1        0.3075
     83 O          -2.4172    1.2238    4.5713 O.2     1  UNL1       -0.2508
     84 C          -3.4149    1.5220    5.9630 C.3     1  UNL1        0.0450
     85 C          -4.0739    0.4318    5.1603 C.3     1  UNL1       -0.0430
     86 C          -4.7491    0.7928    3.9103 C.3     1  UNL1       -0.0526
     87 C          -5.3326   -0.4139    3.1218 C.3     1  UNL1       -0.0530
     88 C          -6.0176    0.2121    1.9380 C.3     1  UNL1       -0.0531
     89 C          -6.6075   -0.7405    0.9248 C.3     1  UNL1       -0.0531
     90 C          -7.3525    0.1513   -0.0635 C.3     1  UNL1       -0.0531
     91 C          -7.9746   -0.5543   -1.2018 C.3     1  UNL1       -0.0531
     92 C          -7.0437   -1.1554   -2.2305 C.3     1  UNL1       -0.0531
     93 C          -7.7931   -1.9050   -3.2713 C.3     1  UNL1       -0.0531
     94 C          -6.9713   -2.4263   -4.4042 C.3     1  UNL1       -0.0531
     95 C          -6.3961   -1.3307   -5.2940 C.3     1  UNL1       -0.0531
     96 C          -5.6274   -2.0445   -6.3796 C.3     1  UNL1       -0.0531
     97 C          -5.0508   -1.2125   -7.4533 C.3     1  UNL1       -0.0531
     98 C          -4.0545   -0.1642   -7.1134 C.3     1  UNL1       -0.0533
     99 C          -3.5794    0.5407   -8.3872 C.3     1  UNL1       -0.0559
    100 C          -2.5658    1.6190   -8.0995 C.3     1  UNL1       -0.0653
    101 H          -5.2373   -6.4181   -4.8984 H       1  UNL1        0.0230
    102 H          -4.5352   -4.7431   -4.9047 H       1  UNL1        0.0230
    103 H          -4.8027   -5.6717   -6.4393 H       1  UNL1        0.0230
    104 H          -3.2043   -7.3527   -4.7518 H       1  UNL1        0.0263
    105 H          -2.7277   -6.5227   -6.2722 H       1  UNL1        0.0263
    106 H          -2.0468   -4.5284   -5.1098 H       1  UNL1        0.0265
    107 H          -2.6687   -5.1665   -3.5363 H       1  UNL1        0.0265
    108 H          -0.2351   -5.1939   -3.7875 H       1  UNL1        0.0265
    109 H          -0.3347   -6.1483   -5.2697 H       1  UNL1        0.0265
    110 H          -1.5138   -8.0178   -4.0514 H       1  UNL1        0.0265
    111 H          -1.4447   -7.0884   -2.5589 H       1  UNL1        0.0265
    112 H           0.1112   -8.8992   -2.5998 H       1  UNL1        0.0265
    113 H           0.9678   -8.2738   -4.0867 H       1  UNL1        0.0265
    114 H           1.7794   -6.3017   -2.7909 H       1  UNL1        0.0265
    115 H           2.1927   -7.8839   -1.9868 H       1  UNL1        0.0265
    116 H           0.0297   -5.8451   -1.2741 H       1  UNL1        0.0265
    117 H           0.1357   -7.5241   -0.5286 H       1  UNL1        0.0265
    118 H           1.3509   -5.8773    0.8590 H       1  UNL1        0.0265
    119 H           2.3768   -7.1591    0.1933 H       1  UNL1        0.0265
    120 H           2.2265   -4.2425   -0.8289 H       1  UNL1        0.0265
    121 H           3.2674   -5.5523   -1.5511 H       1  UNL1        0.0265
    122 H           3.1240   -4.7104    1.4111 H       1  UNL1        0.0265
    123 H           4.0827   -6.0983    0.6792 H       1  UNL1        0.0265
    124 H           5.5518   -4.3165    1.3302 H       1  UNL1        0.0265
    125 H           5.5674   -4.6636   -0.3824 H       1  UNL1        0.0265
    126 H           4.4205   -2.5228   -0.9279 H       1  UNL1        0.0265
    127 H           5.8073   -2.3113    0.1610 H       1  UNL1        0.0265
    128 H           4.1965   -2.2515    2.1112 H       1  UNL1        0.0265
    129 H           2.8608   -2.2887    0.9537 H       1  UNL1        0.0265
    130 H           4.9904   -0.1176    0.8170 H       1  UNL1        0.0265
    131 H           3.5307   -0.4115   -0.2516 H       1  UNL1        0.0265
    132 H           3.2848    1.4858    1.2643 H       1  UNL1        0.0270
    133 H           2.0548    0.1898    1.3676 H       1  UNL1        0.0270
    134 H           4.3814    0.7382    3.3252 H       1  UNL1        0.0377
    135 H           3.0419   -0.5102    3.5180 H       1  UNL1        0.0377
    136 H           0.8600    2.2334    5.9188 H       1  UNL1        0.0736
    137 H           1.3177    3.9457    5.6933 H       1  UNL1        0.0736
    138 H          -0.4473    2.4392    3.7274 H       1  UNL1        0.0792
    139 H           0.0018    5.3143    4.5859 H       1  UNL1        0.0604
    140 H          -1.3674    4.9450    3.5444 H       1  UNL1        0.0604
    141 H          -0.5772    7.2017    3.5063 H       1  UNL1        0.2220
    142 H          -0.6108    7.5268   -0.7070 H       1  UNL1        0.0592
    143 H           0.3390    6.1520   -1.2688 H       1  UNL1        0.0592
    144 H          -1.7669    6.5353   -2.5785 H       1  UNL1        0.0640
    145 H          -3.6534    6.5977   -1.6862 H       1  UNL1        0.2100
    146 H          -1.5727    3.9935   -1.0197 H       1  UNL1        0.0592
    147 H          -0.8282    4.3346   -2.6534 H       1  UNL1        0.0592
    148 H          -2.0880    4.0035   -5.3422 H       1  UNL1        0.2220
    149 H          -3.6342   -0.0325   -3.2779 H       1  UNL1        0.0604
    150 H          -3.0749    0.2135   -1.6333 H       1  UNL1        0.0604
    151 H          -0.7678   -0.1967   -2.5357 H       1  UNL1        0.0792
    152 H          -2.1448   -2.8893   -1.9749 H       1  UNL1        0.0736
    153 H          -0.4827   -2.1975   -1.6731 H       1  UNL1        0.0736
    154 H          -2.3132   -1.7560    2.5055 H       1  UNL1        0.0377
    155 H          -2.1232   -3.5298    2.3822 H       1  UNL1        0.0377
    156 H           0.2230   -3.4385    2.2814 H       1  UNL1        0.0270
    157 H           0.2580   -1.6228    2.4117 H       1  UNL1        0.0270
    158 H          -0.6883   -3.6959    4.4904 H       1  UNL1        0.0265
    159 H          -0.9356   -1.9389    4.6529 H       1  UNL1        0.0265
    160 H           0.8925   -2.8742    5.9101 H       1  UNL1        0.0265
    161 H           1.4337   -1.5608    4.8842 H       1  UNL1        0.0265
    162 H           1.7942   -4.5915    4.5500 H       1  UNL1        0.0265
    163 H           2.1836   -3.4013    3.2329 H       1  UNL1        0.0265
    164 H           3.3347   -3.4771    6.0222 H       1  UNL1        0.0265
    165 H           3.7987   -2.2595    4.8522 H       1  UNL1        0.0265
    166 H           4.2408   -5.3016    4.9581 H       1  UNL1        0.0265
    167 H           4.3622   -4.5418    3.3782 H       1  UNL1        0.0265
    168 H           5.9433   -3.8776    5.9150 H       1  UNL1        0.0265
    169 H           6.5980   -4.8500    4.5645 H       1  UNL1        0.0265
    170 H           5.8496   -1.9117    4.5436 H       1  UNL1        0.0265
    171 H           6.3145   -2.8492    3.0214 H       1  UNL1        0.0265
    172 H           8.4441   -3.3425    3.9791 H       1  UNL1        0.0265
    173 H           8.0904   -2.3227    5.4358 H       1  UNL1        0.0265
    174 H           8.1970   -1.4501    2.5010 H       1  UNL1        0.0265
    175 H           9.3751   -1.1186    3.8402 H       1  UNL1        0.0265
    176 H           6.5185   -0.1689    3.6504 H       1  UNL1        0.0265
    177 H           7.7063    0.3377    4.9593 H       1  UNL1        0.0265
    178 H           9.1743    1.2402    3.0458 H       1  UNL1        0.0265
    179 H           7.7725    0.7761    1.9584 H       1  UNL1        0.0265
    180 H           7.6380    2.6680    4.3766 H       1  UNL1        0.0265
    181 H           6.2707    2.2299    3.3596 H       1  UNL1        0.0265
    182 H           8.7914    3.7201    2.4222 H       1  UNL1        0.0265
    183 H           7.2051    4.4449    2.7370 H       1  UNL1        0.0265
    184 H           7.8716    2.3793    0.5661 H       1  UNL1        0.0263
    185 H           6.2336    2.9959    0.8710 H       1  UNL1        0.0263
    186 H           6.7076    5.0134   -0.1865 H       1  UNL1        0.0230
    187 H           8.3438    5.1240    0.4457 H       1  UNL1        0.0230
    188 H           8.0196    4.0889   -0.9349 H       1  UNL1        0.0230
    189 H           1.0743   -1.4189   -6.0959 H       1  UNL1        0.0377
    190 H          -0.4174   -0.7873   -6.9711 H       1  UNL1        0.0377
    191 H           0.1878    1.5169   -6.1598 H       1  UNL1        0.0270
    192 H           1.5200    0.8565   -7.1497 H       1  UNL1        0.0270
    193 H           1.8228    0.3477   -4.1616 H       1  UNL1        0.0265
    194 H           2.9086    0.4247   -5.4881 H       1  UNL1        0.0265
    195 H           3.0308    2.6393   -5.7126 H       1  UNL1        0.0265
    196 H           1.3886    3.0605   -5.2084 H       1  UNL1        0.0265
    197 H           3.7404    2.2437   -3.4758 H       1  UNL1        0.0265
    198 H           2.9830    3.8959   -3.6932 H       1  UNL1        0.0265
    199 H           1.7575    1.2787   -2.6076 H       1  UNL1        0.0265
    200 H           0.7754    2.6780   -3.0339 H       1  UNL1        0.0265
    201 H           2.7681    2.7114   -0.6625 H       1  UNL1        0.0265
    202 H           1.5644    3.9342   -1.0990 H       1  UNL1        0.0265
    203 H           1.0593    0.9917   -0.6536 H       1  UNL1        0.0265
    204 H          -0.1879    2.1833   -1.2570 H       1  UNL1        0.0265
    205 H           1.1850    2.3476    1.4521 H       1  UNL1        0.0265
    206 H          -0.2352    3.2674    0.8057 H       1  UNL1        0.0265
    207 H          -0.5296    0.3335    0.6077 H       1  UNL1        0.0265
    208 H          -0.7806    0.9445    2.2174 H       1  UNL1        0.0265
    209 H          -2.8828    0.9103    0.9275 H       1  UNL1        0.0265
    210 H          -2.0036    1.8683   -0.3712 H       1  UNL1        0.0265
    211 H          -1.9014    3.8028    1.2866 H       1  UNL1        0.0265
    212 H          -2.6685    2.7462    2.4224 H       1  UNL1        0.0265
    213 H          -3.8613    3.7831   -0.1836 H       1  UNL1        0.0265
    214 H          -4.7879    2.8661    1.0685 H       1  UNL1        0.0265
    215 H          -3.4325    5.5217    1.5667 H       1  UNL1        0.0265
    216 H          -5.2001    5.1422    1.2059 H       1  UNL1        0.0265
    217 H          -3.5443    4.0537    3.5986 H       1  UNL1        0.0265
    218 H          -5.2713    3.7470    3.2776 H       1  UNL1        0.0265
    219 H          -3.7673    6.3202    3.8709 H       1  UNL1        0.0263
    220 H          -5.5124    6.3699    3.4808 H       1  UNL1        0.0263
    221 H          -5.5056    6.0519    5.9266 H       1  UNL1        0.0230
    222 H          -5.4170    4.3222    5.3433 H       1  UNL1        0.0230
    223 H          -3.9200    5.1863    5.8069 H       1  UNL1        0.0230
    224 H          -3.1024    1.1526    6.9690 H       1  UNL1        0.0377
    225 H          -4.1454    2.3530    6.1613 H       1  UNL1        0.0377
    226 H          -4.7944   -0.0621    5.8868 H       1  UNL1        0.0270
    227 H          -3.3034   -0.3831    4.9892 H       1  UNL1        0.0270
    228 H          -4.1519    1.3078    3.1561 H       1  UNL1        0.0265
    229 H          -5.6765    1.3670    4.1797 H       1  UNL1        0.0265
    230 H          -4.5564   -1.0869    2.7669 H       1  UNL1        0.0265
    231 H          -6.0483   -0.9865    3.7328 H       1  UNL1        0.0265
    232 H          -5.1867    0.7238    1.3562 H       1  UNL1        0.0265
    233 H          -6.7819    0.9552    2.1697 H       1  UNL1        0.0265
    234 H          -5.8796   -1.3739    0.4254 H       1  UNL1        0.0265
    235 H          -7.3620   -1.3786    1.4255 H       1  UNL1        0.0265
    236 H          -6.6277    0.9098   -0.4317 H       1  UNL1        0.0265
    237 H          -8.1821    0.6308    0.5333 H       1  UNL1        0.0265
    238 H          -8.7071    0.0614   -1.7597 H       1  UNL1        0.0265
    239 H          -8.6225   -1.3903   -0.7760 H       1  UNL1        0.0265
    240 H          -6.4148   -1.8975   -1.6481 H       1  UNL1        0.0265
    241 H          -6.4229   -0.3538   -2.6520 H       1  UNL1        0.0265
    242 H          -8.4138   -2.7244   -2.8587 H       1  UNL1        0.0265
    243 H          -8.5362   -1.1980   -3.7437 H       1  UNL1        0.0265
    244 H          -6.0639   -2.9120   -3.9143 H       1  UNL1        0.0265
    245 H          -7.4442   -3.1959   -4.9988 H       1  UNL1        0.0265
    246 H          -5.8648   -0.5655   -4.7542 H       1  UNL1        0.0265
    247 H          -7.2690   -0.8448   -5.8213 H       1  UNL1        0.0265
    248 H          -4.7876   -2.6498   -5.9463 H       1  UNL1        0.0265
    249 H          -6.3158   -2.8207   -6.8222 H       1  UNL1        0.0265
    250 H          -5.8423   -0.7142   -8.0789 H       1  UNL1        0.0265
    251 H          -4.5456   -1.8916   -8.2023 H       1  UNL1        0.0265
    252 H          -4.4161    0.6161   -6.4355 H       1  UNL1        0.0265
    253 H          -3.1687   -0.6425   -6.6950 H       1  UNL1        0.0265
    254 H          -3.0740   -0.2119   -9.0620 H       1  UNL1        0.0263
    255 H          -4.3865    0.9690   -8.9749 H       1  UNL1        0.0263
    256 H          -2.8826    2.5945   -8.5394 H       1  UNL1        0.0230
    257 H          -2.3092    1.6738   -7.0248 H       1  UNL1        0.0230
    258 H          -1.5941    1.3884   -8.6256 H       1  UNL1        0.0230
@<TRIPOS>BOND
     1     1     2    1
     2     2     3    1
     3     3     4    1
     4     4     5    1
     5     5     6    1
     6     6     7    1
     7     7     8    1
     8     8     9    1
     9     9    10    1
    10    10    11    1
    11    11    12    1
    12    12    13    1
    13    13    14    1
    14    14    15    1
    15    15    16    1
    16    16    17    1
    17    17    18    1
    18    18    19    2
    19    18    20    1
    20    20    21    1
    21    21    22    1
    22    22    23    1
    23    23    24    1
    24    25    24    1
    25    25    26    1
    26    25    27    2
    27    25    28    1
    28    28    29    1
    29    29    30    1
    30    30    31    1
    31    30    32    1
    32    32    33    1
    33    34    33    1
    34    34    35    1
    35    34    36    2
    36    34    37    1
    37    37    38    1
    38    38    39    1
    39    39    40    1
    40    40    41    1
    41    41    42    1
    42    42    43    2
    43    42    44    1
    44    44    45    1
    45    45    46    1
    46    46    47    1
    47    47    48    1
    48    48    49    1
    49    49    50    1
    50    50    51    1
    51    51    52    1
    52    52    53    1
    53    53    54    1
    54    54    55    1
    55    55    56    1
    56    56    57    1
    57    57    58    1
    58    58    59    1
    59    59    60    1
    60    39    61    1
    61    61    62    1
    62    62    63    2
    63    62    64    1
    64    64    65    1
    65    65    66    1
    66    66    67    1
    67    67    68    1
    68    68    69    1
    69    69    70    1
    70    70    71    1
    71    71    72    1
    72    72    73    1
    73    73    74    1
    74    74    75    1
    75    75    76    1
    76    76    77    1
    77    77    78    1
    78    78    79    1
    79    79    80    1
    80    22    81    1
    81    81    82    1
    82    82    83    2
    83    82    84    1
    84    84    85    1
    85    85    86    1
    86    86    87    1
    87    87    88    1
    88    88    89    1
    89    89    90    1
    90    90    91    1
    91    91    92    1
    92    92    93    1
    93    93    94    1
    94    94    95    1
    95    95    96    1
    96    96    97    1
    97    97    98    1
    98    98    99    1
    99    99   100    1
   100     1   101    1
   101     1   102    1
   102     1   103    1
   103     2   104    1
   104     2   105    1
   105     3   106    1
   106     3   107    1
   107     4   108    1
   108     4   109    1
   109     5   110    1
   110     5   111    1
   111     6   112    1
   112     6   113    1
   113     7   114    1
   114     7   115    1
   115     8   116    1
   116     8   117    1
   117     9   118    1
   118     9   119    1
   119    10   120    1
   120    10   121    1
   121    11   122    1
   122    11   123    1
   123    12   124    1
   124    12   125    1
   125    13   126    1
   126    13   127    1
   127    14   128    1
   128    14   129    1
   129    15   130    1
   130    15   131    1
   131    16   132    1
   132    16   133    1
   133    17   134    1
   134    17   135    1
   135    21   136    1
   136    21   137    1
   137    22   138    1
   138    23   139    1
   139    23   140    1
   140    26   141    1
   141    29   142    1
   142    29   143    1
   143    30   144    1
   144    31   145    1
   145    32   146    1
   146    32   147    1
   147    35   148    1
   148    38   149    1
   149    38   150    1
   150    39   151    1
   151    40   152    1
   152    40   153    1
   153    44   154    1
   154    44   155    1
   155    45   156    1
   156    45   157    1
   157    46   158    1
   158    46   159    1
   159    47   160    1
   160    47   161    1
   161    48   162    1
   162    48   163    1
   163    49   164    1
   164    49   165    1
   165    50   166    1
   166    50   167    1
   167    51   168    1
   168    51   169    1
   169    52   170    1
   170    52   171    1
   171    53   172    1
   172    53   173    1
   173    54   174    1
   174    54   175    1
   175    55   176    1
   176    55   177    1
   177    56   178    1
   178    56   179    1
   179    57   180    1
   180    57   181    1
   181    58   182    1
   182    58   183    1
   183    59   184    1
   184    59   185    1
   185    60   186    1
   186    60   187    1
   187    60   188    1
   188    64   189    1
   189    64   190    1
   190    65   191    1
   191    65   192    1
   192    66   193    1
   193    66   194    1
   194    67   195    1
   195    67   196    1
   196    68   197    1
   197    68   198    1
   198    69   199    1
   199    69   200    1
   200    70   201    1
   201    70   202    1
   202    71   203    1
   203    71   204    1
   204    72   205    1
   205    72   206    1
   206    73   207    1
   207    73   208    1
   208    74   209    1
   209    74   210    1
   210    75   211    1
   211    75   212    1
   212    76   213    1
   213    76   214    1
   214    77   215    1
   215    77   216    1
   216    78   217    1
   217    78   218    1
   218    79   219    1
   219    79   220    1
   220    80   221    1
   221    80   222    1
   222    80   223    1
   223    84   224    1
   224    84   225    1
   225    85   226    1
   226    85   227    1
   227    86   228    1
   228    86   229    1
   229    87   230    1
   230    87   231    1
   231    88   232    1
   232    88   233    1
   233    89   234    1
   234    89   235    1
   235    90   236    1
   236    90   237    1
   237    91   238    1
   238    91   239    1
   239    92   240    1
   240    92   241    1
   241    93   242    1
   242    93   243    1
   243    94   244    1
   244    94   245    1
   245    95   246    1
   246    95   247    1
   247    96   248    1
   248    96   249    1
   249    97   250    1
   250    97   251    1
   251    98   252    1
   252    98   253    1
   253    99   254    1
   254    99   255    1
   255   100   256    1
   256   100   257    1
   257   100   258    1
