
     RDKit          3D

 36 38  0  0  0  0  0  0  0  0999 V2000
    2.1670   -2.6283    2.4852 Cl  0  0  0  0  0  0  0  0  0  0  0  0
    2.1252   -0.9810    2.8851 C   0  0  0  0  0  0  0  0  0  0  0  0
    1.2149    0.0950    2.5001 C   0  0  0  0  0  0  0  0  0  0  0  0
    0.0679   -0.0755    1.5865 C   0  0  0  0  0  0  0  0  0  0  0  0
    0.4409   -0.0816    0.2571 O   0  0  0  0  0  0  0  0  0  0  0  0
   -0.6547   -0.1536   -0.5964 C   0  0  0  0  0  0  0  0  0  0  0  0
   -0.4632   -1.2157   -1.5956 C   0  0  0  0  0  0  0  0  0  0  0  0
   -0.3120   -2.5073   -0.9803 N   0  0  0  0  0  0  0  0  0  0  0  0
   -1.2994   -3.3667   -0.6681 C   0  0  0  0  0  0  0  0  0  0  0  0
   -0.8315   -4.5345   -0.1087 C   0  0  0  0  0  0  0  0  0  0  0  0
    0.5000   -4.3672   -0.0840 N   0  0  0  0  0  0  0  0  0  0  0  0
    0.7954   -3.1673   -0.6003 C   0  0  0  0  0  0  0  0  0  0  0  0
   -0.7307    1.2222   -1.2218 C   0  0  0  0  0  0  0  0  0  0  0  0
   -1.9367    1.7562   -1.6316 C   0  0  0  0  0  0  0  0  0  0  0  0
   -3.3824    0.7950   -1.4117 Cl  0  0  0  0  0  0  0  0  0  0  0  0
   -2.0455    3.0096   -2.2048 C   0  0  0  0  0  0  0  0  0  0  0  0
   -0.9027    3.7591   -2.3750 C   0  0  0  0  0  0  0  0  0  0  0  0
   -0.9253    5.3592   -3.0892 Cl  0  0  0  0  0  0  0  0  0  0  0  0
    0.3105    3.2778   -1.9882 C   0  0  0  0  0  0  0  0  0  0  0  0
    0.3953    2.0267   -1.4195 C   0  0  0  0  0  0  0  0  0  0  0  0
    1.4961    1.3148    3.0436 C   0  0  0  0  0  0  0  0  0  0  0  0
    2.5820    1.4941    3.9023 C   0  0  0  0  0  0  0  0  0  0  0  0
    3.3089   -0.2440    3.9693 S   0  0  0  0  0  0  0  0  0  0  0  0
   -0.4784   -1.0293    1.8330 H   0  0  0  0  0  0  0  0  0  0  0  0
   -0.6934    0.7155    1.7223 H   0  0  0  0  0  0  0  0  0  0  0  0
   -1.5473   -0.2563    0.0697 H   0  0  0  0  0  0  0  0  0  0  0  0
    0.4911   -1.0765   -2.1955 H   0  0  0  0  0  0  0  0  0  0  0  0
   -1.2329   -1.2262   -2.4067 H   0  0  0  0  0  0  0  0  0  0  0  0
   -2.3579   -3.1536   -0.8429 H   0  0  0  0  0  0  0  0  0  0  0  0
   -1.4103   -5.3917    0.2322 H   0  0  0  0  0  0  0  0  0  0  0  0
    1.8000   -2.7673   -0.7032 H   0  0  0  0  0  0  0  0  0  0  0  0
   -2.9771    3.4462   -2.5325 H   0  0  0  0  0  0  0  0  0  0  0  0
    1.2678    3.7689   -2.0698 H   0  0  0  0  0  0  0  0  0  0  0  0
    1.3209    1.5427   -1.0723 H   0  0  0  0  0  0  0  0  0  0  0  0
    0.9441    2.2260    2.8804 H   0  0  0  0  0  0  0  0  0  0  0  0
    2.9534    2.4146    4.4312 H   0  0  0  0  0  0  0  0  0  0  0  0
  1  2  1  0
  2  3  2  0
  3  4  1  0
  4  5  1  0
  5  6  1  0
  6  7  1  0
  7  8  1  0
  8  9  1  0
  9 10  2  0
 10 11  1  0
 11 12  2  0
  6 13  1  0
 13 14  2  0
 14 15  1  0
 14 16  1  0
 16 17  2  0
 17 18  1  0
 17 19  1  0
 19 20  2  0
  3 21  1  0
 21 22  2  0
 22 23  1  0
 23  2  1  0
 12  8  1  0
 20 13  1  0
  4 24  1  0
  4 25  1  0
  6 26  1  0
  7 27  1  0
  7 28  1  0
  9 29  1  0
 10 30  1  0
 12 31  1  0
 16 32  1  0
 19 33  1  0
 20 34  1  0
 21 35  1  0
 22 36  1  0
M  END
$$$$
