@<TRIPOS>MOLECULE
*****
 56 55 0 0 0
SMALL
GASTEIGER

@<TRIPOS>ATOM
      1 C          -6.2161    0.4449    2.5321 C.3     1  UNL1       -0.0653
      2 C          -5.3013   -0.5106    1.7536 C.3     1  UNL1       -0.0559
      3 C          -6.0160   -1.1489    0.6126 C.3     1  UNL1       -0.0530
      4 C          -5.2152   -2.0956   -0.2119 C.3     1  UNL1       -0.0496
      5 C          -4.0161   -1.5167   -0.8908 C.3     1  UNL1       -0.0348
      6 C          -4.4127   -0.4389   -1.8074 C.2     1  UNL1       -0.0876
      7 C          -4.1463    0.8545   -1.9362 C.2     1  UNL1       -0.0842
      8 C          -3.2190    1.6026   -1.0012 C.3     1  UNL1       -0.0165
      9 C          -2.1058    2.1650   -1.7816 C.2     1  UNL1       -0.0839
     10 C          -0.8024    1.9785   -1.7217 C.2     1  UNL1       -0.0839
     11 C          -0.3389    1.0208   -0.6752 C.3     1  UNL1       -0.0165
     12 C           0.5684    1.7340    0.2646 C.2     1  UNL1       -0.0842
     13 C           1.7998    1.2757    0.3808 C.2     1  UNL1       -0.0876
     14 C           2.5119    0.1559   -0.2466 C.3     1  UNL1       -0.0348
     15 C           2.9524   -0.7751    0.8995 C.3     1  UNL1       -0.0496
     16 C           3.6991   -1.9664    0.3475 C.3     1  UNL1       -0.0528
     17 C           4.9331   -1.5755   -0.4129 C.3     1  UNL1       -0.0525
     18 C           5.9330   -0.8226    0.4087 C.3     1  UNL1       -0.0430
     19 C           7.1573   -0.4639   -0.4419 C.3     1  UNL1        0.0448
     20 C           8.0963    0.2757    0.4377 C.2     1  UNL1        0.3047
     21 O           8.9484    0.9607    1.2817 O.3     1  UNL1       -0.4806
     22 O           9.1003    0.5688   -0.2666 O.2     1  UNL1       -0.2510
     23 H          -6.8244   -0.1311    3.2549 H       1  UNL1        0.0230
     24 H          -6.8821    0.9950    1.8154 H       1  UNL1        0.0230
     25 H          -5.5748    1.1313    3.1320 H       1  UNL1        0.0230
     26 H          -4.3643   -0.0265    1.4937 H       1  UNL1        0.0263
     27 H          -5.0165   -1.3406    2.4674 H       1  UNL1        0.0263
     28 H          -6.3974   -0.3072   -0.0332 H       1  UNL1        0.0265
     29 H          -6.9385   -1.6699    0.9462 H       1  UNL1        0.0265
     30 H          -4.9490   -2.9971    0.3826 H       1  UNL1        0.0268
     31 H          -5.8847   -2.4744   -1.0177 H       1  UNL1        0.0268
     32 H          -3.5295   -2.3550   -1.4415 H       1  UNL1        0.0307
     33 H          -3.2383   -1.1666   -0.1733 H       1  UNL1        0.0307
     34 H          -5.0994   -0.9010   -2.5350 H       1  UNL1        0.0569
     35 H          -4.6185    1.3917   -2.7504 H       1  UNL1        0.0572
     36 H          -2.9871    1.0497   -0.1084 H       1  UNL1        0.0350
     37 H          -3.8772    2.4693   -0.6599 H       1  UNL1        0.0350
     38 H          -2.4499    2.8701   -2.5531 H       1  UNL1        0.0572
     39 H          -0.0800    2.4596   -2.3610 H       1  UNL1        0.0572
     40 H           0.2031    0.2256   -1.2493 H       1  UNL1        0.0350
     41 H          -1.1495    0.5021   -0.1452 H       1  UNL1        0.0350
     42 H           0.2080    2.5787    0.8082 H       1  UNL1        0.0572
     43 H           2.4382    1.8327    1.0866 H       1  UNL1        0.0569
     44 H           3.4575    0.5823   -0.7072 H       1  UNL1        0.0307
     45 H           2.0094   -0.4021   -1.0244 H       1  UNL1        0.0307
     46 H           2.0494   -1.1617    1.4149 H       1  UNL1        0.0268
     47 H           3.5141   -0.1762    1.6209 H       1  UNL1        0.0268
     48 H           3.0229   -2.5040   -0.3164 H       1  UNL1        0.0265
     49 H           4.0098   -2.5758    1.2158 H       1  UNL1        0.0265
     50 H           4.7070   -1.0273   -1.3378 H       1  UNL1        0.0265
     51 H           5.4213   -2.5233   -0.7301 H       1  UNL1        0.0265
     52 H           6.3210   -1.4010    1.2536 H       1  UNL1        0.0270
     53 H           5.4727    0.1557    0.6830 H       1  UNL1        0.0270
     54 H           6.8639    0.1716   -1.2861 H       1  UNL1        0.0377
     55 H           7.6517   -1.3933   -0.8066 H       1  UNL1        0.0377
     56 H           8.6008    1.3871    2.1367 H       1  UNL1        0.2951
@<TRIPOS>BOND
     1     1     2    1
     2     2     3    1
     3     3     4    1
     4     4     5    1
     5     5     6    1
     6     6     7    2
     7     7     8    1
     8     8     9    1
     9     9    10    2
    10    10    11    1
    11    11    12    1
    12    12    13    2
    13    13    14    1
    14    14    15    1
    15    15    16    1
    16    16    17    1
    17    17    18    1
    18    18    19    1
    19    19    20    1
    20    20    21    1
    21    20    22    2
    22     1    23    1
    23     1    24    1
    24     1    25    1
    25     2    26    1
    26     2    27    1
    27     3    28    1
    28     3    29    1
    29     4    30    1
    30     4    31    1
    31     5    32    1
    32     5    33    1
    33     6    34    1
    34     7    35    1
    35     8    36    1
    36     8    37    1
    37     9    38    1
    38    10    39    1
    39    11    40    1
    40    11    41    1
    41    12    42    1
    42    13    43    1
    43    14    44    1
    44    14    45    1
    45    15    46    1
    46    15    47    1
    47    16    48    1
    48    16    49    1
    49    17    50    1
    50    17    51    1
    51    18    52    1
    52    18    53    1
    53    19    54    1
    54    19    55    1
    55    21    56    1
