
     RDKit          3D

 50 54  0  0  0  0  0  0  0  0999 V2000
    6.9593   -1.6469   -1.4149 C   0  0  0  0  0  0  0  0  0  0  0  0
    5.6080   -1.2740   -1.0261 N   0  0  0  0  0  0  0  0  0  0  0  0
    4.6765   -1.9880   -0.4514 N   0  0  0  0  0  0  0  0  0  0  0  0
    3.5600   -1.2991   -0.2506 C   0  0  0  0  0  0  0  0  0  0  0  0
    2.3446   -1.8384    0.3833 C   0  0  0  0  0  0  0  0  0  0  0  0
    2.3029   -3.1375    0.8269 C   0  0  0  0  0  0  0  0  0  0  0  0
    1.2267   -3.6796    1.4189 N   0  0  0  0  0  0  0  0  0  0  0  0
    0.1390   -2.9155    1.5851 C   0  0  0  0  0  0  0  0  0  0  0  0
   -1.0858   -3.0851    2.1143 N   0  0  0  0  0  0  0  0  0  0  0  0
   -1.8205   -1.9489    2.0240 C   0  0  0  0  0  0  0  0  0  0  0  0
   -1.0591   -0.9899    1.4128 C   0  0  0  0  0  0  0  0  0  0  0  0
   -1.4399    0.4006    1.0798 C   0  0  0  0  0  0  0  0  0  0  0  0
   -0.7500    1.3637    1.4694 O   0  0  0  0  0  0  0  0  0  0  0  0
   -2.5913    0.6776    0.3125 N   0  0  0  0  0  0  0  0  0  0  0  0
   -3.0689    1.9788   -0.0896 C   0  0  1  0  0  0  0  0  0  0  0  0
   -3.4672    1.9797   -1.5627 C   0  0  0  0  0  0  0  0  0  0  0  0
   -4.0597    0.7461   -1.7828 O   0  0  0  0  0  0  0  0  0  0  0  0
   -5.2217    0.5053   -1.0964 C   0  0  0  0  0  0  0  0  0  0  0  0
   -5.4382    1.2036    0.1799 C   0  0  1  0  0  0  0  0  0  0  0  0
   -5.5722    0.1859    1.2375 N   0  0  0  0  0  0  0  0  0  0  0  0
   -4.4027    2.1600    0.6436 C   0  0  0  0  0  0  0  0  0  0  0  0
    0.1551   -1.5845    1.1410 C   0  0  0  0  0  0  0  0  0  0  0  0
    1.2479   -1.0522    0.5463 N   0  0  0  0  0  0  0  0  0  0  0  0
    3.7717   -0.0346   -0.7298 C   0  0  0  0  0  0  0  0  0  0  0  0
    2.9562    1.0658   -0.7731 C   0  0  0  0  0  0  0  0  0  0  0  0
    3.4332    2.2482   -1.3267 C   0  0  0  0  0  0  0  0  0  0  0  0
    4.7387    2.2576   -1.8183 C   0  0  0  0  0  0  0  0  0  0  0  0
    5.2035    3.4331   -2.3609 F   0  0  0  0  0  0  0  0  0  0  0  0
    5.5265    1.1356   -1.7582 C   0  0  0  0  0  0  0  0  0  0  0  0
    5.0706   -0.0530   -1.2107 C   0  0  0  0  0  0  0  0  0  0  0  0
    7.4971   -2.2074   -0.6143 H   0  0  0  0  0  0  0  0  0  0  0  0
    6.8463   -2.3857   -2.2565 H   0  0  0  0  0  0  0  0  0  0  0  0
    7.5526   -0.7876   -1.7522 H   0  0  0  0  0  0  0  0  0  0  0  0
    3.2229   -3.7295    0.6670 H   0  0  0  0  0  0  0  0  0  0  0  0
   -1.4162   -3.9855    2.5389 H   0  0  0  0  0  0  0  0  0  0  0  0
   -2.8269   -1.8491    2.3817 H   0  0  0  0  0  0  0  0  0  0  0  0
   -3.1467   -0.1574    0.0050 H   0  0  0  0  0  0  0  0  0  0  0  0
   -2.3985    2.8063    0.1314 H   0  0  0  0  0  0  0  0  0  0  0  0
   -4.2591    2.7601   -1.6808 H   0  0  0  0  0  0  0  0  0  0  0  0
   -2.6259    2.0975   -2.2439 H   0  0  0  0  0  0  0  0  0  0  0  0
   -6.0776    0.7427   -1.7901 H   0  0  0  0  0  0  0  0  0  0  0  0
   -5.2845   -0.6197   -0.9781 H   0  0  0  0  0  0  0  0  0  0  0  0
   -6.4383    1.7317    0.1879 H   0  0  0  0  0  0  0  0  0  0  0  0
   -6.2801   -0.5073    0.9815 H   0  0  0  0  0  0  0  0  0  0  0  0
   -5.6716    0.6093    2.1644 H   0  0  0  0  0  0  0  0  0  0  0  0
   -4.1784    2.0836    1.7296 H   0  0  0  0  0  0  0  0  0  0  0  0
   -4.6964    3.2213    0.4532 H   0  0  0  0  0  0  0  0  0  0  0  0
    1.9257    1.0533   -0.3845 H   0  0  0  0  0  0  0  0  0  0  0  0
    2.7857    3.1057   -1.3558 H   0  0  0  0  0  0  0  0  0  0  0  0
    6.5267    1.2032   -2.1519 H   0  0  0  0  0  0  0  0  0  0  0  0
  1  2  1  0
  2  3  1  0
  3  4  2  0
  4  5  1  0
  5  6  2  0
  6  7  1  0
  7  8  2  0
  8  9  1  0
  9 10  1  0
 10 11  2  0
 11 12  1  0
 12 13  2  0
 12 14  1  0
 14 15  1  0
 15 16  1  0
 16 17  1  0
 17 18  1  0
 18 19  1  0
 19 20  1  0
 19 21  1  0
 11 22  1  0
 22 23  2  0
  4 24  1  0
 24 25  2  0
 25 26  1  0
 26 27  2  0
 27 28  1  0
 27 29  1  0
 29 30  2  0
 30  2  1  0
 23  5  1  0
 30 24  1  0
 22  8  1  0
 21 15  1  0
  1 31  1  0
  1 32  1  0
  1 33  1  0
  6 34  1  0
  9 35  1  0
 10 36  1  0
 14 37  1  0
 15 38  1  6
 16 39  1  0
 16 40  1  0
 18 41  1  0
 18 42  1  0
 19 43  1  6
 20 44  1  0
 20 45  1  0
 21 46  1  0
 21 47  1  0
 25 48  1  0
 26 49  1  0
 29 50  1  0
M  END
$$$$
