@<TRIPOS>MOLECULE
*****
 50 54 0 0 0
SMALL
GASTEIGER

@<TRIPOS>ATOM
      1 C           6.9593   -1.6469   -1.4149 C.3     1  UNL1        0.0309
      2 N           5.6080   -1.2740   -1.0261 N.ar    1  UNL1       -0.2660
      3 N           4.6765   -1.9880   -0.4514 N.ar    1  UNL1       -0.1687
      4 C           3.5600   -1.2991   -0.2506 C.ar    1  UNL1        0.1201
      5 C           2.3446   -1.8384    0.3833 C.ar    1  UNL1        0.1104
      6 C           2.3029   -3.1375    0.8269 C.ar    1  UNL1        0.0575
      7 N           1.2267   -3.6796    1.4189 N.ar    1  UNL1       -0.2338
      8 C           0.1390   -2.9155    1.5851 C.ar    1  UNL1        0.1574
      9 N          -1.0858   -3.0851    2.1143 N.ar    1  UNL1       -0.3438
     10 C          -1.8205   -1.9489    2.0240 C.ar    1  UNL1        0.0178
     11 C          -1.0591   -0.9899    1.4128 C.ar    1  UNL1        0.0815
     12 C          -1.4399    0.4006    1.0798 C.2     1  UNL1        0.2479
     13 O          -0.7500    1.3637    1.4694 O.2     1  UNL1       -0.2701
     14 N          -2.5913    0.6776    0.3125 N.am    1  UNL1       -0.3061
     15 C          -3.0689    1.9788   -0.0896 C.3     1  UNL1        0.0482
     16 C          -3.4672    1.9797   -1.5627 C.3     1  UNL1        0.0661
     17 O          -4.0597    0.7461   -1.7828 O.3     1  UNL1       -0.3764
     18 C          -5.2217    0.5053   -1.0964 C.3     1  UNL1        0.0629
     19 C          -5.4382    1.2036    0.1799 C.3     1  UNL1        0.0302
     20 N          -5.5722    0.1859    1.2375 N.3     1  UNL1       -0.3253
     21 C          -4.4027    2.1600    0.6436 C.3     1  UNL1       -0.0150
     22 C           0.1551   -1.5845    1.1410 C.ar    1  UNL1        0.1202
     23 N           1.2479   -1.0522    0.5463 N.ar    1  UNL1       -0.2397
     24 C           3.7717   -0.0346   -0.7298 C.ar    1  UNL1        0.0293
     25 C           2.9562    1.0658   -0.7731 C.ar    1  UNL1       -0.0477
     26 C           3.4332    2.2482   -1.3267 C.ar    1  UNL1       -0.0257
     27 C           4.7387    2.2576   -1.8183 C.ar    1  UNL1        0.1254
     28 F           5.2035    3.4331   -2.3609 F       1  UNL1       -0.2054
     29 C           5.5265    1.1356   -1.7582 C.ar    1  UNL1       -0.0008
     30 C           5.0706   -0.0530   -1.2107 C.ar    1  UNL1        0.0720
     31 H           7.4971   -2.2074   -0.6143 H       1  UNL1        0.0473
     32 H           6.8463   -2.3857   -2.2565 H       1  UNL1        0.0473
     33 H           7.5526   -0.7876   -1.7522 H       1  UNL1        0.0473
     34 H           3.2229   -3.7295    0.6670 H       1  UNL1        0.0853
     35 H          -1.4162   -3.9855    2.5389 H       1  UNL1        0.1668
     36 H          -2.8269   -1.8491    2.3817 H       1  UNL1        0.0816
     37 H          -3.1467   -0.1574    0.0050 H       1  UNL1        0.1494
     38 H          -2.3985    2.8063    0.1314 H       1  UNL1        0.0521
     39 H          -4.2591    2.7601   -1.6808 H       1  UNL1        0.0578
     40 H          -2.6259    2.0975   -2.2439 H       1  UNL1        0.0578
     41 H          -6.0776    0.7427   -1.7901 H       1  UNL1        0.0575
     42 H          -5.2845   -0.6197   -0.9781 H       1  UNL1        0.0575
     43 H          -6.4383    1.7317    0.1879 H       1  UNL1        0.0481
     44 H          -6.2801   -0.5073    0.9815 H       1  UNL1        0.1185
     45 H          -5.6716    0.6093    2.1644 H       1  UNL1        0.1185
     46 H          -4.1784    2.0836    1.7296 H       1  UNL1        0.0299
     47 H          -4.6964    3.2213    0.4532 H       1  UNL1        0.0299
     48 H           1.9257    1.0533   -0.3845 H       1  UNL1        0.0626
     49 H           2.7857    3.1057   -1.3558 H       1  UNL1        0.0646
     50 H           6.5267    1.2032   -2.1519 H       1  UNL1        0.0667
@<TRIPOS>BOND
     1     1     2    1
     2     2     3   ar
     3     3     4   ar
     4     4     5    1
     5     5     6   ar
     6     6     7   ar
     7     7     8   ar
     8     8     9   ar
     9     9    10   ar
    10    10    11   ar
    11    11    12    1
    12    12    13    2
    13    12    14   am
    14    14    15    1
    15    15    16    1
    16    16    17    1
    17    17    18    1
    18    18    19    1
    19    19    20    1
    20    19    21    1
    21    11    22   ar
    22    22    23   ar
    23     4    24   ar
    24    24    25   ar
    25    25    26   ar
    26    26    27   ar
    27    27    28    1
    28    27    29   ar
    29    29    30   ar
    30    30     2   ar
    31    23     5   ar
    32    30    24   ar
    33    22     8   ar
    34    21    15    1
    35     1    31    1
    36     1    32    1
    37     1    33    1
    38     6    34    1
    39     9    35    1
    40    10    36    1
    41    14    37    1
    42    15    38    1
    43    16    39    1
    44    16    40    1
    45    18    41    1
    46    18    42    1
    47    19    43    1
    48    20    44    1
    49    20    45    1
    50    21    46    1
    51    21    47    1
    52    25    48    1
    53    26    49    1
    54    29    50    1
