@<TRIPOS>MOLECULE
*****
 53 57 0 0 0
SMALL
GASTEIGER

@<TRIPOS>ATOM
      1 C          -7.5313   -1.0186    1.8396 C.3     1  UNL1        0.0001
      2 N          -6.2441   -0.3493    1.8172 N.am    1  UNL1       -0.3178
      3 C          -5.2546   -0.5954    0.8476 C.2     1  UNL1        0.2219
      4 O          -5.4626   -1.4344   -0.0639 O.2     1  UNL1       -0.2751
      5 C          -3.9734    0.1635    0.9415 C.3     1  UNL1        0.0803
      6 C          -3.2147   -0.0292    2.1791 C.3     1  UNL1       -0.0304
      7 C          -2.6787   -0.4970    0.8233 C.3     1  UNL1       -0.0001
      8 C          -1.6991    0.4851    0.2302 C.3     1  UNL1        0.0695
      9 N          -1.1932    0.0306   -1.0555 N.ar    1  UNL1       -0.3089
     10 C          -1.9073   -0.2523   -2.1565 C.ar    1  UNL1        0.0987
     11 N          -1.0744   -0.6452   -3.1530 N.ar    1  UNL1       -0.2306
     12 C           0.1627   -0.6068   -2.6707 C.ar    1  UNL1        0.1475
     13 C           1.4106   -0.8930   -3.2087 C.ar    1  UNL1        0.1508
     14 N           1.5178   -1.3306   -4.5580 N.pl3   1  UNL1       -0.3303
     15 C           2.8488   -1.6131   -5.0605 C.3     1  UNL1       -0.0010
     16 N           2.4742   -0.7381   -2.4090 N.ar    1  UNL1       -0.2031
     17 C           2.4190   -0.3323   -1.1446 C.ar    1  UNL1        0.2093
     18 C           3.5997   -0.1812   -0.3208 C.1     1  UNL1       -0.0210
     19 C           4.5738   -0.0649    0.3813 C.1     1  UNL1       -0.0579
     20 C           5.7460    0.0569    1.2075 C.ar    1  UNL1        0.0283
     21 C           6.5233    1.2078    1.1957 C.ar    1  UNL1       -0.0434
     22 C           7.6465    1.3264    1.9863 C.ar    1  UNL1       -0.0224
     23 C           8.0434    0.3061    2.8211 C.ar    1  UNL1        0.1585
     24 F           9.1646    0.4287    3.6080 F       1  UNL1       -0.2025
     25 C           7.2818   -0.8425    2.8435 C.ar    1  UNL1        0.1596
     26 F           7.6732   -1.8545    3.6699 F       1  UNL1       -0.2024
     27 C           6.1604   -0.9530    2.0500 C.ar    1  UNL1       -0.0082
     28 N           1.2219   -0.0461   -0.5917 N.ar    1  UNL1       -0.2004
     29 C           0.1131   -0.1868   -1.3599 C.ar    1  UNL1        0.1669
     30 C          -2.4337    1.7811    0.0637 C.3     1  UNL1        0.1030
     31 O          -2.0833    2.7407    1.0082 O.3     1  UNL1       -0.3871
     32 C          -3.8895    1.4186    0.1409 C.3     1  UNL1        0.0972
     33 O          -4.5456    2.4913    0.7548 O.3     1  UNL1       -0.3881
     34 H          -8.2933   -0.2403    2.0501 H       1  UNL1        0.0426
     35 H          -7.5563   -1.8223    2.6034 H       1  UNL1        0.0426
     36 H          -7.7019   -1.4269    0.8235 H       1  UNL1        0.0426
     37 H          -6.0636    0.3409    2.5606 H       1  UNL1        0.1484
     38 H          -3.4888   -0.8741    2.8337 H       1  UNL1        0.0280
     39 H          -2.6933    0.7811    2.7085 H       1  UNL1        0.0280
     40 H          -2.5763   -1.5661    0.6270 H       1  UNL1        0.0333
     41 H          -0.8398    0.6790    0.9053 H       1  UNL1        0.0558
     42 H          -2.9968   -0.1776   -2.2383 H       1  UNL1        0.1029
     43 H           0.7016   -1.4489   -5.1699 H       1  UNL1        0.1472
     44 H           2.9140   -1.1265   -6.0657 H       1  UNL1        0.0426
     45 H           3.0190   -2.7104   -5.1330 H       1  UNL1        0.0426
     46 H           3.6259   -1.1402   -4.4254 H       1  UNL1        0.0426
     47 H           6.2029    2.0011    0.5377 H       1  UNL1        0.0631
     48 H           8.2567    2.2394    1.9720 H       1  UNL1        0.0647
     49 H           5.5554   -1.8686    2.0697 H       1  UNL1        0.0659
     50 H          -2.2588    2.2488   -0.9364 H       1  UNL1        0.0640
     51 H          -2.2036    3.6612    0.6865 H       1  UNL1        0.2100
     52 H          -4.3089    1.3005   -0.8818 H       1  UNL1        0.0630
     53 H          -4.6893    3.1777    0.0388 H       1  UNL1        0.2099
@<TRIPOS>BOND
     1     1     2    1
     2     2     3   am
     3     3     4    2
     4     5     3    1
     5     5     6    1
     6     6     7    1
     7     7     8    1
     8     8     9    1
     9     9    10   ar
    10    10    11   ar
    11    11    12   ar
    12    12    13   ar
    13    13    14    1
    14    14    15    1
    15    13    16   ar
    16    16    17   ar
    17    17    18    1
    18    18    19    3
    19    19    20    1
    20    20    21   ar
    21    21    22   ar
    22    22    23   ar
    23    23    24    1
    24    23    25   ar
    25    25    26    1
    26    25    27   ar
    27    17    28   ar
    28    28    29   ar
    29     8    30    1
    30    30    31    1
    31    30    32    1
    32    32    33    1
    33     7     5    1
    34    29     9   ar
    35    32     5    1
    36    29    12   ar
    37    27    20   ar
    38     1    34    1
    39     1    35    1
    40     1    36    1
    41     2    37    1
    42     6    38    1
    43     6    39    1
    44     7    40    1
    45     8    41    1
    46    10    42    1
    47    14    43    1
    48    15    44    1
    49    15    45    1
    50    15    46    1
    51    21    47    1
    52    22    48    1
    53    27    49    1
    54    30    50    1
    55    31    51    1
    56    32    52    1
    57    33    53    1
