
     RDKit          3D

 53 57  0  0  0  0  0  0  0  0999 V2000
   -7.5313   -1.0186    1.8396 C   0  0  0  0  0  0  0  0  0  0  0  0
   -6.2441   -0.3493    1.8172 N   0  0  0  0  0  0  0  0  0  0  0  0
   -5.2546   -0.5954    0.8476 C   0  0  0  0  0  0  0  0  0  0  0  0
   -5.4626   -1.4344   -0.0639 O   0  0  0  0  0  0  0  0  0  0  0  0
   -3.9734    0.1635    0.9415 C   0  0  1  0  0  0  0  0  0  0  0  0
   -3.2147   -0.0292    2.1791 C   0  0  0  0  0  0  0  0  0  0  0  0
   -2.6787   -0.4970    0.8233 C   0  0  2  0  0  0  0  0  0  0  0  0
   -1.6991    0.4851    0.2302 C   0  0  1  0  0  0  0  0  0  0  0  0
   -1.1932    0.0306   -1.0555 N   0  0  0  0  0  0  0  0  0  0  0  0
   -1.9073   -0.2523   -2.1565 C   0  0  0  0  0  0  0  0  0  0  0  0
   -1.0744   -0.6452   -3.1530 N   0  0  0  0  0  0  0  0  0  0  0  0
    0.1627   -0.6068   -2.6707 C   0  0  0  0  0  0  0  0  0  0  0  0
    1.4106   -0.8930   -3.2087 C   0  0  0  0  0  0  0  0  0  0  0  0
    1.5178   -1.3306   -4.5580 N   0  0  0  0  0  0  0  0  0  0  0  0
    2.8488   -1.6131   -5.0605 C   0  0  0  0  0  0  0  0  0  0  0  0
    2.4742   -0.7381   -2.4090 N   0  0  0  0  0  0  0  0  0  0  0  0
    2.4190   -0.3323   -1.1446 C   0  0  0  0  0  0  0  0  0  0  0  0
    3.5997   -0.1812   -0.3208 C   0  0  0  0  0  0  0  0  0  0  0  0
    4.5738   -0.0649    0.3813 C   0  0  0  0  0  0  0  0  0  0  0  0
    5.7460    0.0569    1.2075 C   0  0  0  0  0  0  0  0  0  0  0  0
    6.5233    1.2078    1.1957 C   0  0  0  0  0  0  0  0  0  0  0  0
    7.6465    1.3264    1.9863 C   0  0  0  0  0  0  0  0  0  0  0  0
    8.0434    0.3061    2.8211 C   0  0  0  0  0  0  0  0  0  0  0  0
    9.1646    0.4287    3.6080 F   0  0  0  0  0  0  0  0  0  0  0  0
    7.2818   -0.8425    2.8435 C   0  0  0  0  0  0  0  0  0  0  0  0
    7.6732   -1.8545    3.6699 F   0  0  0  0  0  0  0  0  0  0  0  0
    6.1604   -0.9530    2.0500 C   0  0  0  0  0  0  0  0  0  0  0  0
    1.2219   -0.0461   -0.5917 N   0  0  0  0  0  0  0  0  0  0  0  0
    0.1131   -0.1868   -1.3599 C   0  0  0  0  0  0  0  0  0  0  0  0
   -2.4337    1.7811    0.0637 C   0  0  2  0  0  0  0  0  0  0  0  0
   -2.0833    2.7407    1.0082 O   0  0  0  0  0  0  0  0  0  0  0  0
   -3.8895    1.4186    0.1409 C   0  0  2  0  0  0  0  0  0  0  0  0
   -4.5456    2.4913    0.7548 O   0  0  0  0  0  0  0  0  0  0  0  0
   -8.2933   -0.2403    2.0501 H   0  0  0  0  0  0  0  0  0  0  0  0
   -7.5563   -1.8223    2.6034 H   0  0  0  0  0  0  0  0  0  0  0  0
   -7.7019   -1.4269    0.8235 H   0  0  0  0  0  0  0  0  0  0  0  0
   -6.0636    0.3409    2.5606 H   0  0  0  0  0  0  0  0  0  0  0  0
   -3.4888   -0.8741    2.8337 H   0  0  0  0  0  0  0  0  0  0  0  0
   -2.6933    0.7811    2.7085 H   0  0  0  0  0  0  0  0  0  0  0  0
   -2.5763   -1.5661    0.6270 H   0  0  0  0  0  0  0  0  0  0  0  0
   -0.8398    0.6790    0.9053 H   0  0  0  0  0  0  0  0  0  0  0  0
   -2.9968   -0.1776   -2.2383 H   0  0  0  0  0  0  0  0  0  0  0  0
    0.7016   -1.4489   -5.1699 H   0  0  0  0  0  0  0  0  0  0  0  0
    2.9140   -1.1265   -6.0657 H   0  0  0  0  0  0  0  0  0  0  0  0
    3.0190   -2.7104   -5.1330 H   0  0  0  0  0  0  0  0  0  0  0  0
    3.6259   -1.1402   -4.4254 H   0  0  0  0  0  0  0  0  0  0  0  0
    6.2029    2.0011    0.5377 H   0  0  0  0  0  0  0  0  0  0  0  0
    8.2567    2.2394    1.9720 H   0  0  0  0  0  0  0  0  0  0  0  0
    5.5554   -1.8686    2.0697 H   0  0  0  0  0  0  0  0  0  0  0  0
   -2.2588    2.2488   -0.9364 H   0  0  0  0  0  0  0  0  0  0  0  0
   -2.2036    3.6612    0.6865 H   0  0  0  0  0  0  0  0  0  0  0  0
   -4.3089    1.3005   -0.8818 H   0  0  0  0  0  0  0  0  0  0  0  0
   -4.6893    3.1777    0.0388 H   0  0  0  0  0  0  0  0  0  0  0  0
  1  2  1  0
  2  3  1  0
  3  4  2  0
  5  3  1  1
  5  6  1  0
  6  7  1  0
  7  8  1  0
  8  9  1  0
  9 10  1  0
 10 11  2  0
 11 12  1  0
 12 13  2  0
 13 14  1  0
 14 15  1  0
 13 16  1  0
 16 17  2  0
 17 18  1  0
 18 19  3  0
 19 20  1  0
 20 21  2  0
 21 22  1  0
 22 23  2  0
 23 24  1  0
 23 25  1  0
 25 26  1  0
 25 27  2  0
 17 28  1  0
 28 29  2  0
  8 30  1  0
 30 31  1  0
 30 32  1  0
 32 33  1  0
  7  5  1  0
 29  9  1  0
 32  5  1  0
 29 12  1  0
 27 20  1  0
  1 34  1  0
  1 35  1  0
  1 36  1  0
  2 37  1  0
  6 38  1  0
  6 39  1  0
  7 40  1  1
  8 41  1  1
 10 42  1  0
 14 43  1  0
 15 44  1  0
 15 45  1  0
 15 46  1  0
 21 47  1  0
 22 48  1  0
 27 49  1  0
 30 50  1  6
 31 51  1  0
 32 52  1  6
 33 53  1  0
M  END
$$$$
