
     RDKit          3D

 37 40  0  0  0  0  0  0  0  0999 V2000
    2.1770   -4.1743    1.6890 N   0  0  0  0  0  0  0  0  0  0  0  0
    2.3367   -2.7336    1.4669 C   0  0  0  0  0  0  0  0  0  0  0  0
    1.9320   -1.8239    0.9052 N   0  0  0  0  0  0  0  0  0  0  0  0
    2.2852   -0.5643    0.8890 C   0  0  0  0  0  0  0  0  0  0  0  0
    1.6599    0.5174    0.1011 C   0  0  0  0  0  0  0  0  0  0  0  0
    2.0926    1.7924    0.1480 N   0  0  0  0  0  0  0  0  0  0  0  0
    1.3353    2.5745   -0.6743 C   0  0  0  0  0  0  0  0  0  0  0  0
    1.3568    3.9113   -0.9847 C   0  0  0  0  0  0  0  0  0  0  0  0
    0.4527    4.4624   -1.8723 C   0  0  0  0  0  0  0  0  0  0  0  0
   -0.4890    3.6379   -2.4535 C   0  0  0  0  0  0  0  0  0  0  0  0
   -1.6203    4.3663   -3.5738 Cl  0  0  0  0  0  0  0  0  0  0  0  0
   -0.5353    2.2693   -2.1560 C   0  0  0  0  0  0  0  0  0  0  0  0
    0.3855    1.7806   -1.2697 C   0  0  0  0  0  0  0  0  0  0  0  0
    0.6057    0.4914   -0.7699 C   0  0  0  0  0  0  0  0  0  0  0  0
   -0.3125   -0.9090   -1.1897 S   0  0  0  0  0  6  0  0  0  0  0  0
    0.6119   -2.0870   -1.3042 O   0  0  0  0  0  0  0  0  0  0  0  0
   -0.8071   -0.6649   -2.6299 O   0  0  0  0  0  0  0  0  0  0  0  0
   -1.6713   -1.1950   -0.1756 C   0  0  0  0  0  0  0  0  0  0  0  0
   -1.6052   -2.0124    0.9225 C   0  0  0  0  0  0  0  0  0  0  0  0
   -2.7346   -2.2206    1.7317 C   0  0  0  0  0  0  0  0  0  0  0  0
   -3.9316   -1.6026    1.4312 C   0  0  0  0  0  0  0  0  0  0  0  0
   -4.0000   -0.7862    0.3353 C   0  0  0  0  0  0  0  0  0  0  0  0
   -2.8788   -0.5990   -0.4411 C   0  0  0  0  0  0  0  0  0  0  0  0
    3.4106   -0.3276    1.7688 C   0  0  0  0  0  0  0  0  0  0  0  0
    3.7439   -1.9088    2.4364 S   0  0  0  0  0  0  0  0  0  0  0  0
    1.3881   -4.5067    2.3033 H   0  0  0  0  0  0  0  0  0  0  0  0
    2.8431   -4.8222    1.2363 H   0  0  0  0  0  0  0  0  0  0  0  0
    2.8755    2.2018    0.6990 H   0  0  0  0  0  0  0  0  0  0  0  0
    2.1007    4.5626   -0.5255 H   0  0  0  0  0  0  0  0  0  0  0  0
    0.4966    5.5357   -2.0994 H   0  0  0  0  0  0  0  0  0  0  0  0
   -1.2755    1.6350   -2.6161 H   0  0  0  0  0  0  0  0  0  0  0  0
   -0.7140   -2.5356    1.2277 H   0  0  0  0  0  0  0  0  0  0  0  0
   -2.7070   -2.8596    2.6014 H   0  0  0  0  0  0  0  0  0  0  0  0
   -4.8065   -1.7802    2.0806 H   0  0  0  0  0  0  0  0  0  0  0  0
   -4.9560   -0.3150    0.1260 H   0  0  0  0  0  0  0  0  0  0  0  0
   -2.9463    0.0473   -1.3024 H   0  0  0  0  0  0  0  0  0  0  0  0
    3.9015    0.6424    1.9387 H   0  0  0  0  0  0  0  0  0  0  0  0
  1  2  1  0
  2  3  2  0
  3  4  1  0
  4  5  1  0
  5  6  1  0
  6  7  1  0
  7  8  2  0
  8  9  1  0
  9 10  2  0
 10 11  1  0
 10 12  1  0
 12 13  2  0
 13 14  1  0
 14 15  1  0
 15 16  2  0
 15 17  2  0
 15 18  1  0
 18 19  2  0
 19 20  1  0
 20 21  2  0
 21 22  1  0
 22 23  2  0
  4 24  2  0
 24 25  1  0
 25  2  1  0
 14  5  2  0
 23 18  1  0
 13  7  1  0
  1 26  1  0
  1 27  1  0
  6 28  1  0
  8 29  1  0
  9 30  1  0
 12 31  1  0
 19 32  1  0
 20 33  1  0
 21 34  1  0
 22 35  1  0
 23 36  1  0
 24 37  1  0
M  END
$$$$
