@<TRIPOS>MOLECULE
*****
 37 40 0 0 0
SMALL
GASTEIGER

@<TRIPOS>ATOM
      1 N           2.1770   -4.1743    1.6890 N.pl3   1  UNL1       -0.3375
      2 C           2.3367   -2.7336    1.4669 C.ar    1  UNL1        0.1562
      3 N           1.9320   -1.8239    0.9052 N.ar    1  UNL1       -0.2236
      4 C           2.2852   -0.5643    0.8890 C.ar    1  UNL1        0.0982
      5 C           1.6599    0.5174    0.1011 C.ar    1  UNL1        0.0921
      6 N           2.0926    1.7924    0.1480 N.ar    1  UNL1       -0.3514
      7 C           1.3353    2.5745   -0.6743 C.ar    1  UNL1        0.0489
      8 C           1.3568    3.9113   -0.9847 C.ar    1  UNL1       -0.0363
      9 C           0.4527    4.4624   -1.8723 C.ar    1  UNL1       -0.0414
     10 C          -0.4890    3.6379   -2.4535 C.ar    1  UNL1        0.0417
     11 CL         -1.6203    4.3663   -3.5738 Cl      1  UNL1       -0.0835
     12 C          -0.5353    2.2693   -2.1560 C.ar    1  UNL1       -0.0324
     13 C           0.3855    1.7806   -1.2697 C.ar    1  UNL1        0.0270
     14 C           0.6057    0.4914   -0.7699 C.ar    1  UNL1        0.1279
     15 S          -0.3125   -0.9090   -1.1897 S.O2    1  UNL1        0.0277
     16 O           0.6119   -2.0870   -1.3042 O.2     1  UNL1       -0.1642
     17 O          -0.8071   -0.6649   -2.6299 O.2     1  UNL1       -0.1642
     18 C          -1.6713   -1.1950   -0.1756 C.ar    1  UNL1        0.0937
     19 C          -1.6052   -2.0124    0.9225 C.ar    1  UNL1       -0.0365
     20 C          -2.7346   -2.2206    1.7317 C.ar    1  UNL1       -0.0599
     21 C          -3.9316   -1.6026    1.4312 C.ar    1  UNL1       -0.0616
     22 C          -4.0000   -0.7862    0.3353 C.ar    1  UNL1       -0.0599
     23 C          -2.8788   -0.5990   -0.4411 C.ar    1  UNL1       -0.0365
     24 C           3.4106   -0.3276    1.7688 C.ar    1  UNL1        0.0064
     25 S           3.7439   -1.9088    2.4364 S.2     1  UNL1       -0.0604
     26 H           1.3881   -4.5067    2.3033 H       1  UNL1        0.1442
     27 H           2.8431   -4.8222    1.2363 H       1  UNL1        0.1442
     28 H           2.8755    2.2018    0.6990 H       1  UNL1        0.1660
     29 H           2.1007    4.5626   -0.5255 H       1  UNL1        0.0639
     30 H           0.4966    5.5357   -2.0994 H       1  UNL1        0.0633
     31 H          -1.2755    1.6350   -2.6161 H       1  UNL1        0.0639
     32 H          -0.7140   -2.5356    1.2277 H       1  UNL1        0.0637
     33 H          -2.7070   -2.8596    2.6014 H       1  UNL1        0.0618
     34 H          -4.8065   -1.7802    2.0806 H       1  UNL1        0.0618
     35 H          -4.9560   -0.3150    0.1260 H       1  UNL1        0.0618
     36 H          -2.9463    0.0473   -1.3024 H       1  UNL1        0.0637
     37 H           3.9015    0.6424    1.9387 H       1  UNL1        0.0716
@<TRIPOS>BOND
     1     1     2    1
     2     2     3   ar
     3     3     4   ar
     4     4     5    1
     5     5     6   ar
     6     6     7   ar
     7     7     8   ar
     8     8     9   ar
     9     9    10   ar
    10    10    11    1
    11    10    12   ar
    12    12    13   ar
    13    13    14   ar
    14    14    15    1
    15    15    16    2
    16    15    17    2
    17    15    18    1
    18    18    19   ar
    19    19    20   ar
    20    20    21   ar
    21    21    22   ar
    22    22    23   ar
    23     4    24   ar
    24    24    25   ar
    25    25     2   ar
    26    14     5   ar
    27    23    18   ar
    28    13     7   ar
    29     1    26    1
    30     1    27    1
    31     6    28    1
    32     8    29    1
    33     9    30    1
    34    12    31    1
    35    19    32    1
    36    20    33    1
    37    21    34    1
    38    22    35    1
    39    23    36    1
    40    24    37    1
