
     RDKit          3D

 36 38  0  0  0  0  0  0  0  0999 V2000
    1.0347    3.6481    0.3611 C   0  0  0  0  0  0  0  0  0  0  0  0
    1.5617    2.2478    0.3188 C   0  0  0  0  0  0  0  0  0  0  0  0
    2.8016    2.1635    0.1341 O   0  0  0  0  0  0  0  0  0  0  0  0
    0.6790    1.1614    0.4810 N   0  0  0  0  0  0  0  0  0  0  0  0
   -0.7320    1.3003    0.6656 N   0  0  0  0  0  0  0  0  0  0  0  0
   -1.3180    0.2458    0.1499 C   0  0  0  0  0  0  0  0  0  0  0  0
   -2.7369   -0.0641    0.0956 C   0  0  0  0  0  0  0  0  0  0  0  0
   -3.2189   -1.2166   -0.4803 C   0  0  0  0  0  0  0  0  0  0  0  0
   -4.5632   -1.5241   -0.5391 C   0  0  0  0  0  0  0  0  0  0  0  0
   -5.4487   -0.6325    0.0047 C   0  0  0  0  0  0  0  0  0  0  0  0
   -4.9969    0.5300    0.5883 C   0  0  0  0  0  0  0  0  0  0  0  0
   -3.6608    0.8233    0.6402 C   0  0  0  0  0  0  0  0  0  0  0  0
   -0.2766   -0.6709   -0.4151 C   0  0  0  0  0  0  0  0  0  0  0  0
    0.8884   -0.2537    0.4949 C   0  0  0  0  0  0  0  0  0  0  0  0
    2.1743   -0.7723    0.1197 C   0  0  0  0  0  0  0  0  0  0  0  0
    3.3056   -0.4879    0.8390 C   0  0  0  0  0  0  0  0  0  0  0  0
    4.5580   -0.9787    0.4548 C   0  0  0  0  0  0  0  0  0  0  0  0
    4.6776   -1.7655   -0.6645 C   0  0  0  0  0  0  0  0  0  0  0  0
    3.5604   -2.0587   -1.3914 C   0  0  0  0  0  0  0  0  0  0  0  0
    2.3288   -1.5752   -1.0131 C   0  0  0  0  0  0  0  0  0  0  0  0
    1.8058    4.3669    0.7205 H   0  0  0  0  0  0  0  0  0  0  0  0
    0.1425    3.7159    0.9977 H   0  0  0  0  0  0  0  0  0  0  0  0
    0.7465    4.0002   -0.6572 H   0  0  0  0  0  0  0  0  0  0  0  0
   -2.4697   -1.9042   -0.9048 H   0  0  0  0  0  0  0  0  0  0  0  0
   -4.8796   -2.4536   -1.0093 H   0  0  0  0  0  0  0  0  0  0  0  0
   -6.5119   -0.8091   -0.0063 H   0  0  0  0  0  0  0  0  0  0  0  0
   -5.6988    1.2304    1.0160 H   0  0  0  0  0  0  0  0  0  0  0  0
   -3.2622    1.7145    1.0836 H   0  0  0  0  0  0  0  0  0  0  0  0
   -0.1152   -0.3472   -1.4502 H   0  0  0  0  0  0  0  0  0  0  0  0
   -0.5327   -1.7248   -0.2867 H   0  0  0  0  0  0  0  0  0  0  0  0
    0.5964   -0.6025    1.5237 H   0  0  0  0  0  0  0  0  0  0  0  0
    3.2943    0.1033    1.7338 H   0  0  0  0  0  0  0  0  0  0  0  0
    5.4449   -0.7394    1.0415 H   0  0  0  0  0  0  0  0  0  0  0  0
    5.6379   -2.1488   -0.9693 H   0  0  0  0  0  0  0  0  0  0  0  0
    3.6979   -2.6902   -2.2781 H   0  0  0  0  0  0  0  0  0  0  0  0
    1.4858   -1.8318   -1.6132 H   0  0  0  0  0  0  0  0  0  0  0  0
  1  2  1  0
  2  3  2  0
  2  4  1  0
  4  5  1  0
  5  6  2  0
  6  7  1  0
  7  8  2  0
  8  9  1  0
  9 10  2  0
 10 11  1  0
 11 12  2  0
  6 13  1  0
 13 14  1  0
 14 15  1  0
 15 16  2  0
 16 17  1  0
 17 18  2  0
 18 19  1  0
 19 20  2  0
 14  4  1  0
 20 15  1  0
 12  7  1  0
  1 21  1  0
  1 22  1  0
  1 23  1  0
  8 24  1  0
  9 25  1  0
 10 26  1  0
 11 27  1  0
 12 28  1  0
 13 29  1  0
 13 30  1  0
 14 31  1  0
 16 32  1  0
 17 33  1  0
 18 34  1  0
 19 35  1  0
 20 36  1  0
M  END
$$$$
