@<TRIPOS>MOLECULE
*****
 36 38 0 0 0
SMALL
GASTEIGER

@<TRIPOS>ATOM
      1 C           1.0347    3.6481    0.3611 C.3     1  UNL1        0.0140
      2 C           1.5617    2.2478    0.3188 C.2     1  UNL1        0.2322
      3 O           2.8016    2.1635    0.1341 O.2     1  UNL1       -0.2741
      4 N           0.6790    1.1614    0.4810 N.am    1  UNL1       -0.1853
      5 N          -0.7320    1.3003    0.6656 N.2     1  UNL1       -0.1809
      6 C          -1.3180    0.2458    0.1499 C.2     1  UNL1        0.0688
      7 C          -2.7369   -0.0641    0.0956 C.ar    1  UNL1       -0.0022
      8 C          -3.2189   -1.2166   -0.4803 C.ar    1  UNL1       -0.0528
      9 C          -4.5632   -1.5241   -0.5391 C.ar    1  UNL1       -0.0611
     10 C          -5.4487   -0.6325    0.0047 C.ar    1  UNL1       -0.0617
     11 C          -4.9969    0.5300    0.5883 C.ar    1  UNL1       -0.0611
     12 C          -3.6608    0.8233    0.6402 C.ar    1  UNL1       -0.0528
     13 C          -0.2766   -0.6709   -0.4151 C.3     1  UNL1        0.0164
     14 C           0.8884   -0.2537    0.4949 C.3     1  UNL1        0.0794
     15 C           2.1743   -0.7723    0.1197 C.ar    1  UNL1       -0.0247
     16 C           3.3056   -0.4879    0.8390 C.ar    1  UNL1       -0.0567
     17 C           4.5580   -0.9787    0.4548 C.ar    1  UNL1       -0.0614
     18 C           4.6776   -1.7655   -0.6645 C.ar    1  UNL1       -0.0617
     19 C           3.5604   -2.0587   -1.3914 C.ar    1  UNL1       -0.0614
     20 C           2.3288   -1.5752   -1.0131 C.ar    1  UNL1       -0.0567
     21 H           1.8058    4.3669    0.7205 H       1  UNL1        0.0323
     22 H           0.1425    3.7159    0.9977 H       1  UNL1        0.0323
     23 H           0.7465    4.0002   -0.6572 H       1  UNL1        0.0323
     24 H          -2.4697   -1.9042   -0.9048 H       1  UNL1        0.0624
     25 H          -4.8796   -2.4536   -1.0093 H       1  UNL1        0.0618
     26 H          -6.5119   -0.8091   -0.0063 H       1  UNL1        0.0618
     27 H          -5.6988    1.2304    1.0160 H       1  UNL1        0.0618
     28 H          -3.2622    1.7145    1.0836 H       1  UNL1        0.0624
     29 H          -0.1152   -0.3472   -1.4502 H       1  UNL1        0.0351
     30 H          -0.5327   -1.7248   -0.2867 H       1  UNL1        0.0351
     31 H           0.5964   -0.6025    1.5237 H       1  UNL1        0.0574
     32 H           3.2943    0.1033    1.7338 H       1  UNL1        0.0621
     33 H           5.4449   -0.7394    1.0415 H       1  UNL1        0.0618
     34 H           5.6379   -2.1488   -0.9693 H       1  UNL1        0.0618
     35 H           3.6979   -2.6902   -2.2781 H       1  UNL1        0.0618
     36 H           1.4858   -1.8318   -1.6132 H       1  UNL1        0.0621
@<TRIPOS>BOND
     1     1     2    1
     2     2     3    2
     3     2     4   am
     4     4     5    1
     5     5     6    2
     6     6     7    1
     7     7     8   ar
     8     8     9   ar
     9     9    10   ar
    10    10    11   ar
    11    11    12   ar
    12     6    13    1
    13    13    14    1
    14    14    15    1
    15    15    16   ar
    16    16    17   ar
    17    17    18   ar
    18    18    19   ar
    19    19    20   ar
    20    14     4    1
    21    20    15   ar
    22    12     7   ar
    23     1    21    1
    24     1    22    1
    25     1    23    1
    26     8    24    1
    27     9    25    1
    28    10    26    1
    29    11    27    1
    30    12    28    1
    31    13    29    1
    32    13    30    1
    33    14    31    1
    34    16    32    1
    35    17    33    1
    36    18    34    1
    37    19    35    1
    38    20    36    1
