
     RDKit          3D

 50 53  0  0  0  0  0  0  0  0999 V2000
    7.3297   -1.3210   -0.6367 C   0  0  0  0  0  0  0  0  0  0  0  0
    6.0269   -0.7689   -0.2188 C   0  0  0  0  0  0  0  0  0  0  0  0
    5.9318    0.1724    0.7977 C   0  0  0  0  0  0  0  0  0  0  0  0
    4.6911    0.6813    1.1772 C   0  0  0  0  0  0  0  0  0  0  0  0
    3.5576    0.2448    0.5373 C   0  0  0  0  0  0  0  0  0  0  0  0
    3.6836   -0.6967   -0.4749 C   0  0  0  0  0  0  0  0  0  0  0  0
    4.8867   -1.2049   -0.8590 C   0  0  0  0  0  0  0  0  0  0  0  0
    5.0001   -2.2054   -1.9377 C   0  0  0  0  0  0  0  0  0  0  0  0
    3.7766   -2.5382   -2.4769 F   0  0  0  0  0  0  0  0  0  0  0  0
    5.7982   -1.7705   -2.9756 F   0  0  0  0  0  0  0  0  0  0  0  0
    5.5309   -3.3551   -1.3848 F   0  0  0  0  0  0  0  0  0  0  0  0
    2.4004    0.9014    1.0876 N   0  0  0  0  0  0  0  0  0  0  0  0
    1.0513    0.4785    0.9172 C   0  0  0  0  0  0  0  0  0  0  0  0
    0.7513   -0.5451    0.2445 O   0  0  0  0  0  0  0  0  0  0  0  0
   -0.0414    1.1837    1.4948 N   0  0  0  0  0  0  0  0  0  0  0  0
   -1.3794    0.7477    1.3145 C   0  0  0  0  0  0  0  0  0  0  0  0
   -2.1183    1.2062    0.2435 C   0  0  0  0  0  0  0  0  0  0  0  0
   -3.4302    0.8026    0.0335 C   0  0  0  0  0  0  0  0  0  0  0  0
   -4.0407   -0.0762    0.8950 C   0  0  0  0  0  0  0  0  0  0  0  0
   -5.3191   -0.5494    0.8032 O   0  0  0  0  0  0  0  0  0  0  0  0
   -6.2042   -0.2551   -0.1947 C   0  0  0  0  0  0  0  0  0  0  0  0
   -7.3816    0.4193    0.1457 C   0  0  0  0  0  0  0  0  0  0  0  0
   -8.2689    0.7135   -0.8515 C   0  0  0  0  0  0  0  0  0  0  0  0
   -7.9800    0.3431   -2.1351 C   0  0  0  0  0  0  0  0  0  0  0  0
   -6.8549   -0.3042   -2.4757 N   0  0  0  0  0  0  0  0  0  0  0  0
   -5.9660   -0.6011   -1.4875 C   0  0  0  0  0  0  0  0  0  0  0  0
   -4.7473   -1.3334   -1.9113 C   0  0  0  0  0  0  0  0  0  0  0  0
   -3.3059   -0.5159    1.9379 N   0  0  0  0  0  0  0  0  0  0  0  0
   -2.0394   -0.1297    2.1458 C   0  0  0  0  0  0  0  0  0  0  0  0
    2.9061    2.0420    1.8224 C   0  0  0  0  0  0  0  0  0  0  0  0
    4.3002    1.6785    2.2155 C   0  0  0  0  0  0  0  0  0  0  0  0
    7.4086   -2.4150   -0.4587 H   0  0  0  0  0  0  0  0  0  0  0  0
    8.1375   -0.8685    0.0080 H   0  0  0  0  0  0  0  0  0  0  0  0
    7.5609   -1.0260   -1.6742 H   0  0  0  0  0  0  0  0  0  0  0  0
    6.8191    0.5173    1.3020 H   0  0  0  0  0  0  0  0  0  0  0  0
    2.7496   -1.0183   -0.9603 H   0  0  0  0  0  0  0  0  0  0  0  0
    0.2094    2.0423    2.0593 H   0  0  0  0  0  0  0  0  0  0  0  0
   -1.6689    1.9024   -0.4596 H   0  0  0  0  0  0  0  0  0  0  0  0
   -4.0026    1.1734   -0.8003 H   0  0  0  0  0  0  0  0  0  0  0  0
   -7.5447    0.6824    1.1869 H   0  0  0  0  0  0  0  0  0  0  0  0
   -9.1786    1.2281   -0.6263 H   0  0  0  0  0  0  0  0  0  0  0  0
   -8.6814    0.5768   -2.9187 H   0  0  0  0  0  0  0  0  0  0  0  0
   -4.0459   -0.6729   -2.4736 H   0  0  0  0  0  0  0  0  0  0  0  0
   -4.2509   -1.8686   -1.0839 H   0  0  0  0  0  0  0  0  0  0  0  0
   -5.0816   -2.1090   -2.6355 H   0  0  0  0  0  0  0  0  0  0  0  0
   -1.5253   -0.5307    3.0051 H   0  0  0  0  0  0  0  0  0  0  0  0
    2.9003    2.9640    1.2074 H   0  0  0  0  0  0  0  0  0  0  0  0
    2.3113    2.2124    2.7478 H   0  0  0  0  0  0  0  0  0  0  0  0
    4.3512    1.2206    3.2270 H   0  0  0  0  0  0  0  0  0  0  0  0
    4.9864    2.5453    2.1747 H   0  0  0  0  0  0  0  0  0  0  0  0
  1  2  1  0
  2  3  2  0
  3  4  1  0
  4  5  2  0
  5  6  1  0
  6  7  2  0
  7  8  1  0
  8  9  1  0
  8 10  1  0
  8 11  1  0
  5 12  1  0
 12 13  1  0
 13 14  2  0
 13 15  1  0
 15 16  1  0
 16 17  2  0
 17 18  1  0
 18 19  2  0
 19 20  1  0
 20 21  1  0
 21 22  2  0
 22 23  1  0
 23 24  2  0
 24 25  1  0
 25 26  2  0
 26 27  1  0
 19 28  1  0
 28 29  2  0
 12 30  1  0
 30 31  1  0
  7  2  1  0
 29 16  1  0
 31  4  1  0
 26 21  1  0
  1 32  1  0
  1 33  1  0
  1 34  1  0
  3 35  1  0
  6 36  1  0
 15 37  1  0
 17 38  1  0
 18 39  1  0
 22 40  1  0
 23 41  1  0
 24 42  1  0
 27 43  1  0
 27 44  1  0
 27 45  1  0
 29 46  1  0
 30 47  1  0
 30 48  1  0
 31 49  1  0
 31 50  1  0
M  END
$$$$
