@<TRIPOS>MOLECULE
*****
 50 53 0 0 0
SMALL
GASTEIGER

@<TRIPOS>ATOM
      1 C           7.3297   -1.3210   -0.6367 C.3     1  UNL1       -0.0392
      2 C           6.0269   -0.7689   -0.2188 C.ar    1  UNL1       -0.0385
      3 C           5.9318    0.1724    0.7977 C.ar    1  UNL1       -0.0533
      4 C           4.6911    0.6813    1.1772 C.ar    1  UNL1       -0.0241
      5 C           3.5576    0.2448    0.5373 C.ar    1  UNL1        0.0415
      6 C           3.6836   -0.6967   -0.4749 C.ar    1  UNL1       -0.0281
      7 C           4.8867   -1.2049   -0.8590 C.ar    1  UNL1        0.0595
      8 C           5.0001   -2.2054   -1.9377 C.3     1  UNL1        0.4177
      9 F           3.7766   -2.5382   -2.4769 F       1  UNL1       -0.1659
     10 F           5.7982   -1.7705   -2.9756 F       1  UNL1       -0.1659
     11 F           5.5309   -3.3551   -1.3848 F       1  UNL1       -0.1659
     12 N           2.4004    0.9014    1.0876 N.am    1  UNL1       -0.2547
     13 C           1.0513    0.4785    0.9172 C.2     1  UNL1        0.3108
     14 O           0.7513   -0.5451    0.2445 O.2     1  UNL1       -0.2519
     15 N          -0.0414    1.1837    1.4948 N.am    1  UNL1       -0.2677
     16 C          -1.3794    0.7477    1.3145 C.ar    1  UNL1        0.0532
     17 C          -2.1183    1.2062    0.2435 C.ar    1  UNL1       -0.0339
     18 C          -3.4302    0.8026    0.0335 C.ar    1  UNL1        0.0021
     19 C          -4.0407   -0.0762    0.8950 C.ar    1  UNL1        0.2206
     20 O          -5.3191   -0.5494    0.8032 O.3     1  UNL1       -0.4363
     21 C          -6.2042   -0.2551   -0.1947 C.ar    1  UNL1        0.1512
     22 C          -7.3816    0.4193    0.1457 C.ar    1  UNL1       -0.0161
     23 C          -8.2689    0.7135   -0.8515 C.ar    1  UNL1       -0.0401
     24 C          -7.9800    0.3431   -2.1351 C.ar    1  UNL1        0.0281
     25 N          -6.8549   -0.3042   -2.4757 N.ar    1  UNL1       -0.2565
     26 C          -5.9660   -0.6011   -1.4875 C.ar    1  UNL1        0.0803
     27 C          -4.7473   -1.3334   -1.9113 C.3     1  UNL1       -0.0188
     28 N          -3.3059   -0.5159    1.9379 N.ar    1  UNL1       -0.2191
     29 C          -2.0394   -0.1297    2.1458 C.ar    1  UNL1        0.0526
     30 C           2.9061    2.0420    1.8224 C.3     1  UNL1        0.0253
     31 C           4.3002    1.6785    2.2155 C.3     1  UNL1       -0.0096
     32 H           7.4086   -2.4150   -0.4587 H       1  UNL1        0.0278
     33 H           8.1375   -0.8685    0.0080 H       1  UNL1        0.0278
     34 H           7.5609   -1.0260   -1.6742 H       1  UNL1        0.0278
     35 H           6.8191    0.5173    1.3020 H       1  UNL1        0.0624
     36 H           2.7496   -1.0183   -0.9603 H       1  UNL1        0.0642
     37 H           0.2094    2.0423    2.0593 H       1  UNL1        0.1564
     38 H          -1.6689    1.9024   -0.4596 H       1  UNL1        0.0638
     39 H          -4.0026    1.1734   -0.8003 H       1  UNL1        0.0671
     40 H          -7.5447    0.6824    1.1869 H       1  UNL1        0.0655
     41 H          -9.1786    1.2281   -0.6263 H       1  UNL1        0.0634
     42 H          -8.6814    0.5768   -2.9187 H       1  UNL1        0.0829
     43 H          -4.0459   -0.6729   -2.4736 H       1  UNL1        0.0294
     44 H          -4.2509   -1.8686   -1.0839 H       1  UNL1        0.0294
     45 H          -5.0816   -2.1090   -2.6355 H       1  UNL1        0.0294
     46 H          -1.5253   -0.5307    3.0051 H       1  UNL1        0.0850
     47 H           2.9003    2.9640    1.2074 H       1  UNL1        0.0472
     48 H           2.3113    2.2124    2.7478 H       1  UNL1        0.0472
     49 H           4.3512    1.2206    3.2270 H       1  UNL1        0.0329
     50 H           4.9864    2.5453    2.1747 H       1  UNL1        0.0329
@<TRIPOS>BOND
     1     1     2    1
     2     2     3   ar
     3     3     4   ar
     4     4     5   ar
     5     5     6   ar
     6     6     7   ar
     7     7     8    1
     8     8     9    1
     9     8    10    1
    10     8    11    1
    11     5    12    1
    12    12    13   am
    13    13    14    2
    14    13    15   am
    15    15    16    1
    16    16    17   ar
    17    17    18   ar
    18    18    19   ar
    19    19    20    1
    20    20    21    1
    21    21    22   ar
    22    22    23   ar
    23    23    24   ar
    24    24    25   ar
    25    25    26   ar
    26    26    27    1
    27    19    28   ar
    28    28    29   ar
    29    12    30    1
    30    30    31    1
    31     7     2   ar
    32    29    16   ar
    33    31     4    1
    34    26    21   ar
    35     1    32    1
    36     1    33    1
    37     1    34    1
    38     3    35    1
    39     6    36    1
    40    15    37    1
    41    17    38    1
    42    18    39    1
    43    22    40    1
    44    23    41    1
    45    24    42    1
    46    27    43    1
    47    27    44    1
    48    27    45    1
    49    29    46    1
    50    30    47    1
    51    30    48    1
    52    31    49    1
    53    31    50    1
