
     RDKit          3D

 43 44  0  0  0  0  0  0  0  0999 V2000
   -1.1065    2.0924    2.3847 C   0  0  0  0  0  0  0  0  0  0  0  0
   -0.6765    1.7529    1.0766 O   0  0  0  0  0  0  0  0  0  0  0  0
   -1.3123    0.6807    0.4315 C   0  0  0  0  0  0  0  0  0  0  0  0
   -0.8774   -0.6482    0.5183 C   0  0  0  0  0  0  0  0  0  0  0  0
    0.3329   -0.9107    1.3447 C   0  0  0  0  0  0  0  0  0  0  0  0
    1.5786   -0.5213    0.6786 C   0  0  0  0  0  0  0  0  0  0  0  0
    2.6339   -1.2492    0.3545 C   0  0  0  0  0  0  0  0  0  0  0  0
    2.5368   -2.6791    0.7228 C   0  0  0  0  0  0  0  0  0  0  0  0
    3.8620   -0.7774   -0.3115 C   0  0  0  0  0  0  0  0  0  0  0  0
    3.8952    0.6848   -0.6181 C   0  0  0  0  0  0  0  0  0  0  0  0
    3.8151    1.4898    0.6546 C   0  0  0  0  0  0  0  0  0  0  0  0
    3.8094    2.8640    0.3587 O   0  0  0  0  0  0  0  0  0  0  0  0
    3.7529    1.2106    1.9012 O   0  0  0  0  0  0  0  0  0  0  0  0
   -1.5976   -1.6048   -0.1669 C   0  0  0  0  0  0  0  0  0  0  0  0
   -1.1452   -2.9354   -0.0671 O   0  0  0  0  0  0  0  0  0  0  0  0
   -2.7044   -1.2893   -0.9139 C   0  0  0  0  0  0  0  0  0  0  0  0
   -3.5961   -2.1328   -1.7040 C   0  0  0  0  0  0  0  0  0  0  0  0
   -3.4825   -3.3794   -1.8355 O   0  0  0  0  0  0  0  0  0  0  0  0
   -4.5279   -1.2797   -2.2324 O   0  0  0  0  0  0  0  0  0  0  0  0
   -4.3160    0.0650   -1.8518 C   0  0  0  0  0  0  0  0  0  0  0  0
   -3.1236    0.0276   -0.9916 C   0  0  0  0  0  0  0  0  0  0  0  0
   -2.4197    1.0010   -0.3152 C   0  0  0  0  0  0  0  0  0  0  0  0
   -2.8941    2.4061   -0.4149 C   0  0  0  0  0  0  0  0  0  0  0  0
   -1.5379    1.2069    2.9036 H   0  0  0  0  0  0  0  0  0  0  0  0
   -1.8990    2.8914    2.3231 H   0  0  0  0  0  0  0  0  0  0  0  0
   -0.2519    2.4509    2.9935 H   0  0  0  0  0  0  0  0  0  0  0  0
    0.2767   -1.9249    1.7410 H   0  0  0  0  0  0  0  0  0  0  0  0
    0.2499   -0.2508    2.2484 H   0  0  0  0  0  0  0  0  0  0  0  0
    1.5818    0.5342    0.4228 H   0  0  0  0  0  0  0  0  0  0  0  0
    1.5229   -3.1060    0.6541 H   0  0  0  0  0  0  0  0  0  0  0  0
    3.0410   -2.8551    1.6946 H   0  0  0  0  0  0  0  0  0  0  0  0
    3.1275   -3.2517   -0.0384 H   0  0  0  0  0  0  0  0  0  0  0  0
    4.0507   -1.3420   -1.2468 H   0  0  0  0  0  0  0  0  0  0  0  0
    4.7414   -1.0275    0.3479 H   0  0  0  0  0  0  0  0  0  0  0  0
    3.0818    0.9710   -1.3109 H   0  0  0  0  0  0  0  0  0  0  0  0
    4.8756    0.9471   -1.0618 H   0  0  0  0  0  0  0  0  0  0  0  0
    3.5097    3.5154    1.0813 H   0  0  0  0  0  0  0  0  0  0  0  0
   -0.4688   -3.1957   -0.7978 H   0  0  0  0  0  0  0  0  0  0  0  0
   -4.1033    0.6934   -2.7468 H   0  0  0  0  0  0  0  0  0  0  0  0
   -5.1870    0.5026   -1.3276 H   0  0  0  0  0  0  0  0  0  0  0  0
   -3.5439    2.5341   -1.2875 H   0  0  0  0  0  0  0  0  0  0  0  0
   -2.0220    3.1204   -0.4357 H   0  0  0  0  0  0  0  0  0  0  0  0
   -3.4821    2.7185    0.4839 H   0  0  0  0  0  0  0  0  0  0  0  0
  1  2  1  0
  2  3  1  0
  3  4  2  0
  4  5  1  0
  5  6  1  0
  6  7  2  0
  7  8  1  0
  7  9  1  0
  9 10  1  0
 10 11  1  0
 11 12  1  0
 11 13  2  0
  4 14  1  0
 14 15  1  0
 14 16  2  0
 16 17  1  0
 17 18  2  0
 17 19  1  0
 19 20  1  0
 20 21  1  0
 21 22  2  0
 22 23  1  0
 22  3  1  0
 21 16  1  0
  1 24  1  0
  1 25  1  0
  1 26  1  0
  5 27  1  0
  5 28  1  0
  6 29  1  0
  8 30  1  0
  8 31  1  0
  8 32  1  0
  9 33  1  0
  9 34  1  0
 10 35  1  0
 10 36  1  0
 12 37  1  0
 15 38  1  0
 20 39  1  0
 20 40  1  0
 23 41  1  0
 23 42  1  0
 23 43  1  0
M  END
$$$$
