@<TRIPOS>MOLECULE
*****
 65 68 0 0 0
SMALL
GASTEIGER

@<TRIPOS>ATOM
      1 O           4.1734    0.6083    2.6574 O.2     1  UNL1       -0.2702
      2 C           4.7523    0.8814    1.5770 C.2     1  UNL1        0.2444
      3 N           4.2109    0.3523    0.4065 N.am    1  UNL1       -0.3050
      4 C           3.0377   -0.4846    0.3247 C.3     1  UNL1        0.0607
      5 C           3.4685   -1.8340   -0.1760 C.3     1  UNL1       -0.0260
      6 C           3.3538   -1.7775   -1.6536 C.3     1  UNL1       -0.0126
      7 C           4.6833   -1.8457   -2.3821 C.3     1  UNL1        0.0472
      8 O           5.3350   -3.0312   -2.0772 O.3     1  UNL1       -0.3947
      9 C           2.6207   -0.5158   -1.9877 C.3     1  UNL1       -0.0089
     10 C           2.0295   -0.0388   -0.6550 C.3     1  UNL1        0.1219
     11 O           0.7226   -0.4152   -0.4837 O.3     1  UNL1       -0.4560
     12 C          -0.3639    0.4260   -0.3368 C.2     1  UNL1        0.3397
     13 O          -0.1229    1.6427   -0.3589 O.2     1  UNL1       -0.2449
     14 C          -1.7340   -0.0078   -0.1623 C.ar    1  UNL1        0.0659
     15 C          -2.0430   -1.3474   -0.1628 C.ar    1  UNL1       -0.0053
     16 C          -3.3099   -1.8325    0.0007 C.ar    1  UNL1        0.1320
     17 O          -3.5892   -3.2128   -0.0052 O.3     1  UNL1       -0.5059
     18 C          -4.3639   -0.9378    0.1801 C.ar    1  UNL1        0.1050
     19 C          -5.6865   -1.4646    0.4607 C.2     1  UNL1        0.2044
     20 O          -5.7437   -2.6640    0.9610 O.2     1  UNL1       -0.2863
     21 C          -6.9453   -0.8328    0.2700 C.ar    1  UNL1        0.0778
     22 C          -7.8976   -1.0356    1.2949 C.ar    1  UNL1        0.1285
     23 O          -7.5178   -1.7920    2.3834 O.3     1  UNL1       -0.5060
     24 C          -9.1491   -0.4945    1.1961 C.ar    1  UNL1       -0.0194
     25 C          -9.4971    0.2551    0.0964 C.ar    1  UNL1       -0.0575
     26 C          -8.5672    0.4443   -0.8964 C.ar    1  UNL1       -0.0468
     27 C          -7.2695   -0.0988   -0.8346 C.ar    1  UNL1        0.0731
     28 C          -6.4465   -0.0035   -2.0455 C.2     1  UNL1        0.3376
     29 O          -5.4191   -0.6423   -2.2565 O.2     1  UNL1       -0.2451
     30 O          -6.8748    0.8967   -3.0429 O.3     1  UNL1       -0.4771
     31 C          -4.0713    0.4175    0.1853 C.ar    1  UNL1        0.1320
     32 O          -5.0921    1.3699    0.3695 O.3     1  UNL1       -0.5059
     33 C          -2.7750    0.8645    0.0153 C.ar    1  UNL1       -0.0053
     34 C           5.9398    1.7293    1.6448 C.ar    1  UNL1        0.0369
     35 C           6.4189    2.2229    2.8398 C.ar    1  UNL1       -0.0462
     36 C           7.5389    3.0284    2.9309 C.ar    1  UNL1       -0.0195
     37 C           8.2388    3.3773    1.7889 C.ar    1  UNL1        0.1169
     38 O           9.3745    4.1905    1.8525 O.3     1  UNL1       -0.5068
     39 C           7.7735    2.8932    0.5914 C.ar    1  UNL1       -0.0195
     40 C           6.6409    2.0804    0.5129 C.ar    1  UNL1       -0.0462
     41 H           4.6673    0.5586   -0.5083 H       1  UNL1        0.1494
     42 H           2.6658   -0.6356    1.3530 H       1  UNL1        0.0535
     43 H           4.5491   -2.0394    0.0547 H       1  UNL1        0.0288
     44 H           2.8315   -2.6508    0.2497 H       1  UNL1        0.0288
     45 H           2.7798   -2.6867   -2.0191 H       1  UNL1        0.0325
     46 H           5.2955   -0.9470   -2.2688 H       1  UNL1        0.0560
     47 H           4.4110   -1.9049   -3.4709 H       1  UNL1        0.0560
     48 H           6.0495   -2.8812   -1.4037 H       1  UNL1        0.2094
     49 H           3.2843    0.2676   -2.4224 H       1  UNL1        0.0305
     50 H           1.7361   -0.7147   -2.6396 H       1  UNL1        0.0305
     51 H           2.0852    1.0758   -0.6815 H       1  UNL1        0.0753
     52 H          -1.2091   -2.0507   -0.3058 H       1  UNL1        0.0662
     53 H          -2.8828   -3.8839    0.2491 H       1  UNL1        0.2922
     54 H          -7.5926   -2.8051    2.4367 H       1  UNL1        0.2922
     55 H          -9.8455   -0.6872    2.0229 H       1  UNL1        0.0654
     56 H         -10.4967    0.6719    0.0511 H       1  UNL1        0.0619
     57 H          -8.8327    1.0286   -1.7539 H       1  UNL1        0.0626
     58 H          -6.3563    0.9334   -3.9085 H       1  UNL1        0.2954
     59 H          -4.9772    2.0154    1.1393 H       1  UNL1        0.2922
     60 H          -2.5674    1.9445    0.0189 H       1  UNL1        0.0662
     61 H           5.8483    1.9361    3.7382 H       1  UNL1        0.0626
     62 H           7.8742    3.3868    3.8702 H       1  UNL1        0.0654
     63 H          10.2473    3.8341    1.4910 H       1  UNL1        0.2921
     64 H           8.2941    3.1432   -0.3221 H       1  UNL1        0.0654
     65 H           6.3076    1.7199   -0.4535 H       1  UNL1        0.0626
@<TRIPOS>BOND
     1     1     2    2
     2     2     3   am
     3     3     4    1
     4     4     5    1
     5     5     6    1
     6     6     7    1
     7     7     8    1
     8     6     9    1
     9     9    10    1
    10    10    11    1
    11    11    12    1
    12    12    13    2
    13    12    14    1
    14    14    15   ar
    15    15    16   ar
    16    16    17    1
    17    16    18   ar
    18    18    19    1
    19    19    20    2
    20    19    21    1
    21    21    22   ar
    22    22    23    1
    23    22    24   ar
    24    24    25   ar
    25    25    26   ar
    26    26    27   ar
    27    27    28    1
    28    28    29    2
    29    28    30    1
    30    18    31   ar
    31    31    32    1
    32    31    33   ar
    33     2    34    1
    34    34    35   ar
    35    35    36   ar
    36    36    37   ar
    37    37    38    1
    38    37    39   ar
    39    39    40   ar
    40    10     4    1
    41    33    14   ar
    42    40    34   ar
    43    27    21   ar
    44     3    41    1
    45     4    42    1
    46     5    43    1
    47     5    44    1
    48     6    45    1
    49     7    46    1
    50     7    47    1
    51     8    48    1
    52     9    49    1
    53     9    50    1
    54    10    51    1
    55    15    52    1
    56    17    53    1
    57    23    54    1
    58    24    55    1
    59    25    56    1
    60    26    57    1
    61    30    58    1
    62    32    59    1
    63    33    60    1
    64    35    61    1
    65    36    62    1
    66    38    63    1
    67    39    64    1
    68    40    65    1
