@<TRIPOS>MOLECULE
*****
 44 46 0 0 0
SMALL
GASTEIGER

@<TRIPOS>ATOM
      1 C          -5.9701    0.4530   -0.0826 C.3     1  UNL1       -0.0126
      2 N          -4.5461    0.5819   -0.0944 N.3     1  UNL1       -0.3024
      3 C          -3.9455   -0.3344    0.8510 C.3     1  UNL1        0.0144
      4 C          -2.4707   -0.0887    1.0153 C.3     1  UNL1        0.0251
      5 N          -1.8788    0.5667   -0.1362 N.pl3   1  UNL1       -0.3230
      6 C          -2.5835    0.9935   -1.3357 C.3     1  UNL1        0.0251
      7 C          -3.9395    0.2990   -1.3742 C.3     1  UNL1        0.0144
      8 C          -0.4757    0.7661    0.0175 C.ar    1  UNL1        0.1032
      9 C          -0.0467    1.9612    0.6063 C.ar    1  UNL1        0.1479
     10 F          -0.9154    2.9134    1.0249 F       1  UNL1       -0.2034
     11 C           1.3074    2.1560    0.7559 C.ar    1  UNL1       -0.0116
     12 C           2.2123    1.2029    0.3383 C.ar    1  UNL1        0.0516
     13 C           3.5331    1.4616    0.5202 C.ar    1  UNL1        0.2035
     14 O           3.9188    2.5151    1.0399 O.2     1  UNL1       -0.2863
     15 C           4.4479    0.5254    0.1141 C.ar    1  UNL1        0.1220
     16 C           3.9620   -0.6257   -0.4568 C.ar    1  UNL1        0.0230
     17 N           2.6507   -0.9583   -0.6737 N.ar    1  UNL1       -0.3409
     18 C           2.2369   -2.1804   -1.2834 C.3     1  UNL1        0.0516
     19 C           1.9746   -3.3151   -0.3160 C.3     1  UNL1        0.1080
     20 F           1.5732   -4.4787   -0.9481 F       1  UNL1       -0.2472
     21 C           1.8246    0.0210   -0.2427 C.ar    1  UNL1        0.0905
     22 C           0.4659   -0.1578   -0.3846 C.ar    1  UNL1        0.1711
     23 F          -0.0385   -1.2568   -0.9253 F       1  UNL1       -0.2013
     24 C           5.8855    0.7085    0.2653 C.2     1  UNL1        0.3420
     25 O           6.3524    1.8779    0.8440 O.3     1  UNL1       -0.4770
     26 O           6.7280   -0.1605   -0.1119 O.2     1  UNL1       -0.2449
     27 H          -6.3103   -0.4403   -0.6374 H       1  UNL1        0.0391
     28 H          -6.2995    0.4302    0.9806 H       1  UNL1        0.0391
     29 H          -6.4498    1.3759   -0.4990 H       1  UNL1        0.0391
     30 H          -4.1030   -1.3572    0.4420 H       1  UNL1        0.0442
     31 H          -4.4341   -0.2210    1.8404 H       1  UNL1        0.0442
     32 H          -2.2822    0.5255    1.9231 H       1  UNL1        0.0476
     33 H          -2.0028   -1.0952    1.2198 H       1  UNL1        0.0476
     34 H          -2.8171    2.0786   -1.2440 H       1  UNL1        0.0476
     35 H          -2.0042    0.7639   -2.2472 H       1  UNL1        0.0476
     36 H          -4.5192    0.6881   -2.2347 H       1  UNL1        0.0442
     37 H          -3.7338   -0.7863   -1.4361 H       1  UNL1        0.0442
     38 H           1.6439    3.0831    1.2129 H       1  UNL1        0.0654
     39 H           4.7051   -1.3674   -0.7776 H       1  UNL1        0.0818
     40 H           1.5919   -2.1314   -2.1549 H       1  UNL1        0.0517
     41 H           3.1969   -2.5529   -1.7915 H       1  UNL1        0.0517
     42 H           2.9390   -3.6307    0.1891 H       1  UNL1        0.0633
     43 H           1.3400   -3.0339    0.5479 H       1  UNL1        0.0633
     44 H           7.2763    2.2243    0.5455 H       1  UNL1        0.2954
@<TRIPOS>BOND
     1     1     2    1
     2     2     3    1
     3     3     4    1
     4     4     5    1
     5     5     6    1
     6     6     7    1
     7     5     8    1
     8     8     9   ar
     9     9    10    1
    10     9    11   ar
    11    11    12   ar
    12    12    13   ar
    13    13    14    2
    14    13    15   ar
    15    15    16   ar
    16    16    17   ar
    17    17    18    1
    18    18    19    1
    19    19    20    1
    20    17    21   ar
    21    21    22   ar
    22    22    23    1
    23    15    24    1
    24    24    25    1
    25    24    26    2
    26     7     2    1
    27    22     8   ar
    28    21    12   ar
    29     1    27    1
    30     1    28    1
    31     1    29    1
    32     3    30    1
    33     3    31    1
    34     4    32    1
    35     4    33    1
    36     6    34    1
    37     6    35    1
    38     7    36    1
    39     7    37    1
    40    11    38    1
    41    16    39    1
    42    18    40    1
    43    18    41    1
    44    19    42    1
    45    19    43    1
    46    25    44    1
