@<TRIPOS>MOLECULE
*****
 52 56 0 0 0
SMALL
GASTEIGER

@<TRIPOS>ATOM
      1 O          -1.8881    1.0544    0.9473 O.2     1  UNL1       -0.2699
      2 C          -1.9863    0.8207   -0.3033 C.2     1  UNL1        0.2492
      3 C          -3.2087    1.2485   -0.9401 C.ar    1  UNL1        0.0654
      4 C          -3.3427    2.4956   -1.5060 C.ar    1  UNL1       -0.0474
      5 C          -4.5403    2.8810   -2.1176 C.ar    1  UNL1       -0.0595
      6 C          -5.6058    2.0119   -2.1610 C.ar    1  UNL1       -0.0412
      7 C          -5.4807    0.7456   -1.5904 C.ar    1  UNL1        0.0688
      8 CL         -6.8353   -0.3653   -1.6413 Cl      1  UNL1       -0.0813
      9 C          -4.2778    0.3936   -0.9906 C.ar    1  UNL1        0.1164
     10 N          -4.1594   -0.8899   -0.4142 N.ar    1  UNL1       -0.1481
     11 N          -3.6790   -1.9500   -1.0289 N.ar    1  UNL1       -0.1555
     12 C          -3.7114   -3.0143   -0.1802 C.ar    1  UNL1        0.0697
     13 C          -4.2461   -2.5457    1.0093 C.ar    1  UNL1        0.0697
     14 N          -4.4951   -1.2412    0.7914 N.ar    1  UNL1       -0.1555
     15 N          -0.9263    0.1777   -0.9697 N.am    1  UNL1       -0.2897
     16 C          -1.0694   -0.0775   -2.4146 C.3     1  UNL1        0.0388
     17 C           0.3700   -0.0771   -2.9401 C.3     1  UNL1        0.0635
     18 O           1.1526    0.8581   -2.3118 O.3     1  UNL1       -0.3764
     19 C           1.4069    0.6092   -0.9885 C.3     1  UNL1        0.0666
     20 C           0.3040   -0.2704   -0.4025 C.3     1  UNL1        0.0537
     21 C           0.4086   -0.2348    1.0794 C.3     1  UNL1       -0.0054
     22 C           1.7821   -0.7535    1.4114 C.ar    1  UNL1       -0.0252
     23 C           2.7952    0.1087    1.7721 C.ar    1  UNL1       -0.0299
     24 C           4.0618   -0.3641    2.0718 C.ar    1  UNL1        0.0865
     25 N           5.1166    0.5464    2.4466 N.ar    1  UNL1       -0.1503
     26 N           5.9265    1.2152    1.6512 N.ar    1  UNL1       -0.1556
     27 C           6.7882    1.9699    2.3555 C.ar    1  UNL1        0.0697
     28 C           6.4831    1.7469    3.6944 C.ar    1  UNL1        0.0697
     29 N           5.4615    0.8748    3.6794 N.ar    1  UNL1       -0.1556
     30 C           4.3420   -1.7124    2.0169 C.ar    1  UNL1       -0.0332
     31 C           3.3422   -2.5870    1.6586 C.ar    1  UNL1       -0.0411
     32 C           2.0886   -2.0867    1.3652 C.ar    1  UNL1        0.0443
     33 CL          0.8235   -3.2328    0.9093 Cl      1  UNL1       -0.0833
     34 H          -2.5445    3.2191   -1.5032 H       1  UNL1        0.0626
     35 H          -4.6578    3.8517   -2.5622 H       1  UNL1        0.0618
     36 H          -6.5504    2.2429   -2.6138 H       1  UNL1        0.0633
     37 H          -3.3962   -4.0319   -0.3545 H       1  UNL1        0.0864
     38 H          -4.4412   -3.0674    1.9340 H       1  UNL1        0.0864
     39 H          -1.4499   -1.0944   -2.5367 H       1  UNL1        0.0487
     40 H          -1.6442    0.7023   -2.9166 H       1  UNL1        0.0487
     41 H           0.7857   -1.1031   -2.9401 H       1  UNL1        0.0575
     42 H           0.2953    0.2191   -4.0120 H       1  UNL1        0.0575
     43 H           2.3837    0.1679   -0.7773 H       1  UNL1        0.0578
     44 H           1.3119    1.5838   -0.4361 H       1  UNL1        0.0578
     45 H           0.5776   -1.3086   -0.7336 H       1  UNL1        0.0526
     46 H           0.3567    0.7993    1.4849 H       1  UNL1        0.0332
     47 H          -0.3103   -0.8547    1.6117 H       1  UNL1        0.0332
     48 H           2.6161    1.1826    1.8281 H       1  UNL1        0.0642
     49 H           7.5693    2.6274    2.0294 H       1  UNL1        0.0864
     50 H           6.9852    2.1993    4.5412 H       1  UNL1        0.0864
     51 H           5.3483   -2.0395    2.2596 H       1  UNL1        0.0640
     52 H           3.5640   -3.6514    1.6153 H       1  UNL1        0.0633
@<TRIPOS>BOND
     1     1     2    2
     2     2     3    1
     3     3     4   ar
     4     4     5   ar
     5     5     6   ar
     6     6     7   ar
     7     7     8    1
     8     7     9   ar
     9     9    10    1
    10    10    11   ar
    11    11    12   ar
    12    12    13   ar
    13    13    14   ar
    14     2    15   am
    15    15    16    1
    16    16    17    1
    17    17    18    1
    18    18    19    1
    19    19    20    1
    20    20    21    1
    21    21    22    1
    22    22    23   ar
    23    23    24   ar
    24    24    25    1
    25    25    26   ar
    26    26    27   ar
    27    27    28   ar
    28    28    29   ar
    29    24    30   ar
    30    30    31   ar
    31    31    32   ar
    32    32    33    1
    33     9     3   ar
    34    14    10   ar
    35    20    15    1
    36    32    22   ar
    37    29    25   ar
    38     4    34    1
    39     5    35    1
    40     6    36    1
    41    12    37    1
    42    13    38    1
    43    16    39    1
    44    16    40    1
    45    17    41    1
    46    17    42    1
    47    19    43    1
    48    19    44    1
    49    20    45    1
    50    21    46    1
    51    21    47    1
    52    23    48    1
    53    27    49    1
    54    28    50    1
    55    30    51    1
    56    31    52    1
