
     RDKit          3D

 59 64  0  0  0  0  0  0  0  0999 V2000
    6.5375    0.4310    2.8503 C   0  0  0  0  0  0  0  0  0  0  0  0
    5.0542    0.7924    2.9619 C   0  0  0  0  0  0  0  0  0  0  0  0
    4.3948    0.1426    1.8929 O   0  0  0  0  0  0  0  0  0  0  0  0
    3.0334    0.2316    1.6604 C   0  0  0  0  0  0  0  0  0  0  0  0
    2.3574    0.9264    2.4429 O   0  0  0  0  0  0  0  0  0  0  0  0
    2.4585   -0.4739    0.5366 N   0  0  0  0  0  0  0  0  0  0  0  0
    3.1493   -1.2416   -0.3379 C   0  0  0  0  0  0  0  0  0  0  0  0
    2.3341   -1.7882   -1.2961 C   0  0  0  0  0  0  0  0  0  0  0  0
    2.7128   -2.6807   -2.4226 C   0  0  0  0  0  0  0  0  0  0  0  0
    3.0971   -2.1715   -3.7352 C   0  0  0  0  0  0  0  0  0  0  0  0
    4.1776   -2.5391   -2.8198 C   0  0  0  0  0  0  0  0  0  0  0  0
    1.0589   -1.3190   -0.9799 C   0  0  0  0  0  0  0  0  0  0  0  0
    1.1806   -0.5228    0.1397 C   0  0  0  0  0  0  0  0  0  0  0  0
   -0.1634    0.0326    0.5060 C   0  0  0  0  0  0  0  0  0  0  0  0
   -0.1584    1.5166    0.3658 C   0  0  0  0  0  0  0  0  0  0  0  0
   -0.3510    2.3353    1.4636 C   0  0  0  0  0  0  0  0  0  0  0  0
   -0.3495    3.6953    1.4212 C   0  0  0  0  0  0  0  0  0  0  0  0
   -0.1410    4.3024    0.1956 C   0  0  0  0  0  0  0  0  0  0  0  0
   -0.1363    6.0584    0.1246 Cl  0  0  0  0  0  0  0  0  0  0  0  0
    0.0565    3.5357   -0.9318 C   0  0  0  0  0  0  0  0  0  0  0  0
    0.0452    2.1526   -0.8319 C   0  0  0  0  0  0  0  0  0  0  0  0
   -1.0717   -0.5831   -0.4395 N   0  0  0  0  0  0  0  0  0  0  0  0
   -2.4980   -0.4204   -0.4021 C   0  0  0  0  0  0  0  0  0  0  0  0
   -3.0485    0.5772   -1.1643 C   0  0  0  0  0  0  0  0  0  0  0  0
   -4.4392    0.7333   -1.1179 C   0  0  0  0  0  0  0  0  0  0  0  0
   -5.0959    1.8032   -1.9267 C   0  0  0  0  0  0  0  0  0  0  0  0
   -5.1557   -0.1239   -0.3123 C   0  0  0  0  0  0  0  0  0  0  0  0
   -6.4893   -0.1963   -0.0828 N   0  0  0  0  0  0  0  0  0  0  0  0
   -6.7052   -1.1894    0.7726 N   0  0  0  0  0  0  0  0  0  0  0  0
   -5.5330   -1.7617    1.1011 C   0  0  0  0  0  0  0  0  0  0  0  0
   -5.3899   -2.9042    2.0355 C   0  0  0  0  0  0  0  0  0  0  0  0
   -4.5919   -1.0879    0.4199 N   0  0  0  0  0  0  0  0  0  0  0  0
   -3.2721   -1.2510    0.3886 C   0  0  0  0  0  0  0  0  0  0  0  0
   -0.3378   -1.3722   -1.3652 C   0  0  0  0  0  0  0  0  0  0  0  0
   -0.8405   -1.9876   -2.3270 O   0  0  0  0  0  0  0  0  0  0  0  0
    6.9269    0.0007    3.7829 H   0  0  0  0  0  0  0  0  0  0  0  0
    7.1080    1.3593    2.6419 H   0  0  0  0  0  0  0  0  0  0  0  0
    6.7281   -0.2761    2.0264 H   0  0  0  0  0  0  0  0  0  0  0  0
    4.9270    1.8935    2.9292 H   0  0  0  0  0  0  0  0  0  0  0  0
    4.7192    0.4366    3.9473 H   0  0  0  0  0  0  0  0  0  0  0  0
    4.2321   -1.3923   -0.2663 H   0  0  0  0  0  0  0  0  0  0  0  0
    2.2988   -3.7152   -2.3403 H   0  0  0  0  0  0  0  0  0  0  0  0
    2.9343   -2.8714   -4.5988 H   0  0  0  0  0  0  0  0  0  0  0  0
    2.9531   -1.1130   -4.0153 H   0  0  0  0  0  0  0  0  0  0  0  0
    4.7195   -3.4962   -2.8663 H   0  0  0  0  0  0  0  0  0  0  0  0
    4.7722   -1.7176   -2.3903 H   0  0  0  0  0  0  0  0  0  0  0  0
   -0.4768   -0.2468    1.5242 H   0  0  0  0  0  0  0  0  0  0  0  0
   -0.5170    1.8567    2.4392 H   0  0  0  0  0  0  0  0  0  0  0  0
   -0.5033    4.3156    2.2984 H   0  0  0  0  0  0  0  0  0  0  0  0
    0.2191    4.0132   -1.8876 H   0  0  0  0  0  0  0  0  0  0  0  0
    0.1997    1.5339   -1.7131 H   0  0  0  0  0  0  0  0  0  0  0  0
   -2.4877    1.2537   -1.8053 H   0  0  0  0  0  0  0  0  0  0  0  0
   -6.1324    1.5140   -2.1926 H   0  0  0  0  0  0  0  0  0  0  0  0
   -4.4727    1.9241   -2.8374 H   0  0  0  0  0  0  0  0  0  0  0  0
   -5.1362    2.7105   -1.2989 H   0  0  0  0  0  0  0  0  0  0  0  0
   -4.4579   -2.7965    2.6233 H   0  0  0  0  0  0  0  0  0  0  0  0
   -5.3667   -3.8798    1.5200 H   0  0  0  0  0  0  0  0  0  0  0  0
   -6.2740   -2.9329    2.7189 H   0  0  0  0  0  0  0  0  0  0  0  0
   -2.7931   -2.0263    0.9743 H   0  0  0  0  0  0  0  0  0  0  0  0
  1  2  1  0
  2  3  1  0
  3  4  1  0
  4  5  2  0
  4  6  1  0
  6  7  1  0
  7  8  2  0
  8  9  1  0
  9 10  1  0
 10 11  1  0
  8 12  1  0
 12 13  2  0
 13 14  1  0
 14 15  1  0
 15 16  2  0
 16 17  1  0
 17 18  2  0
 18 19  1  0
 18 20  1  0
 20 21  2  0
 14 22  1  0
 22 23  1  0
 23 24  1  0
 24 25  2  0
 25 26  1  0
 25 27  1  0
 27 28  2  0
 28 29  1  0
 29 30  2  0
 30 31  1  0
 30 32  1  0
 32 33  1  0
 22 34  1  0
 34 35  2  0
 13  6  1  0
 21 15  1  0
 33 23  2  0
 11  9  1  0
 34 12  1  0
 32 27  1  0
  1 36  1  0
  1 37  1  0
  1 38  1  0
  2 39  1  0
  2 40  1  0
  7 41  1  0
  9 42  1  0
 10 43  1  0
 10 44  1  0
 11 45  1  0
 11 46  1  0
 14 47  1  0
 16 48  1  0
 17 49  1  0
 20 50  1  0
 21 51  1  0
 24 52  1  0
 26 53  1  0
 26 54  1  0
 26 55  1  0
 31 56  1  0
 31 57  1  0
 31 58  1  0
 33 59  1  0
M  END
$$$$
