@<TRIPOS>MOLECULE
*****
 59 64 0 0 0
SMALL
GASTEIGER

@<TRIPOS>ATOM
      1 C           6.5375    0.4310    2.8503 C.3     1  UNL1       -0.0305
      2 C           5.0542    0.7924    2.9619 C.3     1  UNL1        0.0915
      3 O           4.3948    0.1426    1.8929 O.3     1  UNL1       -0.4485
      4 C           3.0334    0.2316    1.6604 C.2     1  UNL1        0.4197
      5 O           2.3574    0.9264    2.4429 O.2     1  UNL1       -0.2227
      6 N           2.4585   -0.4739    0.5366 N.ar    1  UNL1       -0.2540
      7 C           3.1493   -1.2416   -0.3379 C.ar    1  UNL1        0.0201
      8 C           2.3341   -1.7882   -1.2961 C.ar    1  UNL1       -0.0137
      9 C           2.7128   -2.6807   -2.4226 C.3     1  UNL1       -0.0137
     10 C           3.0971   -2.1715   -3.7352 C.3     1  UNL1       -0.0456
     11 C           4.1776   -2.5391   -2.8198 C.3     1  UNL1       -0.0456
     12 C           1.0589   -1.3190   -0.9799 C.ar    1  UNL1        0.0641
     13 C           1.1806   -0.5228    0.1397 C.ar    1  UNL1        0.0671
     14 C          -0.1634    0.0326    0.5060 C.3     1  UNL1        0.0978
     15 C          -0.1584    1.5166    0.3658 C.ar    1  UNL1       -0.0208
     16 C          -0.3510    2.3353    1.4636 C.ar    1  UNL1       -0.0550
     17 C          -0.3495    3.6953    1.4212 C.ar    1  UNL1       -0.0431
     18 C          -0.1410    4.3024    0.1956 C.ar    1  UNL1        0.0410
     19 CL         -0.1363    6.0584    0.1246 Cl      1  UNL1       -0.0835
     20 C           0.0565    3.5357   -0.9318 C.ar    1  UNL1       -0.0431
     21 C           0.0452    2.1526   -0.8319 C.ar    1  UNL1       -0.0550
     22 N          -1.0717   -0.5831   -0.4395 N.am    1  UNL1       -0.2530
     23 C          -2.4980   -0.4204   -0.4021 C.ar    1  UNL1        0.0545
     24 C          -3.0485    0.5772   -1.1643 C.ar    1  UNL1       -0.0324
     25 C          -4.4392    0.7333   -1.1179 C.ar    1  UNL1       -0.0041
     26 C          -5.0959    1.8032   -1.9267 C.3     1  UNL1       -0.0361
     27 C          -5.1557   -0.1239   -0.3123 C.ar    1  UNL1        0.1641
     28 N          -6.4893   -0.1963   -0.0828 N.ar    1  UNL1       -0.1292
     29 N          -6.7052   -1.1894    0.7726 N.ar    1  UNL1       -0.1340
     30 C          -5.5330   -1.7617    1.1011 C.ar    1  UNL1        0.1347
     31 C          -5.3899   -2.9042    2.0355 C.3     1  UNL1       -0.0041
     32 N          -4.5919   -1.0879    0.4199 N.ar    1  UNL1       -0.2846
     33 C          -3.2721   -1.2510    0.3886 C.ar    1  UNL1        0.0344
     34 C          -0.3378   -1.3722   -1.3652 C.2     1  UNL1        0.2538
     35 O          -0.8405   -1.9876   -2.3270 O.2     1  UNL1       -0.2695
     36 H           6.9269    0.0007    3.7829 H       1  UNL1        0.0262
     37 H           7.1080    1.3593    2.6419 H       1  UNL1        0.0262
     38 H           6.7281   -0.2761    2.0264 H       1  UNL1        0.0262
     39 H           4.9270    1.8935    2.9292 H       1  UNL1        0.0695
     40 H           4.7192    0.4366    3.9473 H       1  UNL1        0.0695
     41 H           4.2321   -1.3923   -0.2663 H       1  UNL1        0.0818
     42 H           2.2988   -3.7152   -2.3403 H       1  UNL1        0.0349
     43 H           2.9343   -2.8714   -4.5988 H       1  UNL1        0.0271
     44 H           2.9531   -1.1130   -4.0153 H       1  UNL1        0.0271
     45 H           4.7195   -3.4962   -2.8663 H       1  UNL1        0.0271
     46 H           4.7722   -1.7176   -2.3903 H       1  UNL1        0.0271
     47 H          -0.4768   -0.2468    1.5242 H       1  UNL1        0.0620
     48 H          -0.5170    1.8567    2.4392 H       1  UNL1        0.0621
     49 H          -0.5033    4.3156    2.2984 H       1  UNL1        0.0632
     50 H           0.2191    4.0132   -1.8876 H       1  UNL1        0.0632
     51 H           0.1997    1.5339   -1.7131 H       1  UNL1        0.0621
     52 H          -2.4877    1.2537   -1.8053 H       1  UNL1        0.0640
     53 H          -6.1324    1.5140   -2.1926 H       1  UNL1        0.0279
     54 H          -4.4727    1.9241   -2.8374 H       1  UNL1        0.0279
     55 H          -5.1362    2.7105   -1.2989 H       1  UNL1        0.0279
     56 H          -4.4579   -2.7965    2.6233 H       1  UNL1        0.0308
     57 H          -5.3667   -3.8798    1.5200 H       1  UNL1        0.0308
     58 H          -6.2740   -2.9329    2.7189 H       1  UNL1        0.0308
     59 H          -2.7931   -2.0263    0.9743 H       1  UNL1        0.0833
@<TRIPOS>BOND
     1     1     2    1
     2     2     3    1
     3     3     4    1
     4     4     5    2
     5     4     6   am
     6     6     7   ar
     7     7     8   ar
     8     8     9    1
     9     9    10    1
    10    10    11    1
    11     8    12   ar
    12    12    13   ar
    13    13    14    1
    14    14    15    1
    15    15    16   ar
    16    16    17   ar
    17    17    18   ar
    18    18    19    1
    19    18    20   ar
    20    20    21   ar
    21    14    22    1
    22    22    23    1
    23    23    24   ar
    24    24    25   ar
    25    25    26    1
    26    25    27   ar
    27    27    28   ar
    28    28    29   ar
    29    29    30   ar
    30    30    31    1
    31    30    32   ar
    32    32    33   ar
    33    22    34   am
    34    34    35    2
    35    13     6   ar
    36    21    15   ar
    37    33    23   ar
    38    11     9    1
    39    34    12    1
    40    32    27   ar
    41     1    36    1
    42     1    37    1
    43     1    38    1
    44     2    39    1
    45     2    40    1
    46     7    41    1
    47     9    42    1
    48    10    43    1
    49    10    44    1
    50    11    45    1
    51    11    46    1
    52    14    47    1
    53    16    48    1
    54    17    49    1
    55    20    50    1
    56    21    51    1
    57    24    52    1
    58    26    53    1
    59    26    54    1
    60    26    55    1
    61    31    56    1
    62    31    57    1
    63    31    58    1
    64    33    59    1
