@<TRIPOS>MOLECULE
*****
 53 55 0 0 0
SMALL
GASTEIGER

@<TRIPOS>ATOM
      1 C          -0.5801   -0.9973   -2.9125 C.3     1  UNL1       -0.0464
      2 C          -0.8451   -0.7793   -1.4660 C.3     1  UNL1        0.0448
      3 C          -2.2947   -1.1703   -1.1089 C.3     1  UNL1        0.0292
      4 N          -2.7638   -0.2469   -0.0965 N.pl3   1  UNL1       -0.3266
      5 C          -4.0313    0.3890   -0.1464 C.ar    1  UNL1        0.0417
      6 C          -4.0505    1.7816   -0.3065 C.ar    1  UNL1       -0.0374
      7 C          -5.2455    2.4627   -0.3659 C.ar    1  UNL1       -0.0247
      8 C          -6.4604    1.8146   -0.2719 C.ar    1  UNL1        0.1241
      9 F          -7.6502    2.4714   -0.3288 F       1  UNL1       -0.2055
     10 C          -6.4318    0.4462   -0.1147 C.ar    1  UNL1       -0.0130
     11 C          -5.2369   -0.2796   -0.0501 C.ar    1  UNL1        0.0785
     12 C          -5.2696   -1.7536    0.1225 C.3     1  UNL1        0.4192
     13 F          -4.5932   -2.1219    1.2698 F       1  UNL1       -0.1658
     14 F          -6.6085   -2.1084    0.3833 F       1  UNL1       -0.1658
     15 F          -4.9269   -2.4635   -0.9895 F       1  UNL1       -0.1658
     16 C          -1.8697    0.0164    1.0117 C.3     1  UNL1        0.0267
     17 C          -0.6131    0.6494    0.4037 C.3     1  UNL1        0.0366
     18 N          -0.5848    0.5698   -1.0137 N.3     1  UNL1       -0.1703
     19 S           0.7916    1.3024   -1.6589 S.O2    1  UNL1        0.0674
     20 O           0.7567    2.7780   -1.2619 O.2     1  UNL1       -0.1523
     21 O           0.8181    1.3134   -3.1602 O.2     1  UNL1       -0.1523
     22 C           2.2723    0.5622   -1.1447 C.ar    1  UNL1        0.1430
     23 C           3.2898   -0.0579   -1.7338 C.ar    1  UNL1       -0.0277
     24 C           4.3189   -0.5271   -0.9939 C.ar    1  UNL1       -0.0461
     25 C           4.3029   -0.3613    0.3344 C.ar    1  UNL1        0.0408
     26 C           5.1896   -0.7133    1.4304 C.3     1  UNL1        0.2681
     27 O           5.0913   -2.0913    1.7127 O.3     1  UNL1       -0.3679
     28 C           6.5778   -0.3828    1.0329 C.2     1  UNL1        0.2565
     29 N           6.9338    0.9307    0.6970 N.am    1  UNL1       -0.3264
     30 O           7.4545   -1.2819    0.9929 O.2     1  UNL1       -0.2721
     31 C           4.7697    0.0235    2.6808 C.3     1  UNL1        0.4316
     32 F           5.5681   -0.2678    3.7468 F       1  UNL1       -0.1667
     33 F           4.6686    1.3842    2.4435 F       1  UNL1       -0.1667
     34 F           3.4780   -0.4225    2.9881 F       1  UNL1       -0.1667
     35 S           2.7584    0.5041    0.5869 S.2     1  UNL1       -0.0698
     36 H           0.5271   -1.1088   -3.0762 H       1  UNL1        0.0246
     37 H          -0.9245   -0.2133   -3.5857 H       1  UNL1        0.0246
     38 H          -1.0296   -1.9538   -3.2227 H       1  UNL1        0.0246
     39 H          -0.1793   -1.4483   -0.8867 H       1  UNL1        0.0493
     40 H          -2.2651   -2.2135   -0.8040 H       1  UNL1        0.0479
     41 H          -2.9210   -1.0427   -2.0213 H       1  UNL1        0.0479
     42 H          -3.1409    2.3608   -0.3877 H       1  UNL1        0.0637
     43 H          -5.2571    3.5566   -0.4915 H       1  UNL1        0.0647
     44 H          -7.3746   -0.0776   -0.0396 H       1  UNL1        0.0652
     45 H          -2.2950    0.6728    1.7686 H       1  UNL1        0.0477
     46 H          -1.5961   -0.9318    1.5474 H       1  UNL1        0.0477
     47 H           0.2914    0.2821    0.9270 H       1  UNL1        0.0459
     48 H          -0.6689    1.7466    0.6679 H       1  UNL1        0.0459
     49 H           3.2880   -0.1899   -2.8577 H       1  UNL1        0.0643
     50 H           5.2008   -1.0590   -1.4592 H       1  UNL1        0.0627
     51 H           5.2157   -2.6070    0.8761 H       1  UNL1        0.2116
     52 H           7.9011    1.2779    0.8621 H       1  UNL1        0.1450
     53 H           6.2440    1.5760    0.2804 H       1  UNL1        0.1450
@<TRIPOS>BOND
     1     1     2    1
     2     2     3    1
     3     3     4    1
     4     4     5    1
     5     5     6   ar
     6     6     7   ar
     7     7     8   ar
     8     8     9    1
     9     8    10   ar
    10    10    11   ar
    11    11    12    1
    12    12    13    1
    13    12    14    1
    14    12    15    1
    15     4    16    1
    16    16    17    1
    17    17    18    1
    18    18    19    1
    19    19    20    2
    20    19    21    2
    21    19    22    1
    22    22    23   ar
    23    23    24   ar
    24    24    25   ar
    25    25    26    1
    26    26    27    1
    27    26    28    1
    28    28    29   am
    29    28    30    2
    30    26    31    1
    31    31    32    1
    32    31    33    1
    33    31    34    1
    34    25    35   ar
    35    18     2    1
    36    35    22   ar
    37    11     5   ar
    38     1    36    1
    39     1    37    1
    40     1    38    1
    41     2    39    1
    42     3    40    1
    43     3    41    1
    44     6    42    1
    45     7    43    1
    46    10    44    1
    47    16    45    1
    48    16    46    1
    49    17    47    1
    50    17    48    1
    51    23    49    1
    52    24    50    1
    53    27    51    1
    54    29    52    1
    55    29    53    1
