
     RDKit          3D

 53 55  0  0  0  0  0  0  0  0999 V2000
   -0.5801   -0.9973   -2.9125 C   0  0  0  0  0  0  0  0  0  0  0  0
   -0.8451   -0.7793   -1.4660 C   0  0  2  0  0  0  0  0  0  0  0  0
   -2.2947   -1.1703   -1.1089 C   0  0  0  0  0  0  0  0  0  0  0  0
   -2.7638   -0.2469   -0.0965 N   0  0  0  0  0  0  0  0  0  0  0  0
   -4.0313    0.3890   -0.1464 C   0  0  0  0  0  0  0  0  0  0  0  0
   -4.0505    1.7816   -0.3065 C   0  0  0  0  0  0  0  0  0  0  0  0
   -5.2455    2.4627   -0.3659 C   0  0  0  0  0  0  0  0  0  0  0  0
   -6.4604    1.8146   -0.2719 C   0  0  0  0  0  0  0  0  0  0  0  0
   -7.6502    2.4714   -0.3288 F   0  0  0  0  0  0  0  0  0  0  0  0
   -6.4318    0.4462   -0.1147 C   0  0  0  0  0  0  0  0  0  0  0  0
   -5.2369   -0.2796   -0.0501 C   0  0  0  0  0  0  0  0  0  0  0  0
   -5.2696   -1.7536    0.1225 C   0  0  0  0  0  0  0  0  0  0  0  0
   -4.5932   -2.1219    1.2698 F   0  0  0  0  0  0  0  0  0  0  0  0
   -6.6085   -2.1084    0.3833 F   0  0  0  0  0  0  0  0  0  0  0  0
   -4.9269   -2.4635   -0.9895 F   0  0  0  0  0  0  0  0  0  0  0  0
   -1.8697    0.0164    1.0117 C   0  0  0  0  0  0  0  0  0  0  0  0
   -0.6131    0.6494    0.4037 C   0  0  0  0  0  0  0  0  0  0  0  0
   -0.5848    0.5698   -1.0137 N   0  0  0  0  0  0  0  0  0  0  0  0
    0.7916    1.3024   -1.6589 S   0  0  0  0  0  6  0  0  0  0  0  0
    0.7567    2.7780   -1.2619 O   0  0  0  0  0  0  0  0  0  0  0  0
    0.8181    1.3134   -3.1602 O   0  0  0  0  0  0  0  0  0  0  0  0
    2.2723    0.5622   -1.1447 C   0  0  0  0  0  0  0  0  0  0  0  0
    3.2898   -0.0579   -1.7338 C   0  0  0  0  0  0  0  0  0  0  0  0
    4.3189   -0.5271   -0.9939 C   0  0  0  0  0  0  0  0  0  0  0  0
    4.3029   -0.3613    0.3344 C   0  0  0  0  0  0  0  0  0  0  0  0
    5.1896   -0.7133    1.4304 C   0  0  1  0  0  0  0  0  0  0  0  0
    5.0913   -2.0913    1.7127 O   0  0  0  0  0  0  0  0  0  0  0  0
    6.5778   -0.3828    1.0329 C   0  0  0  0  0  0  0  0  0  0  0  0
    6.9338    0.9307    0.6970 N   0  0  0  0  0  0  0  0  0  0  0  0
    7.4545   -1.2819    0.9929 O   0  0  0  0  0  0  0  0  0  0  0  0
    4.7697    0.0235    2.6808 C   0  0  0  0  0  0  0  0  0  0  0  0
    5.5681   -0.2678    3.7468 F   0  0  0  0  0  0  0  0  0  0  0  0
    4.6686    1.3842    2.4435 F   0  0  0  0  0  0  0  0  0  0  0  0
    3.4780   -0.4225    2.9881 F   0  0  0  0  0  0  0  0  0  0  0  0
    2.7584    0.5041    0.5869 S   0  0  0  0  0  0  0  0  0  0  0  0
    0.5271   -1.1088   -3.0762 H   0  0  0  0  0  0  0  0  0  0  0  0
   -0.9245   -0.2133   -3.5857 H   0  0  0  0  0  0  0  0  0  0  0  0
   -1.0296   -1.9538   -3.2227 H   0  0  0  0  0  0  0  0  0  0  0  0
   -0.1793   -1.4483   -0.8867 H   0  0  0  0  0  0  0  0  0  0  0  0
   -2.2651   -2.2135   -0.8040 H   0  0  0  0  0  0  0  0  0  0  0  0
   -2.9210   -1.0427   -2.0213 H   0  0  0  0  0  0  0  0  0  0  0  0
   -3.1409    2.3608   -0.3877 H   0  0  0  0  0  0  0  0  0  0  0  0
   -5.2571    3.5566   -0.4915 H   0  0  0  0  0  0  0  0  0  0  0  0
   -7.3746   -0.0776   -0.0396 H   0  0  0  0  0  0  0  0  0  0  0  0
   -2.2950    0.6728    1.7686 H   0  0  0  0  0  0  0  0  0  0  0  0
   -1.5961   -0.9318    1.5474 H   0  0  0  0  0  0  0  0  0  0  0  0
    0.2914    0.2821    0.9270 H   0  0  0  0  0  0  0  0  0  0  0  0
   -0.6689    1.7466    0.6679 H   0  0  0  0  0  0  0  0  0  0  0  0
    3.2880   -0.1899   -2.8577 H   0  0  0  0  0  0  0  0  0  0  0  0
    5.2008   -1.0590   -1.4592 H   0  0  0  0  0  0  0  0  0  0  0  0
    5.2157   -2.6070    0.8761 H   0  0  0  0  0  0  0  0  0  0  0  0
    7.9011    1.2779    0.8621 H   0  0  0  0  0  0  0  0  0  0  0  0
    6.2440    1.5760    0.2804 H   0  0  0  0  0  0  0  0  0  0  0  0
  1  2  1  0
  2  3  1  0
  3  4  1  0
  4  5  1  0
  5  6  2  0
  6  7  1  0
  7  8  2  0
  8  9  1  0
  8 10  1  0
 10 11  2  0
 11 12  1  0
 12 13  1  0
 12 14  1  0
 12 15  1  0
  4 16  1  0
 16 17  1  0
 17 18  1  0
 18 19  1  0
 19 20  2  0
 19 21  2  0
 19 22  1  0
 22 23  2  0
 23 24  1  0
 24 25  2  0
 25 26  1  0
 26 27  1  1
 26 28  1  0
 28 29  1  0
 28 30  2  0
 26 31  1  0
 31 32  1  0
 31 33  1  0
 31 34  1  0
 25 35  1  0
 18  2  1  0
 35 22  1  0
 11  5  1  0
  1 36  1  0
  1 37  1  0
  1 38  1  0
  2 39  1  1
  3 40  1  0
  3 41  1  0
  6 42  1  0
  7 43  1  0
 10 44  1  0
 16 45  1  0
 16 46  1  0
 17 47  1  0
 17 48  1  0
 23 49  1  0
 24 50  1  0
 27 51  1  0
 29 52  1  0
 29 53  1  0
M  END
$$$$
