@<TRIPOS>MOLECULE
*****
 39 41 0 0 0
SMALL
GASTEIGER

@<TRIPOS>ATOM
      1 O          -3.6667    2.1481   -1.0295 O.2     1  UNL1       -0.2507
      2 C          -4.3636    1.3094   -0.4179 C.2     1  UNL1        0.3091
      3 O          -5.5296    1.6665    0.2418 O.3     1  UNL1       -0.4804
      4 C          -3.9493   -0.1327   -0.3809 C.3     1  UNL1        0.0706
      5 C          -3.7407   -0.5521    1.0366 C.3     1  UNL1       -0.0377
      6 C          -2.5991   -1.5054    1.2310 C.3     1  UNL1       -0.0378
      7 C          -1.3574   -1.1431    0.4970 C.3     1  UNL1        0.0205
      8 N          -1.5252   -0.4164   -0.7006 N.3     1  UNL1       -0.1758
      9 S          -0.5999    0.9941   -0.8637 S.O2    1  UNL1        0.0609
     10 O          -0.8599    1.5938   -2.2188 O.2     1  UNL1       -0.1528
     11 O          -0.8456    1.9580    0.2406 O.2     1  UNL1       -0.1528
     12 C           1.1178    0.5913   -0.8285 C.ar    1  UNL1        0.1061
     13 C           1.8084    0.2963   -1.9860 C.ar    1  UNL1       -0.0348
     14 C           3.1528   -0.0178   -1.9486 C.ar    1  UNL1       -0.0522
     15 C           3.8576   -0.0500   -0.7621 C.ar    1  UNL1       -0.0178
     16 C           5.2007   -0.3647   -0.7327 C.ar    1  UNL1       -0.0540
     17 C           5.8930   -0.3956    0.4391 C.ar    1  UNL1       -0.0612
     18 C           5.2309   -0.1040    1.6261 C.ar    1  UNL1       -0.0612
     19 C           3.8850    0.2099    1.5835 C.ar    1  UNL1       -0.0540
     20 C           3.1741    0.2433    0.3952 C.ar    1  UNL1       -0.0160
     21 C           1.8299    0.5568    0.3532 C.ar    1  UNL1       -0.0276
     22 C          -2.8054   -0.4032   -1.2957 C.3     1  UNL1        0.0334
     23 H          -5.6812    2.6572    0.4233 H       1  UNL1        0.2951
     24 H          -4.8438   -0.6877   -0.7918 H       1  UNL1        0.0427
     25 H          -3.6117    0.3369    1.6866 H       1  UNL1        0.0274
     26 H          -4.6649   -1.0736    1.4241 H       1  UNL1        0.0274
     27 H          -2.9118   -2.5566    0.9709 H       1  UNL1        0.0278
     28 H          -2.3689   -1.5267    2.3174 H       1  UNL1        0.0278
     29 H          -0.6840   -0.5520    1.1750 H       1  UNL1        0.0444
     30 H          -0.7910   -2.0774    0.2761 H       1  UNL1        0.0444
     31 H           1.2482    0.3232   -2.9174 H       1  UNL1        0.0637
     32 H           3.6923   -0.2493   -2.8624 H       1  UNL1        0.0624
     33 H           5.7037   -0.5883   -1.6530 H       1  UNL1        0.0624
     34 H           6.9432   -0.6361    0.5106 H       1  UNL1        0.0618
     35 H           5.7786   -0.1287    2.5504 H       1  UNL1        0.0618
     36 H           3.3494    0.4414    2.5052 H       1  UNL1        0.0624
     37 H           1.3182    0.7853    1.2982 H       1  UNL1        0.0643
     38 H          -2.9718   -1.3549   -1.8520 H       1  UNL1        0.0452
     39 H          -2.8126    0.4049   -2.0789 H       1  UNL1        0.0452
@<TRIPOS>BOND
     1     1     2    2
     2     2     3    1
     3     2     4    1
     4     4     5    1
     5     5     6    1
     6     6     7    1
     7     7     8    1
     8     8     9    1
     9     9    10    2
    10     9    11    2
    11     9    12    1
    12    12    13   ar
    13    13    14   ar
    14    14    15   ar
    15    15    16   ar
    16    16    17   ar
    17    17    18   ar
    18    18    19   ar
    19    19    20   ar
    20    20    21   ar
    21     8    22    1
    22    22     4    1
    23    21    12   ar
    24    20    15   ar
    25     3    23    1
    26     4    24    1
    27     5    25    1
    28     5    26    1
    29     6    27    1
    30     6    28    1
    31     7    29    1
    32     7    30    1
    33    13    31    1
    34    14    32    1
    35    16    33    1
    36    17    34    1
    37    18    35    1
    38    19    36    1
    39    21    37    1
    40    22    38    1
    41    22    39    1
