
     RDKit          3D

 39 41  0  0  0  0  0  0  0  0999 V2000
   -3.6667    2.1481   -1.0295 O   0  0  0  0  0  0  0  0  0  0  0  0
   -4.3636    1.3094   -0.4179 C   0  0  0  0  0  0  0  0  0  0  0  0
   -5.5296    1.6665    0.2418 O   0  0  0  0  0  0  0  0  0  0  0  0
   -3.9493   -0.1327   -0.3809 C   0  0  2  0  0  0  0  0  0  0  0  0
   -3.7407   -0.5521    1.0366 C   0  0  0  0  0  0  0  0  0  0  0  0
   -2.5991   -1.5054    1.2310 C   0  0  0  0  0  0  0  0  0  0  0  0
   -1.3574   -1.1431    0.4970 C   0  0  0  0  0  0  0  0  0  0  0  0
   -1.5252   -0.4164   -0.7006 N   0  0  0  0  0  0  0  0  0  0  0  0
   -0.5999    0.9941   -0.8637 S   0  0  0  0  0  6  0  0  0  0  0  0
   -0.8599    1.5938   -2.2188 O   0  0  0  0  0  0  0  0  0  0  0  0
   -0.8456    1.9580    0.2406 O   0  0  0  0  0  0  0  0  0  0  0  0
    1.1178    0.5913   -0.8285 C   0  0  0  0  0  0  0  0  0  0  0  0
    1.8084    0.2963   -1.9860 C   0  0  0  0  0  0  0  0  0  0  0  0
    3.1528   -0.0178   -1.9486 C   0  0  0  0  0  0  0  0  0  0  0  0
    3.8576   -0.0500   -0.7621 C   0  0  0  0  0  0  0  0  0  0  0  0
    5.2007   -0.3647   -0.7327 C   0  0  0  0  0  0  0  0  0  0  0  0
    5.8930   -0.3956    0.4391 C   0  0  0  0  0  0  0  0  0  0  0  0
    5.2309   -0.1040    1.6261 C   0  0  0  0  0  0  0  0  0  0  0  0
    3.8850    0.2099    1.5835 C   0  0  0  0  0  0  0  0  0  0  0  0
    3.1741    0.2433    0.3952 C   0  0  0  0  0  0  0  0  0  0  0  0
    1.8299    0.5568    0.3532 C   0  0  0  0  0  0  0  0  0  0  0  0
   -2.8054   -0.4032   -1.2957 C   0  0  0  0  0  0  0  0  0  0  0  0
   -5.6812    2.6572    0.4233 H   0  0  0  0  0  0  0  0  0  0  0  0
   -4.8438   -0.6877   -0.7918 H   0  0  0  0  0  0  0  0  0  0  0  0
   -3.6117    0.3369    1.6866 H   0  0  0  0  0  0  0  0  0  0  0  0
   -4.6649   -1.0736    1.4241 H   0  0  0  0  0  0  0  0  0  0  0  0
   -2.9118   -2.5566    0.9709 H   0  0  0  0  0  0  0  0  0  0  0  0
   -2.3689   -1.5267    2.3174 H   0  0  0  0  0  0  0  0  0  0  0  0
   -0.6840   -0.5520    1.1750 H   0  0  0  0  0  0  0  0  0  0  0  0
   -0.7910   -2.0774    0.2761 H   0  0  0  0  0  0  0  0  0  0  0  0
    1.2482    0.3232   -2.9174 H   0  0  0  0  0  0  0  0  0  0  0  0
    3.6923   -0.2493   -2.8624 H   0  0  0  0  0  0  0  0  0  0  0  0
    5.7037   -0.5883   -1.6530 H   0  0  0  0  0  0  0  0  0  0  0  0
    6.9432   -0.6361    0.5106 H   0  0  0  0  0  0  0  0  0  0  0  0
    5.7786   -0.1287    2.5504 H   0  0  0  0  0  0  0  0  0  0  0  0
    3.3494    0.4414    2.5052 H   0  0  0  0  0  0  0  0  0  0  0  0
    1.3182    0.7853    1.2982 H   0  0  0  0  0  0  0  0  0  0  0  0
   -2.9718   -1.3549   -1.8520 H   0  0  0  0  0  0  0  0  0  0  0  0
   -2.8126    0.4049   -2.0789 H   0  0  0  0  0  0  0  0  0  0  0  0
  1  2  2  0
  2  3  1  0
  2  4  1  0
  4  5  1  0
  5  6  1  0
  6  7  1  0
  7  8  1  0
  8  9  1  0
  9 10  2  0
  9 11  2  0
  9 12  1  0
 12 13  2  0
 13 14  1  0
 14 15  2  0
 15 16  1  0
 16 17  2  0
 17 18  1  0
 18 19  2  0
 19 20  1  0
 20 21  2  0
  8 22  1  0
 22  4  1  0
 21 12  1  0
 20 15  1  0
  3 23  1  0
  4 24  1  6
  5 25  1  0
  5 26  1  0
  6 27  1  0
  6 28  1  0
  7 29  1  0
  7 30  1  0
 13 31  1  0
 14 32  1  0
 16 33  1  0
 17 34  1  0
 18 35  1  0
 19 36  1  0
 21 37  1  0
 22 38  1  0
 22 39  1  0
M  END
$$$$
