@<TRIPOS>MOLECULE
*****
 150 151 0 0 0
SMALL
GASTEIGER

@<TRIPOS>ATOM
      1 C          -1.1557    2.0889    0.4862 C.2     1  UNL1       -0.0551
      2 C          -1.1775    1.6768    1.7276 C.2     1  UNL1        0.0225
      3 C          -0.1635    0.7104    2.0978 C.2     1  UNL1        0.3322
      4 O          -0.3578    0.5336    3.3349 O.2     1  UNL1       -0.2456
      5 O           0.7313    0.1824    1.2296 O.3     1  UNL1       -0.4573
      6 C           1.7151   -0.7702    1.6963 C.3     1  UNL1        0.1142
      7 C           3.0716   -0.2639    1.4070 C.3     1  UNL1        0.0204
      8 C           3.1397    1.0846    2.1634 C.3     1  UNL1       -0.0566
      9 C           4.2358   -1.1065    1.7504 C.3     1  UNL1        0.0668
     10 O           4.3909   -2.3140    1.2197 O.3     1  UNL1       -0.3791
     11 C           4.6173   -3.4620    1.8380 C.3     1  UNL1        0.0368
     12 C           5.5583   -0.3245    1.4671 C.3     1  UNL1       -0.0168
     13 C           6.6551   -1.2413    1.8653 C.3     1  UNL1       -0.0600
     14 C           5.6257    0.2591    0.1495 C.3     1  UNL1       -0.0414
     15 C           6.8487    1.0430   -0.1886 C.3     1  UNL1        0.0065
     16 C           8.1207    0.3032   -0.2876 C.2     1  UNL1        0.1386
     17 O           8.5229   -0.8272   -0.2757 O.2     1  UNL1       -0.2970
     18 C           9.2490    1.2030   -0.4515 C.3     1  UNL1        0.0409
     19 C           9.2583    1.8639   -1.8382 C.3     1  UNL1       -0.0533
     20 C          10.6445    0.6841   -0.2185 C.3     1  UNL1        0.0680
     21 C          11.5691    1.8917   -0.4591 C.3     1  UNL1       -0.0159
     22 C          12.9856    1.6165   -0.2451 C.3     1  UNL1        0.0471
     23 C          13.3336    1.3497    1.1762 C.2     1  UNL1        0.3048
     24 O          14.6330    0.9295    1.2972 O.3     1  UNL1       -0.4806
     25 O          12.6069    1.4621    2.2100 O.2     1  UNL1       -0.2510
     26 O          10.8292    0.1024    0.9722 O.3     1  UNL1       -0.3791
     27 C          11.3573   -1.1626    0.9050 C.3     1  UNL1        0.0368
     28 C           1.3121   -2.1441    1.3187 C.3     1  UNL1        0.0118
     29 C          -0.0876   -2.3265    1.9861 C.3     1  UNL1       -0.0556
     30 C           1.1874   -2.4917   -0.0878 C.2     1  UNL1       -0.0792
     31 C           0.0219   -2.8873   -0.6386 C.2     1  UNL1       -0.0591
     32 C          -0.4618   -3.3089   -1.9865 C.3     1  UNL1        0.0788
     33 C          -1.3838   -4.4716   -1.9109 C.3     1  UNL1        0.0039
     34 C          -2.6655   -4.2808   -1.1839 C.3     1  UNL1        0.0669
     35 O          -3.3404   -5.5058   -1.1785 O.3     1  UNL1       -0.3791
     36 C          -3.5542   -5.9671    0.1190 C.3     1  UNL1        0.0368
     37 C          -3.5959   -3.3008   -1.8553 C.3     1  UNL1        0.0007
     38 C          -3.9724   -3.7687   -3.2532 C.3     1  UNL1       -0.0566
     39 C          -4.8801   -3.2954   -1.0768 C.2     1  UNL1       -0.0802
     40 C          -5.3935   -2.1869   -0.5204 C.2     1  UNL1       -0.0592
     41 C          -6.6347   -1.8124    0.3116 C.3     1  UNL1        0.0788
     42 C          -7.3116   -0.6481   -0.3156 C.3     1  UNL1        0.0037
     43 C          -8.5643   -0.1798    0.3225 C.3     1  UNL1        0.0669
     44 O          -9.6444   -1.0138    0.2569 O.3     1  UNL1       -0.3793
     45 C         -10.3060   -1.3099    1.4065 C.3     1  UNL1        0.0368
     46 C          -8.9001    1.2151   -0.2476 C.3     1  UNL1        0.0200
     47 C         -10.2157    1.7320    0.3113 C.3     1  UNL1       -0.0567
     48 C          -7.8226    2.1457    0.1989 C.3     1  UNL1        0.1119
     49 C          -7.3477    3.0903   -0.9016 C.3     1  UNL1        0.0065
     50 C          -6.0720    3.6790   -0.3308 C.2     1  UNL1       -0.0569
     51 C          -4.9009    3.5166   -1.1834 C.3     1  UNL1       -0.0044
     52 C          -4.0728    4.7619   -1.2972 C.3     1  UNL1        0.0656
     53 C          -2.8781    4.4335   -2.2360 C.3     1  UNL1       -0.0050
     54 C          -1.9758    3.4949   -1.5763 C.2     1  UNL1       -0.0702
     55 C          -0.9524    3.1224   -2.6157 C.3     1  UNL1       -0.0434
     56 C          -1.9011    2.9926   -0.3690 C.2     1  UNL1       -0.0625
     57 O          -4.7389    5.8690   -1.7472 O.3     1  UNL1       -0.3791
     58 C          -4.5975    7.0068   -0.9702 C.3     1  UNL1        0.0368
     59 C          -6.2683    4.2157    0.8563 C.2     1  UNL1        0.0219
     60 C          -7.3975    3.9310    1.7716 C.2     1  UNL1        0.3322
     61 O          -7.4731    4.5117    2.8809 O.2     1  UNL1       -0.2456
     62 O          -8.3450    2.9724    1.2787 O.3     1  UNL1       -0.4576
     63 O          -6.1555   -1.5086    1.5840 O.3     1  UNL1       -0.3757
     64 C          -6.5152   -2.4426    2.5175 C.3     1  UNL1        0.0372
     65 O          -0.9406   -2.2220   -2.6917 O.3     1  UNL1       -0.3757
     66 C          -0.1305   -2.0687   -3.8070 C.3     1  UNL1        0.0372
     67 H          -0.4864    1.7970   -0.2865 H       1  UNL1        0.0620
     68 H          -1.9787    2.1570    2.2588 H       1  UNL1        0.0689
     69 H           1.5651   -0.7541    2.8124 H       1  UNL1        0.0743
     70 H           3.0531    0.0459    0.3280 H       1  UNL1        0.0359
     71 H           3.2966    1.9289    1.4677 H       1  UNL1        0.0234
     72 H           3.8392    1.0435    3.0117 H       1  UNL1        0.0234
     73 H           2.1602    1.3337    2.6422 H       1  UNL1        0.0234
     74 H           4.2890   -1.1873    2.8491 H       1  UNL1        0.0602
     75 H           3.8555   -3.8028    2.6118 H       1  UNL1        0.0524
     76 H           4.4415   -4.2777    1.0397 H       1  UNL1        0.0524
     77 H           5.5674   -3.7564    2.2547 H       1  UNL1        0.0524
     78 H           5.6163    0.5244    2.2231 H       1  UNL1        0.0323
     79 H           6.8285   -2.1157    1.2542 H       1  UNL1        0.0233
     80 H           7.5926   -0.6776    2.1652 H       1  UNL1        0.0233
     81 H           6.3820   -1.6882    2.8926 H       1  UNL1        0.0233
     82 H           4.7768    0.9867   -0.0845 H       1  UNL1        0.0273
     83 H           5.5115   -0.4731   -0.7043 H       1  UNL1        0.0273
     84 H           6.9567    1.9364    0.5008 H       1  UNL1        0.0342
     85 H           6.7146    1.5690   -1.1931 H       1  UNL1        0.0342
     86 H           9.0872    2.0926    0.2550 H       1  UNL1        0.0400
     87 H          10.0249    1.2975   -2.4563 H       1  UNL1        0.0237
     88 H           9.5019    2.9153   -1.7362 H       1  UNL1        0.0237
     89 H           8.2867    1.6753   -2.3325 H       1  UNL1        0.0237
     90 H          10.9405   -0.0176   -1.0764 H       1  UNL1        0.0603
     91 H          11.4221    2.3070   -1.4930 H       1  UNL1        0.0295
     92 H          11.2234    2.7115    0.2334 H       1  UNL1        0.0295
     93 H          13.5855    2.5047   -0.5673 H       1  UNL1        0.0378
     94 H          13.3584    0.7852   -0.8977 H       1  UNL1        0.0378
     95 H          15.0364    0.8188    2.2222 H       1  UNL1        0.2951
     96 H          11.4758   -1.5156    1.9669 H       1  UNL1        0.0524
     97 H          10.7571   -1.8896    0.3413 H       1  UNL1        0.0524
     98 H          12.3773   -1.1532    0.4581 H       1  UNL1        0.0524
     99 H           1.9075   -2.8859    1.8379 H       1  UNL1        0.0376
    100 H          -0.3694   -3.3766    1.9309 H       1  UNL1        0.0237
    101 H          -0.8031   -1.6007    1.6173 H       1  UNL1        0.0237
    102 H           0.1451   -2.1405    3.0741 H       1  UNL1        0.0237
    103 H           2.1870   -2.3580   -0.5341 H       1  UNL1        0.0574
    104 H          -0.8226   -2.9170    0.0362 H       1  UNL1        0.0595
    105 H           0.4266   -3.6715   -2.5892 H       1  UNL1        0.0641
    106 H          -0.8191   -5.2667   -1.3373 H       1  UNL1        0.0319
    107 H          -1.5059   -4.9038   -2.9259 H       1  UNL1        0.0319
    108 H          -2.5022   -3.9846   -0.1577 H       1  UNL1        0.0602
    109 H          -2.5799   -6.1163    0.6582 H       1  UNL1        0.0524
    110 H          -4.0124   -6.9744    0.0291 H       1  UNL1        0.0524
    111 H          -4.2472   -5.3478    0.7128 H       1  UNL1        0.0524
    112 H          -3.2360   -2.2557   -1.8273 H       1  UNL1        0.0365
    113 H          -4.4620   -2.8647   -3.7245 H       1  UNL1        0.0236
    114 H          -4.7957   -4.5147   -3.1505 H       1  UNL1        0.0236
    115 H          -3.1436   -4.1372   -3.8461 H       1  UNL1        0.0236
    116 H          -5.5375   -4.1382   -0.8724 H       1  UNL1        0.0573
    117 H          -4.8237   -1.2497   -0.6549 H       1  UNL1        0.0595
    118 H          -7.2578   -2.6980    0.3179 H       1  UNL1        0.0641
    119 H          -6.5944    0.1963   -0.4812 H       1  UNL1        0.0318
    120 H          -7.6124   -0.9961   -1.3731 H       1  UNL1        0.0318
    121 H          -8.3992    0.0459    1.4239 H       1  UNL1        0.0600
    122 H         -11.1415   -2.0186    1.1130 H       1  UNL1        0.0524
    123 H          -9.6937   -1.8595    2.1079 H       1  UNL1        0.0524
    124 H         -10.7916   -0.4136    1.8632 H       1  UNL1        0.0524
    125 H          -8.9893    1.1307   -1.3549 H       1  UNL1        0.0359
    126 H         -11.0901    1.1544    0.0137 H       1  UNL1        0.0234
    127 H         -10.1968    1.8382    1.4110 H       1  UNL1        0.0234
    128 H         -10.3083    2.7879   -0.0801 H       1  UNL1        0.0234
    129 H          -6.9340    1.6673    0.6308 H       1  UNL1        0.0740
    130 H          -8.0428    3.9177   -1.0930 H       1  UNL1        0.0346
    131 H          -7.1016    2.4932   -1.7684 H       1  UNL1        0.0346
    132 H          -4.2937    2.6836   -0.8029 H       1  UNL1        0.0335
    133 H          -5.2064    3.1660   -2.2279 H       1  UNL1        0.0335
    134 H          -3.5894    4.9813   -0.3396 H       1  UNL1        0.0602
    135 H          -3.3604    3.9731   -3.1222 H       1  UNL1        0.0335
    136 H          -2.3621    5.3344   -2.5640 H       1  UNL1        0.0335
    137 H          -0.3532    4.0594   -2.7479 H       1  UNL1        0.0274
    138 H          -0.3275    2.3062   -2.2244 H       1  UNL1        0.0274
    139 H          -1.3979    2.7883   -3.5519 H       1  UNL1        0.0274
    140 H          -2.5858    3.3496    0.3802 H       1  UNL1        0.0617
    141 H          -3.4899    7.2300   -0.9829 H       1  UNL1        0.0524
    142 H          -4.8462    6.8992    0.0869 H       1  UNL1        0.0524
    143 H          -5.0938    7.8826   -1.4054 H       1  UNL1        0.0524
    144 H          -5.4841    4.9044    1.1129 H       1  UNL1        0.0688
    145 H          -6.0771   -2.0904    3.4990 H       1  UNL1        0.0524
    146 H          -7.5775   -2.6081    2.6745 H       1  UNL1        0.0524
    147 H          -6.0428   -3.4406    2.2803 H       1  UNL1        0.0524
    148 H          -0.4984   -1.2100   -4.3757 H       1  UNL1        0.0524
    149 H           0.9123   -1.9051   -3.4441 H       1  UNL1        0.0524
    150 H          -0.2068   -3.0293   -4.3824 H       1  UNL1        0.0524
@<TRIPOS>BOND
     1     1     2    2
     2     2     3    1
     3     3     4    2
     4     3     5    1
     5     5     6    1
     6     6     7    1
     7     7     8    1
     8     7     9    1
     9     9    10    1
    10    10    11    1
    11     9    12    1
    12    12    13    1
    13    12    14    1
    14    14    15    1
    15    15    16    1
    16    16    17    2
    17    16    18    1
    18    18    19    1
    19    18    20    1
    20    20    21    1
    21    21    22    1
    22    22    23    1
    23    23    24    1
    24    23    25    2
    25    20    26    1
    26    26    27    1
    27     6    28    1
    28    28    29    1
    29    28    30    1
    30    30    31    2
    31    31    32    1
    32    32    33    1
    33    33    34    1
    34    34    35    1
    35    35    36    1
    36    34    37    1
    37    37    38    1
    38    37    39    1
    39    39    40    2
    40    40    41    1
    41    41    42    1
    42    42    43    1
    43    43    44    1
    44    44    45    1
    45    43    46    1
    46    46    47    1
    47    46    48    1
    48    48    49    1
    49    49    50    1
    50    50    51    1
    51    51    52    1
    52    52    53    1
    53    53    54    1
    54    54    55    1
    55    54    56    2
    56    52    57    1
    57    57    58    1
    58    50    59    2
    59    59    60    1
    60    60    61    2
    61    60    62    1
    62    41    63    1
    63    63    64    1
    64    32    65    1
    65    65    66    1
    66    56     1    1
    67    62    48    1
    68     1    67    1
    69     2    68    1
    70     6    69    1
    71     7    70    1
    72     8    71    1
    73     8    72    1
    74     8    73    1
    75     9    74    1
    76    11    75    1
    77    11    76    1
    78    11    77    1
    79    12    78    1
    80    13    79    1
    81    13    80    1
    82    13    81    1
    83    14    82    1
    84    14    83    1
    85    15    84    1
    86    15    85    1
    87    18    86    1
    88    19    87    1
    89    19    88    1
    90    19    89    1
    91    20    90    1
    92    21    91    1
    93    21    92    1
    94    22    93    1
    95    22    94    1
    96    24    95    1
    97    27    96    1
    98    27    97    1
    99    27    98    1
   100    28    99    1
   101    29   100    1
   102    29   101    1
   103    29   102    1
   104    30   103    1
   105    31   104    1
   106    32   105    1
   107    33   106    1
   108    33   107    1
   109    34   108    1
   110    36   109    1
   111    36   110    1
   112    36   111    1
   113    37   112    1
   114    38   113    1
   115    38   114    1
   116    38   115    1
   117    39   116    1
   118    40   117    1
   119    41   118    1
   120    42   119    1
   121    42   120    1
   122    43   121    1
   123    45   122    1
   124    45   123    1
   125    45   124    1
   126    46   125    1
   127    47   126    1
   128    47   127    1
   129    47   128    1
   130    48   129    1
   131    49   130    1
   132    49   131    1
   133    51   132    1
   134    51   133    1
   135    52   134    1
   136    53   135    1
   137    53   136    1
   138    55   137    1
   139    55   138    1
   140    55   139    1
   141    56   140    1
   142    58   141    1
   143    58   142    1
   144    58   143    1
   145    59   144    1
   146    64   145    1
   147    64   146    1
   148    64   147    1
   149    66   148    1
   150    66   149    1
   151    66   150    1
