@<TRIPOS>MOLECULE
*****
 40 41 0 0 0
SMALL
GASTEIGER

@<TRIPOS>ATOM
      1 N           4.4254    0.5539   -0.0914 N.3     1  UNL1       -0.1877
      2 C           5.7282   -0.0019   -0.0323 C.3     1  UNL1        0.0406
      3 C           6.6218    0.9800    0.7401 C.3     1  UNL1        0.0583
      4 O           6.5952    2.1734    0.0153 O.3     1  UNL1       -0.3937
      5 S           3.3546   -0.4669   -0.9331 S.O2    1  UNL1        0.0599
      6 O           2.8227    0.3167   -2.1105 O.2     1  UNL1       -0.1530
      7 O           4.1503   -1.6276   -1.4956 O.2     1  UNL1       -0.1530
      8 C           2.0154   -1.0611    0.0125 C.ar    1  UNL1        0.1240
      9 C           2.0237   -1.8545    1.1318 C.ar    1  UNL1        0.0673
     10 CL          3.5817   -2.3874    1.7069 Cl      1  UNL1       -0.0815
     11 C           0.8900   -2.2461    1.7958 C.ar    1  UNL1       -0.0409
     12 C          -0.3505   -1.8415    1.3456 C.ar    1  UNL1       -0.0520
     13 C          -0.4544   -1.0350    0.2165 C.ar    1  UNL1       -0.0075
     14 C           0.7156   -0.7028   -0.3667 C.ar    1  UNL1       -0.0256
     15 C          -1.8160   -0.6454   -0.2013 C.ar    1  UNL1        0.0436
     16 C          -2.4397    0.0832   -1.1673 C.ar    1  UNL1        0.0552
     17 C          -1.6097    0.7586   -2.1976 C.3     1  UNL1       -0.0212
     18 N          -3.7517    0.1121   -1.0818 N.ar    1  UNL1       -0.2292
     19 C          -4.4773   -0.3572   -0.3514 C.ar    1  UNL1        0.1651
     20 S          -3.2250   -1.2360    0.7657 S.2     1  UNL1       -0.0518
     21 N          -5.9538   -0.2949   -0.2971 N.am    1  UNL1       -0.2649
     22 C          -6.4844    0.7923    0.4789 C.2     1  UNL1        0.2155
     23 C          -7.9679    0.9779    0.6208 C.3     1  UNL1        0.0125
     24 O          -5.6906    1.6031    1.0496 O.2     1  UNL1       -0.2757
     25 H           4.1009    0.8263    0.8503 H       1  UNL1        0.1481
     26 H           6.1637   -0.1380   -1.0687 H       1  UNL1        0.0464
     27 H           5.7594   -0.9612    0.4860 H       1  UNL1        0.0464
     28 H           6.1672    1.2054    1.7191 H       1  UNL1        0.0570
     29 H           7.6576    0.6229    0.8192 H       1  UNL1        0.0570
     30 H           6.7331    2.9274    0.6482 H       1  UNL1        0.2095
     31 H           1.0084   -2.8690    2.6641 H       1  UNL1        0.0633
     32 H          -1.1654   -2.2209    1.9613 H       1  UNL1        0.0624
     33 H           0.6306   -0.0785   -1.2405 H       1  UNL1        0.0644
     34 H          -1.0443    0.0421   -2.8460 H       1  UNL1        0.0293
     35 H          -2.2609    1.3380   -2.9170 H       1  UNL1        0.0293
     36 H          -0.9467    1.5370   -1.7761 H       1  UNL1        0.0293
     37 H          -6.5790   -0.9751   -0.7761 H       1  UNL1        0.1567
     38 H          -8.4234   -0.0220    0.4784 H       1  UNL1        0.0323
     39 H          -8.2754    1.6851   -0.1654 H       1  UNL1        0.0323
     40 H          -8.2295    1.4243    1.6098 H       1  UNL1        0.0323
@<TRIPOS>BOND
     1     1     2    1
     2     2     3    1
     3     3     4    1
     4     1     5    1
     5     5     6    2
     6     5     7    2
     7     5     8    1
     8     8     9   ar
     9     9    10    1
    10     9    11   ar
    11    11    12   ar
    12    12    13   ar
    13    13    14   ar
    14    13    15    1
    15    15    16   ar
    16    16    17    1
    17    16    18   ar
    18    18    19   ar
    19    19    20   ar
    20    19    21    1
    21    21    22   am
    22    22    23    1
    23    22    24    2
    24    14     8   ar
    25    20    15   ar
    26     1    25    1
    27     2    26    1
    28     2    27    1
    29     3    28    1
    30     3    29    1
    31     4    30    1
    32    11    31    1
    33    12    32    1
    34    14    33    1
    35    17    34    1
    36    17    35    1
    37    17    36    1
    38    21    37    1
    39    23    38    1
    40    23    39    1
    41    23    40    1
