
     RDKit          3D

 40 41  0  0  0  0  0  0  0  0999 V2000
    4.4254    0.5539   -0.0914 N   0  0  0  0  0  0  0  0  0  0  0  0
    5.7282   -0.0019   -0.0323 C   0  0  0  0  0  0  0  0  0  0  0  0
    6.6218    0.9800    0.7401 C   0  0  0  0  0  0  0  0  0  0  0  0
    6.5952    2.1734    0.0153 O   0  0  0  0  0  0  0  0  0  0  0  0
    3.3546   -0.4669   -0.9331 S   0  0  0  0  0  0  0  0  0  0  0  0
    2.8227    0.3167   -2.1105 O   0  0  0  0  0  0  0  0  0  0  0  0
    4.1503   -1.6276   -1.4956 O   0  0  0  0  0  0  0  0  0  0  0  0
    2.0154   -1.0611    0.0125 C   0  0  0  0  0  0  0  0  0  0  0  0
    2.0237   -1.8545    1.1318 C   0  0  0  0  0  0  0  0  0  0  0  0
    3.5817   -2.3874    1.7069 Cl  0  0  0  0  0  0  0  0  0  0  0  0
    0.8900   -2.2461    1.7958 C   0  0  0  0  0  0  0  0  0  0  0  0
   -0.3505   -1.8415    1.3456 C   0  0  0  0  0  0  0  0  0  0  0  0
   -0.4544   -1.0350    0.2165 C   0  0  0  0  0  0  0  0  0  0  0  0
    0.7156   -0.7028   -0.3667 C   0  0  0  0  0  0  0  0  0  0  0  0
   -1.8160   -0.6454   -0.2013 C   0  0  0  0  0  0  0  0  0  0  0  0
   -2.4397    0.0832   -1.1673 C   0  0  0  0  0  0  0  0  0  0  0  0
   -1.6097    0.7586   -2.1976 C   0  0  0  0  0  0  0  0  0  0  0  0
   -3.7517    0.1121   -1.0818 N   0  0  0  0  0  0  0  0  0  0  0  0
   -4.4773   -0.3572   -0.3514 C   0  0  0  0  0  0  0  0  0  0  0  0
   -3.2250   -1.2360    0.7657 S   0  0  0  0  0  0  0  0  0  0  0  0
   -5.9538   -0.2949   -0.2971 N   0  0  0  0  0  0  0  0  0  0  0  0
   -6.4844    0.7923    0.4789 C   0  0  0  0  0  0  0  0  0  0  0  0
   -7.9679    0.9779    0.6208 C   0  0  0  0  0  0  0  0  0  0  0  0
   -5.6906    1.6031    1.0496 O   0  0  0  0  0  0  0  0  0  0  0  0
    4.1009    0.8263    0.8503 H   0  0  0  0  0  0  0  0  0  0  0  0
    6.1637   -0.1380   -1.0687 H   0  0  0  0  0  0  0  0  0  0  0  0
    5.7594   -0.9612    0.4860 H   0  0  0  0  0  0  0  0  0  0  0  0
    6.1672    1.2054    1.7191 H   0  0  0  0  0  0  0  0  0  0  0  0
    7.6576    0.6229    0.8192 H   0  0  0  0  0  0  0  0  0  0  0  0
    6.7331    2.9274    0.6482 H   0  0  0  0  0  0  0  0  0  0  0  0
    1.0084   -2.8690    2.6641 H   0  0  0  0  0  0  0  0  0  0  0  0
   -1.1654   -2.2209    1.9613 H   0  0  0  0  0  0  0  0  0  0  0  0
    0.6306   -0.0785   -1.2405 H   0  0  0  0  0  0  0  0  0  0  0  0
   -1.0443    0.0421   -2.8460 H   0  0  0  0  0  0  0  0  0  0  0  0
   -2.2609    1.3380   -2.9170 H   0  0  0  0  0  0  0  0  0  0  0  0
   -0.9467    1.5370   -1.7761 H   0  0  0  0  0  0  0  0  0  0  0  0
   -6.5790   -0.9751   -0.7761 H   0  0  0  0  0  0  0  0  0  0  0  0
   -8.4234   -0.0220    0.4784 H   0  0  0  0  0  0  0  0  0  0  0  0
   -8.2754    1.6851   -0.1654 H   0  0  0  0  0  0  0  0  0  0  0  0
   -8.2295    1.4243    1.6098 H   0  0  0  0  0  0  0  0  0  0  0  0
  1  2  1  0
  2  3  1  0
  3  4  1  0
  1  5  1  0
  5  6  2  0
  5  7  2  0
  5  8  1  0
  8  9  2  0
  9 10  1  0
  9 11  1  0
 11 12  2  0
 12 13  1  0
 13 14  2  0
 13 15  1  0
 15 16  2  0
 16 17  1  0
 16 18  1  0
 18 19  2  0
 19 20  1  0
 19 21  1  0
 21 22  1  0
 22 23  1  0
 22 24  2  0
 14  8  1  0
 20 15  1  0
  1 25  1  0
  2 26  1  0
  2 27  1  0
  3 28  1  0
  3 29  1  0
  4 30  1  0
 11 31  1  0
 12 32  1  0
 14 33  1  0
 17 34  1  0
 17 35  1  0
 17 36  1  0
 21 37  1  0
 23 38  1  0
 23 39  1  0
 23 40  1  0
M  END
$$$$
