
     RDKit          3D

 77 81  0  0  0  0  0  0  0  0999 V2000
    7.7786    2.7164   -2.2530 C   0  0  0  0  0  0  0  0  0  0  0  0
    7.0298    3.7241   -1.7068 O   0  0  0  0  0  0  0  0  0  0  0  0
    6.1541    3.2805   -0.7465 C   0  0  0  0  0  0  0  0  0  0  0  0
    5.1356    2.2751   -1.2324 C   0  0  0  0  0  0  0  0  0  0  0  0
    4.2296    1.8831   -0.0801 C   0  0  0  0  0  0  0  0  0  0  0  0
    3.2029    0.9069   -0.4474 C   0  0  0  0  0  0  0  0  0  0  0  0
    1.9599    1.2686   -0.9183 C   0  0  0  0  0  0  0  0  0  0  0  0
    0.9696    0.3489   -1.2662 C   0  0  0  0  0  0  0  0  0  0  0  0
   -0.3435    0.8045   -1.7737 C   0  0  0  0  0  0  0  0  0  0  0  0
   -1.2617    1.0723   -0.6119 N   0  0  0  0  0  0  0  0  0  0  0  0
   -2.0798    0.0397   -0.2397 C   0  0  0  0  0  0  0  0  0  0  0  0
   -1.8651   -1.0469   -1.0148 O   0  0  0  0  0  0  0  0  0  0  0  0
   -3.1083   -0.2543    0.7188 C   0  0  1  0  0  0  0  0  0  0  0  0
   -2.6519   -0.2269    2.1387 C   0  0  0  0  0  0  0  0  0  0  0  0
   -3.6621   -0.9373    2.9740 N   0  0  0  0  0  0  0  0  0  0  0  0
   -4.8515   -0.1098    3.0291 C   0  0  0  0  0  0  0  0  0  0  0  0
   -5.1230    0.7318    1.8559 C   0  0  0  0  0  0  0  0  0  0  0  0
   -4.4336    0.4111    0.5823 C   0  0  1  0  0  0  0  0  0  0  0  0
   -4.4011    1.5094   -0.2798 O   0  0  0  0  0  0  0  0  0  0  0  0
   -4.5610    1.0616   -1.5756 C   0  0  0  0  0  0  0  0  0  0  0  0
   -5.4154   -0.1449   -1.4600 C   0  0  0  0  0  0  0  0  0  0  0  0
   -6.1893   -0.8644   -2.3507 C   0  0  0  0  0  0  0  0  0  0  0  0
   -6.8896   -1.9836   -1.9208 C   0  0  0  0  0  0  0  0  0  0  0  0
   -7.6597   -2.7055   -2.7890 F   0  0  0  0  0  0  0  0  0  0  0  0
   -6.8261   -2.3934   -0.6104 C   0  0  0  0  0  0  0  0  0  0  0  0
   -7.5124   -3.4949   -0.1795 F   0  0  0  0  0  0  0  0  0  0  0  0
   -6.0485   -1.6693    0.2807 C   0  0  0  0  0  0  0  0  0  0  0  0
   -5.3422   -0.5375   -0.1594 C   0  0  0  0  0  0  0  0  0  0  0  0
   -1.0904    2.3574   -0.0586 C   0  0  0  0  0  0  0  0  0  0  0  0
   -0.4982    2.4064    1.3436 C   0  0  0  0  0  0  0  0  0  0  0  0
   -1.7934    3.0537    0.9993 C   0  0  0  0  0  0  0  0  0  0  0  0
    1.3056   -0.9741   -1.1127 C   0  0  0  0  0  0  0  0  0  0  0  0
    2.5518   -1.3914   -0.6394 C   0  0  0  0  0  0  0  0  0  0  0  0
    2.8488   -2.7402   -0.4989 O   0  0  0  0  0  0  0  0  0  0  0  0
    4.1110   -3.1177   -0.0177 C   0  0  0  0  0  0  0  0  0  0  0  0
    4.2654   -4.6069    0.0737 C   0  0  0  0  0  0  0  0  0  0  0  0
    3.3573   -5.2216    0.9040 O   0  0  0  0  0  0  0  0  0  0  0  0
    3.4545   -4.7579    2.1889 C   0  0  0  0  0  0  0  0  0  0  0  0
    3.4784   -0.4347   -0.3154 C   0  0  0  0  0  0  0  0  0  0  0  0
    8.4670    3.1728   -3.0090 H   0  0  0  0  0  0  0  0  0  0  0  0
    7.1698    1.9516   -2.7926 H   0  0  0  0  0  0  0  0  0  0  0  0
    8.4103    2.1982   -1.5070 H   0  0  0  0  0  0  0  0  0  0  0  0
    5.6430    4.1957   -0.3264 H   0  0  0  0  0  0  0  0  0  0  0  0
    6.7794    2.8444    0.0764 H   0  0  0  0  0  0  0  0  0  0  0  0
    5.6531    1.3897   -1.6144 H   0  0  0  0  0  0  0  0  0  0  0  0
    4.5082    2.7892   -1.9947 H   0  0  0  0  0  0  0  0  0  0  0  0
    3.7822    2.7619    0.4092 H   0  0  0  0  0  0  0  0  0  0  0  0
    4.9116    1.4176    0.6897 H   0  0  0  0  0  0  0  0  0  0  0  0
    1.8088    2.3454   -1.0066 H   0  0  0  0  0  0  0  0  0  0  0  0
   -0.7838    0.0032   -2.4122 H   0  0  0  0  0  0  0  0  0  0  0  0
   -0.2984    1.7521   -2.3298 H   0  0  0  0  0  0  0  0  0  0  0  0
   -3.3700   -1.4043    0.5987 H   0  0  0  0  0  0  0  0  0  0  0  0
   -2.5624    0.7802    2.5333 H   0  0  0  0  0  0  0  0  0  0  0  0
   -1.7178   -0.7983    2.2728 H   0  0  0  0  0  0  0  0  0  0  0  0
   -3.2503   -0.9498    3.9294 H   0  0  0  0  0  0  0  0  0  0  0  0
   -4.8095    0.5437    3.9711 H   0  0  0  0  0  0  0  0  0  0  0  0
   -5.7104   -0.7741    3.2412 H   0  0  0  0  0  0  0  0  0  0  0  0
   -4.8605    1.8119    2.1027 H   0  0  0  0  0  0  0  0  0  0  0  0
   -6.2431    0.8292    1.6464 H   0  0  0  0  0  0  0  0  0  0  0  0
   -5.1308    1.7924   -2.2053 H   0  0  0  0  0  0  0  0  0  0  0  0
   -3.6230    0.7534   -2.0750 H   0  0  0  0  0  0  0  0  0  0  0  0
   -6.2709   -0.5848   -3.3824 H   0  0  0  0  0  0  0  0  0  0  0  0
   -6.0004   -1.9973    1.2913 H   0  0  0  0  0  0  0  0  0  0  0  0
   -0.3980    3.0283   -0.7417 H   0  0  0  0  0  0  0  0  0  0  0  0
    0.3647    3.1290    1.4893 H   0  0  0  0  0  0  0  0  0  0  0  0
   -0.4846    1.5582    1.9977 H   0  0  0  0  0  0  0  0  0  0  0  0
   -1.7892    4.1950    0.9153 H   0  0  0  0  0  0  0  0  0  0  0  0
   -2.7537    2.7047    1.3712 H   0  0  0  0  0  0  0  0  0  0  0  0
    0.6256   -1.7931   -1.3620 H   0  0  0  0  0  0  0  0  0  0  0  0
    4.3877   -2.6722    0.9521 H   0  0  0  0  0  0  0  0  0  0  0  0
    4.8762   -2.7226   -0.7523 H   0  0  0  0  0  0  0  0  0  0  0  0
    4.2013   -4.9981   -0.9784 H   0  0  0  0  0  0  0  0  0  0  0  0
    5.3169   -4.8523    0.3852 H   0  0  0  0  0  0  0  0  0  0  0  0
    3.2621   -3.6719    2.2842 H   0  0  0  0  0  0  0  0  0  0  0  0
    4.4892   -4.9513    2.5904 H   0  0  0  0  0  0  0  0  0  0  0  0
    2.7122   -5.2608    2.8541 H   0  0  0  0  0  0  0  0  0  0  0  0
    4.4626   -0.7549    0.0582 H   0  0  0  0  0  0  0  0  0  0  0  0
  1  2  1  0
  2  3  1  0
  3  4  1  0
  4  5  1  0
  5  6  1  0
  6  7  2  0
  7  8  1  0
  8  9  1  0
  9 10  1  0
 10 11  1  0
 11 12  2  0
 11 13  1  0
 13 14  1  0
 14 15  1  0
 15 16  1  0
 16 17  1  0
 17 18  1  0
 18 19  1  6
 19 20  1  0
 20 21  1  0
 21 22  2  0
 22 23  1  0
 23 24  1  0
 23 25  2  0
 25 26  1  0
 25 27  1  0
 27 28  2  0
 10 29  1  0
 29 30  1  0
 30 31  1  0
  8 32  2  0
 32 33  1  0
 33 34  1  0
 34 35  1  0
 35 36  1  0
 36 37  1  0
 37 38  1  0
 33 39  2  0
 39  6  1  0
 18 13  1  0
 28 21  1  0
 31 29  1  0
 28 18  1  0
  1 40  1  0
  1 41  1  0
  1 42  1  0
  3 43  1  0
  3 44  1  0
  4 45  1  0
  4 46  1  0
  5 47  1  0
  5 48  1  0
  7 49  1  0
  9 50  1  0
  9 51  1  0
 13 52  1  6
 14 53  1  0
 14 54  1  0
 15 55  1  0
 16 56  1  0
 16 57  1  0
 17 58  1  0
 17 59  1  0
 20 60  1  0
 20 61  1  0
 22 62  1  0
 27 63  1  0
 29 64  1  0
 30 65  1  0
 30 66  1  0
 31 67  1  0
 31 68  1  0
 32 69  1  0
 35 70  1  0
 35 71  1  0
 36 72  1  0
 36 73  1  0
 38 74  1  0
 38 75  1  0
 38 76  1  0
 39 77  1  0
M  END
$$$$
