@<TRIPOS>MOLECULE
*****
 77 81 0 0 0
SMALL
GASTEIGER

@<TRIPOS>ATOM
      1 C           7.7786    2.7164   -2.2530 C.3     1  UNL1        0.0364
      2 O           7.0298    3.7241   -1.7068 O.3     1  UNL1       -0.3830
      3 C           6.1541    3.2805   -0.7465 C.3     1  UNL1        0.0476
      4 C           5.1356    2.2751   -1.2324 C.3     1  UNL1       -0.0255
      5 C           4.2296    1.8831   -0.0801 C.3     1  UNL1       -0.0255
      6 C           3.2029    0.9069   -0.4474 C.ar    1  UNL1       -0.0435
      7 C           1.9599    1.2686   -0.9183 C.ar    1  UNL1       -0.0537
      8 C           0.9696    0.3489   -1.2662 C.ar    1  UNL1       -0.0264
      9 C          -0.3435    0.8045   -1.7737 C.3     1  UNL1        0.0401
     10 N          -1.2617    1.0723   -0.6119 N.am    1  UNL1       -0.2938
     11 C          -2.0798    0.0397   -0.2397 C.2     1  UNL1        0.2235
     12 O          -1.8651   -1.0469   -1.0148 O.2     1  UNL1       -0.2751
     13 C          -3.1083   -0.2543    0.7188 C.3     1  UNL1        0.0813
     14 C          -2.6519   -0.2269    2.1387 C.3     1  UNL1        0.0100
     15 N          -3.6621   -0.9373    2.9740 N.3     1  UNL1       -0.3150
     16 C          -4.8515   -0.1098    3.0291 C.3     1  UNL1       -0.0011
     17 C          -5.1230    0.7318    1.8559 C.3     1  UNL1       -0.0062
     18 C          -4.4336    0.4111    0.5823 C.3     1  UNL1        0.1086
     19 O          -4.4011    1.5094   -0.2798 O.3     1  UNL1       -0.3633
     20 C          -4.5610    1.0616   -1.5756 C.3     1  UNL1        0.0743
     21 C          -5.4154   -0.1449   -1.4600 C.ar    1  UNL1       -0.0131
     22 C          -6.1893   -0.8644   -2.3507 C.ar    1  UNL1       -0.0179
     23 C          -6.8896   -1.9836   -1.9208 C.ar    1  UNL1        0.1587
     24 F          -7.6597   -2.7055   -2.7890 F       1  UNL1       -0.2025
     25 C          -6.8261   -2.3934   -0.6104 C.ar    1  UNL1        0.1588
     26 F          -7.5124   -3.4949   -0.1795 F       1  UNL1       -0.2025
     27 C          -6.0485   -1.6693    0.2807 C.ar    1  UNL1       -0.0173
     28 C          -5.3422   -0.5375   -0.1594 C.ar    1  UNL1       -0.0068
     29 C          -1.0904    2.3574   -0.0586 C.3     1  UNL1        0.0265
     30 C          -0.4982    2.4064    1.3436 C.3     1  UNL1       -0.0326
     31 C          -1.7934    3.0537    0.9993 C.3     1  UNL1       -0.0326
     32 C           1.3056   -0.9741   -1.1127 C.ar    1  UNL1       -0.0152
     33 C           2.5518   -1.3914   -0.6394 C.ar    1  UNL1        0.1212
     34 O           2.8488   -2.7402   -0.4989 O.3     1  UNL1       -0.4897
     35 C           4.1110   -3.1177   -0.0177 C.3     1  UNL1        0.1128
     36 C           4.2654   -4.6069    0.0737 C.3     1  UNL1        0.0813
     37 O           3.3573   -5.2216    0.9040 O.3     1  UNL1       -0.3796
     38 C           3.4545   -4.7579    2.1889 C.3     1  UNL1        0.0366
     39 C           3.4784   -0.4347   -0.3154 C.ar    1  UNL1       -0.0167
     40 H           8.4670    3.1728   -3.0090 H       1  UNL1        0.0523
     41 H           7.1698    1.9516   -2.7926 H       1  UNL1        0.0523
     42 H           8.4103    2.1982   -1.5070 H       1  UNL1        0.0523
     43 H           5.6430    4.1957   -0.3264 H       1  UNL1        0.0560
     44 H           6.7794    2.8444    0.0764 H       1  UNL1        0.0560
     45 H           5.6531    1.3897   -1.6144 H       1  UNL1        0.0290
     46 H           4.5082    2.7892   -1.9947 H       1  UNL1        0.0290
     47 H           3.7822    2.7619    0.4092 H       1  UNL1        0.0314
     48 H           4.9116    1.4176    0.6897 H       1  UNL1        0.0314
     49 H           1.8088    2.3454   -1.0066 H       1  UNL1        0.0624
     50 H          -0.7838    0.0032   -2.4122 H       1  UNL1        0.0514
     51 H          -0.2984    1.7521   -2.3298 H       1  UNL1        0.0514
     52 H          -3.3700   -1.4043    0.5987 H       1  UNL1        0.0439
     53 H          -2.5624    0.7802    2.5333 H       1  UNL1        0.0432
     54 H          -1.7178   -0.7983    2.2728 H       1  UNL1        0.0432
     55 H          -3.2503   -0.9498    3.9294 H       1  UNL1        0.1220
     56 H          -4.8095    0.5437    3.9711 H       1  UNL1        0.0425
     57 H          -5.7104   -0.7741    3.2412 H       1  UNL1        0.0425
     58 H          -4.8605    1.8119    2.1027 H       1  UNL1        0.0309
     59 H          -6.2431    0.8292    1.6464 H       1  UNL1        0.0309
     60 H          -5.1308    1.7924   -2.2053 H       1  UNL1        0.0610
     61 H          -3.6230    0.7534   -2.0750 H       1  UNL1        0.0610
     62 H          -6.2709   -0.5848   -3.3824 H       1  UNL1        0.0651
     63 H          -6.0004   -1.9973    1.2913 H       1  UNL1        0.0651
     64 H          -0.3980    3.0283   -0.7417 H       1  UNL1        0.0500
     65 H           0.3647    3.1290    1.4893 H       1  UNL1        0.0284
     66 H          -0.4846    1.5582    1.9977 H       1  UNL1        0.0284
     67 H          -1.7892    4.1950    0.9153 H       1  UNL1        0.0284
     68 H          -2.7537    2.7047    1.3712 H       1  UNL1        0.0284
     69 H           0.6256   -1.7931   -1.3620 H       1  UNL1        0.0657
     70 H           4.3877   -2.6722    0.9521 H       1  UNL1        0.0720
     71 H           4.8762   -2.7226   -0.7523 H       1  UNL1        0.0720
     72 H           4.2013   -4.9981   -0.9784 H       1  UNL1        0.0593
     73 H           5.3169   -4.8523    0.3852 H       1  UNL1        0.0593
     74 H           3.2621   -3.6719    2.2842 H       1  UNL1        0.0524
     75 H           4.4892   -4.9513    2.5904 H       1  UNL1        0.0524
     76 H           2.7122   -5.2608    2.8541 H       1  UNL1        0.0524
     77 H           4.4626   -0.7549    0.0582 H       1  UNL1        0.0657
@<TRIPOS>BOND
     1     1     2    1
     2     2     3    1
     3     3     4    1
     4     4     5    1
     5     5     6    1
     6     6     7   ar
     7     7     8   ar
     8     8     9    1
     9     9    10    1
    10    10    11   am
    11    11    12    2
    12    11    13    1
    13    13    14    1
    14    14    15    1
    15    15    16    1
    16    16    17    1
    17    17    18    1
    18    18    19    1
    19    19    20    1
    20    20    21    1
    21    21    22   ar
    22    22    23   ar
    23    23    24    1
    24    23    25   ar
    25    25    26    1
    26    25    27   ar
    27    27    28   ar
    28    10    29    1
    29    29    30    1
    30    30    31    1
    31     8    32   ar
    32    32    33   ar
    33    33    34    1
    34    34    35    1
    35    35    36    1
    36    36    37    1
    37    37    38    1
    38    33    39   ar
    39    39     6   ar
    40    18    13    1
    41    28    21   ar
    42    31    29    1
    43    28    18    1
    44     1    40    1
    45     1    41    1
    46     1    42    1
    47     3    43    1
    48     3    44    1
    49     4    45    1
    50     4    46    1
    51     5    47    1
    52     5    48    1
    53     7    49    1
    54     9    50    1
    55     9    51    1
    56    13    52    1
    57    14    53    1
    58    14    54    1
    59    15    55    1
    60    16    56    1
    61    16    57    1
    62    17    58    1
    63    17    59    1
    64    20    60    1
    65    20    61    1
    66    22    62    1
    67    27    63    1
    68    29    64    1
    69    30    65    1
    70    30    66    1
    71    31    67    1
    72    31    68    1
    73    32    69    1
    74    35    70    1
    75    35    71    1
    76    36    72    1
    77    36    73    1
    78    38    74    1
    79    38    75    1
    80    38    76    1
    81    39    77    1
