@<TRIPOS>MOLECULE
*****
 43 46 0 0 0
SMALL
GASTEIGER

@<TRIPOS>ATOM
      1 C           5.4588   -0.7776   -0.4338 C.3     1  UNL1       -0.0385
      2 C           4.2082   -1.3016    0.2409 C.ar    1  UNL1       -0.0309
      3 C           4.2789   -2.4854    0.9265 C.ar    1  UNL1       -0.0189
      4 S           2.6578   -2.7362    1.5460 S.2     1  UNL1       -0.0809
      5 C           1.9684   -1.2438    0.8567 C.ar    1  UNL1        0.0827
      6 N           0.5888   -0.8639    1.0368 N.am    1  UNL1       -0.2781
      7 C           0.1689   -0.1342    2.1694 C.2     1  UNL1        0.2354
      8 O           1.0249    0.2157    3.0317 O.2     1  UNL1       -0.2737
      9 C          -1.2324    0.2475    2.4221 C.3     1  UNL1        0.0964
     10 N          -2.0475   -0.2376    1.3329 N.am    1  UNL1       -0.2623
     11 C          -2.5864   -1.5759    1.4188 C.2     1  UNL1        0.2205
     12 O          -2.0321   -2.4895    2.0653 O.2     1  UNL1       -0.2752
     13 C          -3.8506   -1.8279    0.6940 C.3     1  UNL1        0.0285
     14 C          -3.6387   -1.3500   -0.7165 C.3     1  UNL1       -0.0177
     15 C          -3.1405    0.0266   -0.7777 C.ar    1  UNL1       -0.0255
     16 C          -3.4441    0.8627   -1.8576 C.ar    1  UNL1       -0.0568
     17 C          -2.9931    2.1505   -1.9687 C.ar    1  UNL1       -0.0614
     18 C          -2.1866    2.6750   -0.9621 C.ar    1  UNL1       -0.0600
     19 C          -1.8725    1.8768    0.1099 C.ar    1  UNL1       -0.0400
     20 C          -2.3324    0.5793    0.2139 C.ar    1  UNL1        0.0400
     21 C           3.0274   -0.6540    0.1967 C.ar    1  UNL1        0.0504
     22 C           2.8194    0.6281   -0.5451 C.ar    1  UNL1        0.1640
     23 N           3.7463    1.3149   -1.2191 N.ar    1  UNL1       -0.1295
     24 N           3.2054    2.4003   -1.7717 N.ar    1  UNL1       -0.1377
     25 C           1.9104    2.4175   -1.4519 C.ar    1  UNL1        0.1175
     26 N           1.6912    1.3227   -0.6993 N.ar    1  UNL1       -0.3276
     27 H           6.3031   -1.4441   -0.3146 H       1  UNL1        0.0278
     28 H           5.2306   -0.5217   -1.4954 H       1  UNL1        0.0278
     29 H           5.6928    0.1720    0.0946 H       1  UNL1        0.0278
     30 H           5.1385   -3.1443    1.0701 H       1  UNL1        0.0697
     31 H          -0.0908   -1.1411    0.3107 H       1  UNL1        0.1554
     32 H          -1.5994   -0.2284    3.3826 H       1  UNL1        0.0564
     33 H          -1.2796    1.3418    2.5105 H       1  UNL1        0.0564
     34 H          -4.6703   -1.1842    1.1223 H       1  UNL1        0.0362
     35 H          -4.1642   -2.8762    0.7157 H       1  UNL1        0.0362
     36 H          -4.6057   -1.4574   -1.2499 H       1  UNL1        0.0318
     37 H          -2.9102   -1.9975   -1.2613 H       1  UNL1        0.0318
     38 H          -4.0745    0.4286   -2.6284 H       1  UNL1        0.0621
     39 H          -3.2577    2.7584   -2.8276 H       1  UNL1        0.0618
     40 H          -1.8455    3.6916   -1.0755 H       1  UNL1        0.0618
     41 H          -1.2443    2.3013    0.8678 H       1  UNL1        0.0636
     42 H           1.2221    3.1758   -1.7587 H       1  UNL1        0.1046
     43 H           0.7569    1.0855   -0.3175 H       1  UNL1        0.1683
@<TRIPOS>BOND
     1     1     2    1
     2     2     3   ar
     3     3     4   ar
     4     4     5   ar
     5     5     6    1
     6     6     7   am
     7     7     8    2
     8     7     9    1
     9     9    10    1
    10    10    11   am
    11    11    12    2
    12    11    13    1
    13    13    14    1
    14    14    15    1
    15    15    16   ar
    16    16    17   ar
    17    17    18   ar
    18    18    19   ar
    19    19    20   ar
    20     5    21   ar
    21    21    22    1
    22    22    23   ar
    23    23    24   ar
    24    24    25   ar
    25    25    26   ar
    26    21     2   ar
    27    26    22   ar
    28    20    10    1
    29    20    15   ar
    30     1    27    1
    31     1    28    1
    32     1    29    1
    33     3    30    1
    34     6    31    1
    35     9    32    1
    36     9    33    1
    37    13    34    1
    38    13    35    1
    39    14    36    1
    40    14    37    1
    41    16    38    1
    42    17    39    1
    43    18    40    1
    44    19    41    1
    45    25    42    1
    46    26    43    1
