
     RDKit          3D

 31 32  0  0  0  0  0  0  0  0999 V2000
   -2.8373    1.5191   -0.9156 C   0  0  0  0  0  0  0  0  0  0  0  0
   -2.5278    0.9713    0.3771 N   0  0  0  0  0  0  0  0  0  0  0  0
   -2.5729   -0.4637    0.4494 C   0  0  0  0  0  0  0  0  0  0  0  0
   -3.9296   -1.0228    0.1446 C   0  0  0  0  0  0  0  0  0  0  0  0
   -4.5042   -0.6121   -1.4682 Cl  0  0  0  0  0  0  0  0  0  0  0  0
   -1.5927   -1.1120   -0.4034 N   0  0  0  0  0  0  0  0  0  0  0  0
   -0.2110   -0.7810   -0.3975 C   0  0  0  0  0  0  0  0  0  0  0  0
    0.7575   -1.6128   -0.9310 C   0  0  0  0  0  0  0  0  0  0  0  0
    2.0920   -1.2072   -0.8818 C   0  0  0  0  0  0  0  0  0  0  0  0
    3.2744   -2.3009   -1.5728 Cl  0  0  0  0  0  0  0  0  0  0  0  0
    2.4691   -0.0225   -0.3271 C   0  0  0  0  0  0  0  0  0  0  0  0
    1.5187    0.8260    0.2128 C   0  0  0  0  0  0  0  0  0  0  0  0
    0.2076    0.4004    0.1508 C   0  0  0  0  0  0  0  0  0  0  0  0
   -0.9683    1.5209    0.8545 S   0  0  0  0  0  0  0  0  0  0  0  0
   -0.6675    2.9065    0.3599 O   0  0  0  0  0  0  0  0  0  0  0  0
   -0.9310    1.4499    2.3628 O   0  0  0  0  0  0  0  0  0  0  0  0
    4.1682    0.4009   -0.3115 S   0  0  0  0  0  0  0  0  0  0  0  0
    5.0949   -0.7466    0.5489 N   0  0  0  0  0  0  0  0  0  0  0  0
    4.6248    0.3843   -1.7426 O   0  0  0  0  0  0  0  0  0  0  0  0
    4.3645    1.7912    0.2470 O   0  0  0  0  0  0  0  0  0  0  0  0
   -2.2661    2.4880   -1.0081 H   0  0  0  0  0  0  0  0  0  0  0  0
   -2.4737    0.9033   -1.7606 H   0  0  0  0  0  0  0  0  0  0  0  0
   -3.8981    1.8235   -1.0175 H   0  0  0  0  0  0  0  0  0  0  0  0
   -2.3248   -0.7293    1.4956 H   0  0  0  0  0  0  0  0  0  0  0  0
   -3.8656   -2.1297    0.2028 H   0  0  0  0  0  0  0  0  0  0  0  0
   -4.6740   -0.7148    0.9086 H   0  0  0  0  0  0  0  0  0  0  0  0
   -1.8604   -1.8789   -1.0866 H   0  0  0  0  0  0  0  0  0  0  0  0
    0.4157   -2.5549   -1.3673 H   0  0  0  0  0  0  0  0  0  0  0  0
    1.8346    1.7583    0.6472 H   0  0  0  0  0  0  0  0  0  0  0  0
    6.0681   -0.7495    0.1181 H   0  0  0  0  0  0  0  0  0  0  0  0
    5.2147   -0.5051    1.5492 H   0  0  0  0  0  0  0  0  0  0  0  0
  1  2  1  0
  2  3  1  0
  3  4  1  0
  4  5  1  0
  3  6  1  0
  6  7  1  0
  7  8  2  0
  8  9  1  0
  9 10  1  0
  9 11  2  0
 11 12  1  0
 12 13  2  0
 13 14  1  0
 14 15  2  0
 14 16  2  0
 11 17  1  0
 17 18  1  0
 17 19  2  0
 17 20  2  0
 14  2  1  0
 13  7  1  0
  1 21  1  0
  1 22  1  0
  1 23  1  0
  3 24  1  0
  4 25  1  0
  4 26  1  0
  6 27  1  0
  8 28  1  0
 12 29  1  0
 18 30  1  0
 18 31  1  0
M  END
$$$$
