@<TRIPOS>MOLECULE
*****
 69 72 0 0 0
SMALL
GASTEIGER

@<TRIPOS>ATOM
      1 C           9.6870    0.3304    1.0911 C.3     1  UNL1       -0.0470
      2 C           8.5298    0.8110    1.9281 C.3     1  UNL1        0.0233
      3 N           7.2510    0.4893    1.3147 N.ar    1  UNL1       -0.3154
      4 C           6.7263    1.4101    0.4694 C.ar    1  UNL1        0.0085
      5 C           5.4977    1.1632   -0.1553 C.ar    1  UNL1       -0.0376
      6 C           4.8137   -0.0084    0.0799 C.ar    1  UNL1       -0.0114
      7 C           3.5477   -0.2371   -0.5789 C.ar    1  UNL1       -0.0177
      8 C           2.5135   -0.9747   -0.0332 C.ar    1  UNL1       -0.0537
      9 C           1.3096   -1.1687   -0.7049 C.ar    1  UNL1       -0.0562
     10 C           1.1161   -0.6243   -1.9445 C.ar    1  UNL1       -0.0271
     11 C          -0.1168   -0.7713   -2.7338 C.3     1  UNL1        0.0515
     12 C          -0.1287    0.2362   -3.8839 C.3     1  UNL1       -0.0421
     13 N          -1.3117   -0.5830   -1.9833 N.am    1  UNL1       -0.2605
     14 C          -1.6125    0.6128   -1.2247 C.3     1  UNL1        0.0224
     15 C          -2.3572    0.1357    0.0307 C.3     1  UNL1        0.0076
     16 C          -3.7113   -0.3866   -0.2944 C.3     1  UNL1        0.1440
     17 C          -4.7027    0.6001   -0.7848 C.3     1  UNL1        0.0199
     18 C          -5.0999    1.7254    0.0615 C.3     1  UNL1        0.0645
     19 C          -4.0457    2.6861    0.5021 C.3     1  UNL1       -0.0362
     20 C          -5.8975    1.3413    1.2920 C.3     1  UNL1       -0.0362
     21 O          -6.0134    2.5011   -0.7081 O.3     1  UNL1       -0.3890
     22 C          -4.2140   -1.1898    0.8512 C.ar    1  UNL1       -0.0040
     23 C          -5.4140   -1.8354    0.7225 C.ar    1  UNL1       -0.0548
     24 C          -5.9328   -2.5861    1.7442 C.ar    1  UNL1       -0.0614
     25 C          -5.2398   -2.6993    2.9286 C.ar    1  UNL1       -0.0617
     26 C          -4.0304   -2.0553    3.0737 C.ar    1  UNL1       -0.0614
     27 C          -3.5293   -1.3036    2.0263 C.ar    1  UNL1       -0.0548
     28 O          -3.5551   -1.3503   -1.3523 O.3     1  UNL1       -0.4387
     29 C          -2.3045   -1.6008   -1.9406 C.2     1  UNL1        0.4042
     30 O          -2.0916   -2.7447   -2.4249 O.2     1  UNL1       -0.2262
     31 C           2.1497    0.1092   -2.4827 C.ar    1  UNL1       -0.0562
     32 C           3.3464    0.3103   -1.8314 C.ar    1  UNL1       -0.0537
     33 C           5.3576   -0.9320    0.9389 C.ar    1  UNL1        0.0107
     34 C           6.5841   -0.6441    1.5390 C.ar    1  UNL1        0.2518
     35 O           7.1157   -1.4729    2.3366 O.2     1  UNL1       -0.2677
     36 H          10.5249    1.0543    1.1552 H       1  UNL1        0.0247
     37 H           9.4059    0.2397    0.0258 H       1  UNL1        0.0247
     38 H          10.0944   -0.6352    1.4899 H       1  UNL1        0.0247
     39 H           8.6407    0.3898    2.9397 H       1  UNL1        0.0490
     40 H           8.6318    1.9260    2.0138 H       1  UNL1        0.0490
     41 H           7.2493    2.3350    0.2730 H       1  UNL1        0.0810
     42 H           5.1352    1.9451   -0.8215 H       1  UNL1        0.0638
     43 H           2.6601   -1.4072    0.9454 H       1  UNL1        0.0624
     44 H           0.5058   -1.7558   -0.2533 H       1  UNL1        0.0621
     45 H          -0.0893   -1.7658   -3.2375 H       1  UNL1        0.0549
     46 H           0.5651   -0.1009   -4.6667 H       1  UNL1        0.0251
     47 H          -1.1449    0.2396   -4.3564 H       1  UNL1        0.0251
     48 H           0.1386    1.2212   -3.4810 H       1  UNL1        0.0251
     49 H          -0.6794    1.1040   -0.9340 H       1  UNL1        0.0467
     50 H          -2.2152    1.3356   -1.8125 H       1  UNL1        0.0467
     51 H          -1.7511   -0.7764    0.3364 H       1  UNL1        0.0322
     52 H          -2.2684    0.8148    0.8700 H       1  UNL1        0.0322
     53 H          -4.3304    0.9857   -1.7591 H       1  UNL1        0.0335
     54 H          -5.6328    0.0322   -1.0610 H       1  UNL1        0.0335
     55 H          -4.4556    3.7474    0.5406 H       1  UNL1        0.0257
     56 H          -3.1786    2.7714   -0.1720 H       1  UNL1        0.0257
     57 H          -3.7522    2.5210    1.5823 H       1  UNL1        0.0257
     58 H          -6.7717    0.7008    1.0515 H       1  UNL1        0.0257
     59 H          -6.3588    2.3109    1.6509 H       1  UNL1        0.0257
     60 H          -5.2881    0.9900    2.1256 H       1  UNL1        0.0257
     61 H          -6.3848    1.9951   -1.4479 H       1  UNL1        0.2101
     62 H          -5.9782   -1.7632   -0.2006 H       1  UNL1        0.0622
     63 H          -6.8881   -3.1108    1.6661 H       1  UNL1        0.0618
     64 H          -5.6580   -3.3033    3.7485 H       1  UNL1        0.0618
     65 H          -3.4824   -2.1388    3.9966 H       1  UNL1        0.0618
     66 H          -2.5858   -0.8039    2.1570 H       1  UNL1        0.0622
     67 H           2.0731    0.5782   -3.4727 H       1  UNL1        0.0621
     68 H           4.1517    0.8942   -2.2749 H       1  UNL1        0.0624
     69 H           4.8803   -1.8648    1.1680 H       1  UNL1        0.0678
@<TRIPOS>BOND
     1     1     2    1
     2     2     3    1
     3     3     4   ar
     4     4     5   ar
     5     5     6   ar
     6     6     7    1
     7     7     8   ar
     8     8     9   ar
     9     9    10   ar
    10    10    11    1
    11    11    12    1
    12    11    13    1
    13    13    14    1
    14    14    15    1
    15    15    16    1
    16    16    17    1
    17    17    18    1
    18    18    19    1
    19    18    20    1
    20    18    21    1
    21    16    22    1
    22    22    23   ar
    23    23    24   ar
    24    24    25   ar
    25    25    26   ar
    26    26    27   ar
    27    16    28    1
    28    28    29    1
    29    29    30    2
    30    10    31   ar
    31    31    32   ar
    32     6    33   ar
    33    33    34   ar
    34    34    35    2
    35    34     3   ar
    36    32     7   ar
    37    29    13   am
    38    27    22   ar
    39     1    36    1
    40     1    37    1
    41     1    38    1
    42     2    39    1
    43     2    40    1
    44     4    41    1
    45     5    42    1
    46     8    43    1
    47     9    44    1
    48    11    45    1
    49    12    46    1
    50    12    47    1
    51    12    48    1
    52    14    49    1
    53    14    50    1
    54    15    51    1
    55    15    52    1
    56    17    53    1
    57    17    54    1
    58    19    55    1
    59    19    56    1
    60    19    57    1
    61    20    58    1
    62    20    59    1
    63    20    60    1
    64    21    61    1
    65    23    62    1
    66    24    63    1
    67    25    64    1
    68    26    65    1
    69    27    66    1
    70    31    67    1
    71    32    68    1
    72    33    69    1
