
     RDKit          3D

 69 72  0  0  0  0  0  0  0  0999 V2000
    9.6870    0.3304    1.0911 C   0  0  0  0  0  0  0  0  0  0  0  0
    8.5298    0.8110    1.9281 C   0  0  0  0  0  0  0  0  0  0  0  0
    7.2510    0.4893    1.3147 N   0  0  0  0  0  0  0  0  0  0  0  0
    6.7263    1.4101    0.4694 C   0  0  0  0  0  0  0  0  0  0  0  0
    5.4977    1.1632   -0.1553 C   0  0  0  0  0  0  0  0  0  0  0  0
    4.8137   -0.0084    0.0799 C   0  0  0  0  0  0  0  0  0  0  0  0
    3.5477   -0.2371   -0.5789 C   0  0  0  0  0  0  0  0  0  0  0  0
    2.5135   -0.9747   -0.0332 C   0  0  0  0  0  0  0  0  0  0  0  0
    1.3096   -1.1687   -0.7049 C   0  0  0  0  0  0  0  0  0  0  0  0
    1.1161   -0.6243   -1.9445 C   0  0  0  0  0  0  0  0  0  0  0  0
   -0.1168   -0.7713   -2.7338 C   0  0  2  0  0  0  0  0  0  0  0  0
   -0.1287    0.2362   -3.8839 C   0  0  0  0  0  0  0  0  0  0  0  0
   -1.3117   -0.5830   -1.9833 N   0  0  0  0  0  0  0  0  0  0  0  0
   -1.6125    0.6128   -1.2247 C   0  0  0  0  0  0  0  0  0  0  0  0
   -2.3572    0.1357    0.0307 C   0  0  0  0  0  0  0  0  0  0  0  0
   -3.7113   -0.3866   -0.2944 C   0  0  2  0  0  0  0  0  0  0  0  0
   -4.7027    0.6001   -0.7848 C   0  0  0  0  0  0  0  0  0  0  0  0
   -5.0999    1.7254    0.0615 C   0  0  0  0  0  0  0  0  0  0  0  0
   -4.0457    2.6861    0.5021 C   0  0  0  0  0  0  0  0  0  0  0  0
   -5.8975    1.3413    1.2920 C   0  0  0  0  0  0  0  0  0  0  0  0
   -6.0134    2.5011   -0.7081 O   0  0  0  0  0  0  0  0  0  0  0  0
   -4.2140   -1.1898    0.8512 C   0  0  0  0  0  0  0  0  0  0  0  0
   -5.4140   -1.8354    0.7225 C   0  0  0  0  0  0  0  0  0  0  0  0
   -5.9328   -2.5861    1.7442 C   0  0  0  0  0  0  0  0  0  0  0  0
   -5.2398   -2.6993    2.9286 C   0  0  0  0  0  0  0  0  0  0  0  0
   -4.0304   -2.0553    3.0737 C   0  0  0  0  0  0  0  0  0  0  0  0
   -3.5293   -1.3036    2.0263 C   0  0  0  0  0  0  0  0  0  0  0  0
   -3.5551   -1.3503   -1.3523 O   0  0  0  0  0  0  0  0  0  0  0  0
   -2.3045   -1.6008   -1.9406 C   0  0  0  0  0  0  0  0  0  0  0  0
   -2.0916   -2.7447   -2.4249 O   0  0  0  0  0  0  0  0  0  0  0  0
    2.1497    0.1092   -2.4827 C   0  0  0  0  0  0  0  0  0  0  0  0
    3.3464    0.3103   -1.8314 C   0  0  0  0  0  0  0  0  0  0  0  0
    5.3576   -0.9320    0.9389 C   0  0  0  0  0  0  0  0  0  0  0  0
    6.5841   -0.6441    1.5390 C   0  0  0  0  0  0  0  0  0  0  0  0
    7.1157   -1.4729    2.3366 O   0  0  0  0  0  0  0  0  0  0  0  0
   10.5249    1.0543    1.1552 H   0  0  0  0  0  0  0  0  0  0  0  0
    9.4059    0.2397    0.0258 H   0  0  0  0  0  0  0  0  0  0  0  0
   10.0944   -0.6352    1.4899 H   0  0  0  0  0  0  0  0  0  0  0  0
    8.6407    0.3898    2.9397 H   0  0  0  0  0  0  0  0  0  0  0  0
    8.6318    1.9260    2.0138 H   0  0  0  0  0  0  0  0  0  0  0  0
    7.2493    2.3350    0.2730 H   0  0  0  0  0  0  0  0  0  0  0  0
    5.1352    1.9451   -0.8215 H   0  0  0  0  0  0  0  0  0  0  0  0
    2.6601   -1.4072    0.9454 H   0  0  0  0  0  0  0  0  0  0  0  0
    0.5058   -1.7558   -0.2533 H   0  0  0  0  0  0  0  0  0  0  0  0
   -0.0893   -1.7658   -3.2375 H   0  0  0  0  0  0  0  0  0  0  0  0
    0.5651   -0.1009   -4.6667 H   0  0  0  0  0  0  0  0  0  0  0  0
   -1.1449    0.2396   -4.3564 H   0  0  0  0  0  0  0  0  0  0  0  0
    0.1386    1.2212   -3.4810 H   0  0  0  0  0  0  0  0  0  0  0  0
   -0.6794    1.1040   -0.9340 H   0  0  0  0  0  0  0  0  0  0  0  0
   -2.2152    1.3356   -1.8125 H   0  0  0  0  0  0  0  0  0  0  0  0
   -1.7511   -0.7764    0.3364 H   0  0  0  0  0  0  0  0  0  0  0  0
   -2.2684    0.8148    0.8700 H   0  0  0  0  0  0  0  0  0  0  0  0
   -4.3304    0.9857   -1.7591 H   0  0  0  0  0  0  0  0  0  0  0  0
   -5.6328    0.0322   -1.0610 H   0  0  0  0  0  0  0  0  0  0  0  0
   -4.4556    3.7474    0.5406 H   0  0  0  0  0  0  0  0  0  0  0  0
   -3.1786    2.7714   -0.1720 H   0  0  0  0  0  0  0  0  0  0  0  0
   -3.7522    2.5210    1.5823 H   0  0  0  0  0  0  0  0  0  0  0  0
   -6.7717    0.7008    1.0515 H   0  0  0  0  0  0  0  0  0  0  0  0
   -6.3588    2.3109    1.6509 H   0  0  0  0  0  0  0  0  0  0  0  0
   -5.2881    0.9900    2.1256 H   0  0  0  0  0  0  0  0  0  0  0  0
   -6.3848    1.9951   -1.4479 H   0  0  0  0  0  0  0  0  0  0  0  0
   -5.9782   -1.7632   -0.2006 H   0  0  0  0  0  0  0  0  0  0  0  0
   -6.8881   -3.1108    1.6661 H   0  0  0  0  0  0  0  0  0  0  0  0
   -5.6580   -3.3033    3.7485 H   0  0  0  0  0  0  0  0  0  0  0  0
   -3.4824   -2.1388    3.9966 H   0  0  0  0  0  0  0  0  0  0  0  0
   -2.5858   -0.8039    2.1570 H   0  0  0  0  0  0  0  0  0  0  0  0
    2.0731    0.5782   -3.4727 H   0  0  0  0  0  0  0  0  0  0  0  0
    4.1517    0.8942   -2.2749 H   0  0  0  0  0  0  0  0  0  0  0  0
    4.8803   -1.8648    1.1680 H   0  0  0  0  0  0  0  0  0  0  0  0
  1  2  1  0
  2  3  1  0
  3  4  1  0
  4  5  2  0
  5  6  1  0
  6  7  1  0
  7  8  2  0
  8  9  1  0
  9 10  2  0
 10 11  1  0
 11 12  1  0
 11 13  1  0
 13 14  1  0
 14 15  1  0
 15 16  1  0
 16 17  1  6
 17 18  1  0
 18 19  1  0
 18 20  1  0
 18 21  1  0
 16 22  1  0
 22 23  2  0
 23 24  1  0
 24 25  2  0
 25 26  1  0
 26 27  2  0
 16 28  1  0
 28 29  1  0
 29 30  2  0
 10 31  1  0
 31 32  2  0
  6 33  2  0
 33 34  1  0
 34 35  2  0
 34  3  1  0
 32  7  1  0
 29 13  1  0
 27 22  1  0
  1 36  1  0
  1 37  1  0
  1 38  1  0
  2 39  1  0
  2 40  1  0
  4 41  1  0
  5 42  1  0
  8 43  1  0
  9 44  1  0
 11 45  1  6
 12 46  1  0
 12 47  1  0
 12 48  1  0
 14 49  1  0
 14 50  1  0
 15 51  1  0
 15 52  1  0
 17 53  1  0
 17 54  1  0
 19 55  1  0
 19 56  1  0
 19 57  1  0
 20 58  1  0
 20 59  1  0
 20 60  1  0
 21 61  1  0
 23 62  1  0
 24 63  1  0
 25 64  1  0
 26 65  1  0
 27 66  1  0
 31 67  1  0
 32 68  1  0
 33 69  1  0
M  END
$$$$
