@<TRIPOS>MOLECULE
*****
 64 68 0 0 0
SMALL
GASTEIGER

@<TRIPOS>ATOM
      1 C           2.2416   -2.6395   -1.6830 C.3     1  UNL1       -0.0379
      2 C           3.3101   -1.7871   -1.0788 C.ar    1  UNL1       -0.0285
      3 C           4.5991   -2.2377   -0.8821 C.ar    1  UNL1       -0.0431
      4 C           5.5849   -1.4317   -0.3176 C.ar    1  UNL1        0.0592
      5 C           6.9339   -1.9541   -0.1301 C.2     1  UNL1        0.3368
      6 O           7.7992   -1.2073    0.3796 O.2     1  UNL1       -0.2451
      7 O           7.2281   -3.2475   -0.5136 O.3     1  UNL1       -0.4771
      8 C           5.2540   -0.1451    0.0532 C.ar    1  UNL1       -0.0460
      9 C           3.9805    0.3326   -0.1294 C.ar    1  UNL1       -0.0394
     10 C           3.0373   -0.4923   -0.6888 C.ar    1  UNL1        0.0364
     11 N           1.6897    0.0040   -0.8854 N.am    1  UNL1       -0.2836
     12 C           0.7072   -0.1451    0.1214 C.2     1  UNL1        0.2404
     13 O           1.1209   -0.7459    1.1726 O.2     1  UNL1       -0.2732
     14 C          -0.6654    0.3036    0.0601 C.3     1  UNL1        0.1154
     15 C          -0.8282    1.8121    0.0137 C.3     1  UNL1       -0.0116
     16 C          -2.3035    2.1824   -0.0362 C.3     1  UNL1       -0.0479
     17 C          -2.3623    3.6057    0.5420 C.3     1  UNL1       -0.0527
     18 C          -1.1244    4.3683    0.0891 C.3     1  UNL1       -0.0530
     19 C          -0.6761    3.8892   -1.2741 C.3     1  UNL1       -0.0527
     20 C          -0.1510    2.4760   -1.1346 C.3     1  UNL1       -0.0479
     21 N          -1.5742   -0.3351    0.9652 N.ar    1  UNL1       -0.3112
     22 C          -2.6024   -1.1520    0.6206 C.ar    1  UNL1        0.1425
     23 C          -2.9409   -1.5078   -0.7523 C.ar    1  UNL1        0.0176
     24 C          -3.7707   -0.7030   -1.4986 C.ar    1  UNL1       -0.0497
     25 C          -4.0749   -1.0612   -2.7923 C.ar    1  UNL1       -0.0427
     26 C          -3.5608   -2.2171   -3.3568 C.ar    1  UNL1        0.0410
     27 CL         -3.9481   -2.6795   -5.0141 Cl      1  UNL1       -0.0835
     28 C          -2.7283   -3.0375   -2.6285 C.ar    1  UNL1       -0.0427
     29 C          -2.4322   -2.6661   -1.3337 C.ar    1  UNL1       -0.0497
     30 N          -3.2119   -1.5446    1.7487 N.ar    1  UNL1       -0.2274
     31 C          -2.5912   -0.9922    2.8197 C.ar    1  UNL1        0.0926
     32 C          -2.7841   -1.0481    4.1713 C.ar    1  UNL1        0.0039
     33 C          -1.9868   -0.3723    5.0590 C.ar    1  UNL1        0.1605
     34 F          -2.1977   -0.4427    6.4022 F       1  UNL1       -0.2024
     35 C          -0.9531    0.3916    4.5716 C.ar    1  UNL1        0.1605
     36 F          -0.1805    1.0498    5.4787 F       1  UNL1       -0.2024
     37 C          -0.7396    0.4633    3.2171 C.ar    1  UNL1        0.0021
     38 C          -1.5359   -0.2119    2.3277 C.ar    1  UNL1        0.0727
     39 H           1.5744   -2.0267   -2.3313 H       1  UNL1        0.0278
     40 H           1.6795   -3.2057   -0.9152 H       1  UNL1        0.0278
     41 H           2.7595   -3.3457   -2.3777 H       1  UNL1        0.0278
     42 H           4.8698   -3.2407   -1.1677 H       1  UNL1        0.0629
     43 H           8.1446   -3.6595   -0.3848 H       1  UNL1        0.2954
     44 H           5.9966    0.5124    0.4965 H       1  UNL1        0.0626
     45 H           3.7019    1.3411    0.1559 H       1  UNL1        0.0636
     46 H           1.4304    0.4672   -1.7824 H       1  UNL1        0.1549
     47 H          -1.0183    0.0015   -0.9935 H       1  UNL1        0.0627
     48 H          -0.4181    2.2604    0.9370 H       1  UNL1        0.0325
     49 H          -2.8333    1.4656    0.6234 H       1  UNL1        0.0269
     50 H          -2.6984    2.2304   -1.0606 H       1  UNL1        0.0269
     51 H          -2.3375    3.5900    1.6483 H       1  UNL1        0.0265
     52 H          -3.2391    4.1278    0.1642 H       1  UNL1        0.0265
     53 H          -1.4256    5.4267   -0.0148 H       1  UNL1        0.0265
     54 H          -0.3046    4.3193    0.8069 H       1  UNL1        0.0265
     55 H           0.0750    4.5858   -1.6701 H       1  UNL1        0.0265
     56 H          -1.5541    3.8689   -1.9508 H       1  UNL1        0.0265
     57 H          -0.3659    1.9566   -2.0750 H       1  UNL1        0.0269
     58 H           0.9286    2.5708   -0.8861 H       1  UNL1        0.0269
     59 H          -4.1676    0.1996   -1.0468 H       1  UNL1        0.0625
     60 H          -4.7249   -0.4486   -3.4047 H       1  UNL1        0.0632
     61 H          -2.3265   -3.9466   -3.0785 H       1  UNL1        0.0632
     62 H          -1.7673   -3.3266   -0.7602 H       1  UNL1        0.0625
     63 H          -3.6067   -1.6582    4.5280 H       1  UNL1        0.0669
     64 H           0.0654    1.0593    2.8564 H       1  UNL1        0.0668
@<TRIPOS>BOND
     1     1     2    1
     2     2     3   ar
     3     3     4   ar
     4     4     5    1
     5     5     6    2
     6     5     7    1
     7     4     8   ar
     8     8     9   ar
     9     9    10   ar
    10    10    11    1
    11    11    12   am
    12    12    13    2
    13    12    14    1
    14    14    15    1
    15    15    16    1
    16    16    17    1
    17    17    18    1
    18    18    19    1
    19    19    20    1
    20    14    21    1
    21    21    22   ar
    22    22    23    1
    23    23    24   ar
    24    24    25   ar
    25    25    26   ar
    26    26    27    1
    27    26    28   ar
    28    28    29   ar
    29    22    30   ar
    30    30    31   ar
    31    31    32   ar
    32    32    33   ar
    33    33    34    1
    34    33    35   ar
    35    35    36    1
    36    35    37   ar
    37    37    38   ar
    38    10     2   ar
    39    20    15    1
    40    38    21   ar
    41    29    23   ar
    42    38    31   ar
    43     1    39    1
    44     1    40    1
    45     1    41    1
    46     3    42    1
    47     7    43    1
    48     8    44    1
    49     9    45    1
    50    11    46    1
    51    14    47    1
    52    15    48    1
    53    16    49    1
    54    16    50    1
    55    17    51    1
    56    17    52    1
    57    18    53    1
    58    18    54    1
    59    19    55    1
    60    19    56    1
    61    20    57    1
    62    20    58    1
    63    24    59    1
    64    25    60    1
    65    28    61    1
    66    29    62    1
    67    32    63    1
    68    37    64    1
