
     RDKit          3D

 61 68  0  0  0  0  0  0  0  0999 V2000
    3.9617   -2.7950   -1.7136 C   0  0  0  0  0  0  0  0  0  0  0  0
    3.7246   -1.3958   -1.4264 N   0  0  0  0  0  0  0  0  0  0  0  0
    3.0013   -1.3224   -0.1704 C   0  0  2  0  0  0  0  0  0  0  0  0
    1.7074   -2.0772   -0.3647 C   0  0  0  0  0  0  0  0  0  0  0  0
    0.8361   -1.9038    0.8349 C   0  0  1  0  0  0  0  0  0  0  0  0
    1.1457   -0.9321    1.6917 O   0  0  0  0  0  0  0  0  0  0  0  0
    1.6681    0.2726    1.2416 C   0  0  1  0  0  0  0  0  0  0  0  0
    2.4108    0.7566    2.4714 C   0  0  0  0  0  0  0  0  0  0  0  0
    2.6139    0.1312    0.0850 C   0  0  2  0  0  0  0  0  0  0  0  0
    2.1052    0.6178   -1.1100 O   0  0  0  0  0  0  0  0  0  0  0  0
    2.8979    1.6028   -1.6809 C   0  0  0  0  0  0  0  0  0  0  0  0
    0.5155    1.0983    0.8993 N   0  0  0  0  0  0  0  0  0  0  0  0
    0.4618    2.4553    0.9268 C   0  0  0  0  0  0  0  0  0  0  0  0
    1.4026    3.4191    1.2157 C   0  0  0  0  0  0  0  0  0  0  0  0
    1.0459    4.7493    1.1467 C   0  0  0  0  0  0  0  0  0  0  0  0
   -0.2077    5.1913    0.8021 C   0  0  0  0  0  0  0  0  0  0  0  0
   -1.1479    4.2293    0.5122 C   0  0  0  0  0  0  0  0  0  0  0  0
   -0.8137    2.8896    0.5747 C   0  0  0  0  0  0  0  0  0  0  0  0
   -1.5633    1.7635    0.3199 C   0  0  0  0  0  0  0  0  0  0  0  0
   -2.8646    1.5617   -0.0709 C   0  0  0  0  0  0  0  0  0  0  0  0
   -3.3629    0.2685   -0.2703 C   0  0  0  0  0  0  0  0  0  0  0  0
   -2.5243   -0.8190   -0.0691 C   0  0  0  0  0  0  0  0  0  0  0  0
   -2.6806   -2.1695   -0.1874 C   0  0  0  0  0  0  0  0  0  0  0  0
   -3.7248   -2.9869   -0.5355 C   0  0  0  0  0  0  0  0  0  0  0  0
   -3.5572   -4.3624   -0.5615 C   0  0  0  0  0  0  0  0  0  0  0  0
   -2.3388   -4.8962   -0.2362 C   0  0  0  0  0  0  0  0  0  0  0  0
   -1.2891   -4.0797    0.1135 C   0  0  0  0  0  0  0  0  0  0  0  0
   -1.4440   -2.7125    0.1427 C   0  0  0  0  0  0  0  0  0  0  0  0
   -0.5778   -1.7541    0.4468 N   0  0  0  0  0  0  0  0  0  0  0  0
   -1.2174   -0.5792    0.3257 C   0  0  0  0  0  0  0  0  0  0  0  0
   -0.7396    0.7137    0.5214 C   0  0  0  0  0  0  0  0  0  0  0  0
   -4.7279    0.4188   -0.6650 C   0  0  0  0  0  0  0  0  0  0  0  0
   -5.5570   -0.4913   -0.9456 O   0  0  0  0  0  0  0  0  0  0  0  0
   -5.0432    1.8179   -0.7005 N   0  0  0  0  0  0  0  0  0  0  0  0
   -3.9000    2.5708   -0.3325 C   0  0  0  0  0  0  0  0  0  0  0  0
    4.0363   -3.3259   -0.7491 H   0  0  0  0  0  0  0  0  0  0  0  0
    3.0964   -3.1899   -2.2543 H   0  0  0  0  0  0  0  0  0  0  0  0
    4.9046   -2.8639   -2.3000 H   0  0  0  0  0  0  0  0  0  0  0  0
    3.1611   -1.0204   -2.2181 H   0  0  0  0  0  0  0  0  0  0  0  0
    3.5709   -1.7491    0.6507 H   0  0  0  0  0  0  0  0  0  0  0  0
    1.9957   -3.1503   -0.5373 H   0  0  0  0  0  0  0  0  0  0  0  0
    1.2005   -1.7609   -1.3044 H   0  0  0  0  0  0  0  0  0  0  0  0
    0.8650   -2.8843    1.3949 H   0  0  0  0  0  0  0  0  0  0  0  0
    1.7973    1.4961    3.0188 H   0  0  0  0  0  0  0  0  0  0  0  0
    3.3903    1.2181    2.2646 H   0  0  0  0  0  0  0  0  0  0  0  0
    2.5386   -0.1157    3.1657 H   0  0  0  0  0  0  0  0  0  0  0  0
    3.5816    0.6408    0.3567 H   0  0  0  0  0  0  0  0  0  0  0  0
    2.3911    1.9097   -2.6229 H   0  0  0  0  0  0  0  0  0  0  0  0
    3.9168    1.2398   -1.9282 H   0  0  0  0  0  0  0  0  0  0  0  0
    3.0369    2.4429   -0.9709 H   0  0  0  0  0  0  0  0  0  0  0  0
    2.4030    3.1102    1.4728 H   0  0  0  0  0  0  0  0  0  0  0  0
    1.7881    5.4996    1.3751 H   0  0  0  0  0  0  0  0  0  0  0  0
   -0.4851    6.2349    0.7489 H   0  0  0  0  0  0  0  0  0  0  0  0
   -2.1579    4.5356    0.2328 H   0  0  0  0  0  0  0  0  0  0  0  0
   -4.6966   -2.6429   -0.7993 H   0  0  0  0  0  0  0  0  0  0  0  0
   -4.3859   -5.0264   -0.8386 H   0  0  0  0  0  0  0  0  0  0  0  0
   -2.2081   -5.9658   -0.2563 H   0  0  0  0  0  0  0  0  0  0  0  0
   -0.3071   -4.4829    0.3771 H   0  0  0  0  0  0  0  0  0  0  0  0
   -5.9915    2.1748   -0.9653 H   0  0  0  0  0  0  0  0  0  0  0  0
   -3.6055    3.2703   -1.1673 H   0  0  0  0  0  0  0  0  0  0  0  0
   -4.0529    3.1547    0.6220 H   0  0  0  0  0  0  0  0  0  0  0  0
  1  2  1  0
  2  3  1  0
  3  4  1  0
  4  5  1  0
  5  6  1  0
  6  7  1  0
  7  8  1  1
  7  9  1  0
  9 10  1  0
 10 11  1  0
  7 12  1  0
 12 13  1  0
 13 14  2  0
 14 15  1  0
 15 16  2  0
 16 17  1  0
 17 18  2  0
 18 19  1  0
 19 20  2  0
 20 21  1  0
 21 22  2  0
 22 23  1  0
 23 24  2  0
 24 25  1  0
 25 26  2  0
 26 27  1  0
 27 28  2  0
 28 29  1  0
 29 30  1  0
 30 31  2  0
 21 32  1  0
 32 33  2  0
 32 34  1  0
 34 35  1  0
  9  3  1  0
 31 12  1  0
 29  5  1  0
 18 13  1  0
 31 19  1  0
 35 20  1  0
 30 22  1  0
 28 23  1  0
  1 36  1  0
  1 37  1  0
  1 38  1  0
  2 39  1  0
  3 40  1  1
  4 41  1  0
  4 42  1  0
  5 43  1  1
  8 44  1  0
  8 45  1  0
  8 46  1  0
  9 47  1  1
 11 48  1  0
 11 49  1  0
 11 50  1  0
 14 51  1  0
 15 52  1  0
 16 53  1  0
 17 54  1  0
 24 55  1  0
 25 56  1  0
 26 57  1  0
 27 58  1  0
 34 59  1  0
 35 60  1  0
 35 61  1  0
M  END
$$$$
