@<TRIPOS>MOLECULE
*****
 61 68 0 0 0
SMALL
GASTEIGER

@<TRIPOS>ATOM
      1 C           3.9617   -2.7950   -1.7136 C.3     1  UNL1       -0.0155
      2 N           3.7246   -1.3958   -1.4264 N.3     1  UNL1       -0.3136
      3 C           3.0013   -1.3224   -0.1704 C.3     1  UNL1        0.0423
      4 C           1.7074   -2.0772   -0.3647 C.3     1  UNL1        0.0107
      5 C           0.8361   -1.9038    0.8349 C.3     1  UNL1        0.1402
      6 O           1.1457   -0.9321    1.6917 O.3     1  UNL1       -0.3282
      7 C           1.6681    0.2726    1.2416 C.3     1  UNL1        0.1741
      8 C           2.4108    0.7566    2.4714 C.3     1  UNL1       -0.0136
      9 C           2.6139    0.1312    0.0850 C.3     1  UNL1        0.1214
     10 O           2.1052    0.6178   -1.1100 O.3     1  UNL1       -0.3735
     11 C           2.8979    1.6028   -1.6809 C.3     1  UNL1        0.0371
     12 N           0.5155    1.0983    0.8993 N.ar    1  UNL1       -0.3070
     13 C           0.4618    2.4553    0.9268 C.ar    1  UNL1        0.0527
     14 C           1.4026    3.4191    1.2157 C.ar    1  UNL1       -0.0375
     15 C           1.0459    4.7493    1.1467 C.ar    1  UNL1       -0.0598
     16 C          -0.2077    5.1913    0.8021 C.ar    1  UNL1       -0.0611
     17 C          -1.1479    4.2293    0.5122 C.ar    1  UNL1       -0.0520
     18 C          -0.8137    2.8896    0.5747 C.ar    1  UNL1        0.0081
     19 C          -1.5633    1.7635    0.3199 C.ar    1  UNL1        0.0151
     20 C          -2.8646    1.5617   -0.0709 C.ar    1  UNL1       -0.0078
     21 C          -3.3629    0.2685   -0.2703 C.ar    1  UNL1        0.0518
     22 C          -2.5243   -0.8190   -0.0691 C.ar    1  UNL1        0.0221
     23 C          -2.6806   -2.1695   -0.1874 C.ar    1  UNL1        0.0085
     24 C          -3.7248   -2.9869   -0.5355 C.ar    1  UNL1       -0.0520
     25 C          -3.5572   -4.3624   -0.5615 C.ar    1  UNL1       -0.0611
     26 C          -2.3388   -4.8962   -0.2362 C.ar    1  UNL1       -0.0598
     27 C          -1.2891   -4.0797    0.1135 C.ar    1  UNL1       -0.0375
     28 C          -1.4440   -2.7125    0.1427 C.ar    1  UNL1        0.0524
     29 N          -0.5778   -1.7541    0.4468 N.ar    1  UNL1       -0.3115
     30 C          -1.2174   -0.5792    0.3257 C.ar    1  UNL1        0.0774
     31 C          -0.7396    0.7137    0.5214 C.ar    1  UNL1        0.0772
     32 C          -4.7279    0.4188   -0.6650 C.2     1  UNL1        0.2453
     33 O          -5.5570   -0.4913   -0.9456 O.2     1  UNL1       -0.2702
     34 N          -5.0432    1.8179   -0.7005 N.am    1  UNL1       -0.3072
     35 C          -3.9000    2.5708   -0.3325 C.3     1  UNL1        0.0385
     36 H           4.0363   -3.3259   -0.7491 H       1  UNL1        0.0388
     37 H           3.0964   -3.1899   -2.2543 H       1  UNL1        0.0388
     38 H           4.9046   -2.8639   -2.3000 H       1  UNL1        0.0388
     39 H           3.1611   -1.0204   -2.2181 H       1  UNL1        0.1220
     40 H           3.5709   -1.7491    0.6507 H       1  UNL1        0.0489
     41 H           1.9957   -3.1503   -0.5373 H       1  UNL1        0.0325
     42 H           1.2005   -1.7609   -1.3044 H       1  UNL1        0.0325
     43 H           0.8650   -2.8843    1.3949 H       1  UNL1        0.0839
     44 H           1.7973    1.4961    3.0188 H       1  UNL1        0.0277
     45 H           3.3903    1.2181    2.2646 H       1  UNL1        0.0277
     46 H           2.5386   -0.1157    3.1657 H       1  UNL1        0.0277
     47 H           3.5816    0.6408    0.3567 H       1  UNL1        0.0660
     48 H           2.3911    1.9097   -2.6229 H       1  UNL1        0.0524
     49 H           3.9168    1.2398   -1.9282 H       1  UNL1        0.0524
     50 H           3.0369    2.4429   -0.9709 H       1  UNL1        0.0524
     51 H           2.4030    3.1102    1.4728 H       1  UNL1        0.0638
     52 H           1.7881    5.4996    1.3751 H       1  UNL1        0.0618
     53 H          -0.4851    6.2349    0.7489 H       1  UNL1        0.0618
     54 H          -2.1579    4.5356    0.2328 H       1  UNL1        0.0624
     55 H          -4.6966   -2.6429   -0.7993 H       1  UNL1        0.0624
     56 H          -4.3859   -5.0264   -0.8386 H       1  UNL1        0.0618
     57 H          -2.2081   -5.9658   -0.2563 H       1  UNL1        0.0618
     58 H          -0.3071   -4.4829    0.3771 H       1  UNL1        0.0638
     59 H          -5.9915    2.1748   -0.9653 H       1  UNL1        0.1493
     60 H          -3.6055    3.2703   -1.1673 H       1  UNL1        0.0512
     61 H          -4.0529    3.1547    0.6220 H       1  UNL1        0.0512
@<TRIPOS>BOND
     1     1     2    1
     2     2     3    1
     3     3     4    1
     4     4     5    1
     5     5     6    1
     6     6     7    1
     7     7     8    1
     8     7     9    1
     9     9    10    1
    10    10    11    1
    11     7    12    1
    12    12    13   ar
    13    13    14   ar
    14    14    15   ar
    15    15    16   ar
    16    16    17   ar
    17    17    18   ar
    18    18    19   ar
    19    19    20   ar
    20    20    21   ar
    21    21    22   ar
    22    22    23   ar
    23    23    24   ar
    24    24    25   ar
    25    25    26   ar
    26    26    27   ar
    27    27    28   ar
    28    28    29   ar
    29    29    30   ar
    30    30    31   ar
    31    21    32    1
    32    32    33    2
    33    32    34   am
    34    34    35    1
    35     9     3    1
    36    31    12   ar
    37    29     5    1
    38    18    13   ar
    39    31    19   ar
    40    35    20    1
    41    30    22   ar
    42    28    23   ar
    43     1    36    1
    44     1    37    1
    45     1    38    1
    46     2    39    1
    47     3    40    1
    48     4    41    1
    49     4    42    1
    50     5    43    1
    51     8    44    1
    52     8    45    1
    53     8    46    1
    54     9    47    1
    55    11    48    1
    56    11    49    1
    57    11    50    1
    58    14    51    1
    59    15    52    1
    60    16    53    1
    61    17    54    1
    62    24    55    1
    63    25    56    1
    64    26    57    1
    65    27    58    1
    66    34    59    1
    67    35    60    1
    68    35    61    1
