@<TRIPOS>MOLECULE
*****
 79 81 0 0 0
SMALL
GASTEIGER

@<TRIPOS>ATOM
      1 C           9.2243   -1.1983    0.6930 C.3     1  UNL1       -0.0524
      2 C           9.5788   -0.1653   -0.3250 C.3     1  UNL1       -0.0040
      3 N           8.7570    0.9670   -0.2735 N.3     1  UNL1       -0.3028
      4 C           9.0362    2.0258   -1.1753 C.3     1  UNL1       -0.0040
      5 C           8.7901    1.7261   -2.6229 C.3     1  UNL1       -0.0524
      6 C           7.6744    1.0695    0.5910 C.3     1  UNL1       -0.0011
      7 C           6.4788    0.1873    0.3390 C.3     1  UNL1       -0.0388
      8 C           5.4845    0.5017    1.4430 C.3     1  UNL1       -0.0362
      9 C           4.2104   -0.2656    1.3580 C.3     1  UNL1        0.0118
     10 N           3.4629   -0.0027    0.1263 N.pl3   1  UNL1       -0.3134
     11 C           2.1936   -0.5911   -0.0815 C.ar    1  UNL1        0.2171
     12 N           2.0506   -1.7217   -0.7855 N.ar    1  UNL1       -0.2222
     13 C           0.8230   -2.2774   -0.9706 C.ar    1  UNL1        0.0419
     14 C          -0.2821   -1.6678   -0.4262 C.ar    1  UNL1        0.0381
     15 C          -1.5711   -2.1767   -0.5690 C.ar    1  UNL1       -0.0386
     16 C          -2.6418   -1.5284   -0.0005 C.ar    1  UNL1        0.0233
     17 C          -3.9772   -2.0784   -0.1397 C.ar    1  UNL1       -0.0077
     18 C          -4.7329   -2.2987    1.0149 C.ar    1  UNL1       -0.0119
     19 C          -6.0011   -2.7904    0.8974 C.ar    1  UNL1        0.1241
     20 O          -6.7659   -3.0176    2.0160 O.3     1  UNL1       -0.4950
     21 C          -6.4135   -2.8166    3.3509 C.3     1  UNL1        0.0788
     22 C          -6.5131   -3.0611   -0.3530 C.ar    1  UNL1        0.0218
     23 C          -5.7996   -2.8579   -1.5170 C.ar    1  UNL1        0.1241
     24 O          -6.3738   -3.1504   -2.7398 O.3     1  UNL1       -0.4950
     25 C          -5.7440   -2.9822   -3.9704 C.3     1  UNL1        0.0788
     26 C          -4.5289   -2.3632   -1.3664 C.ar    1  UNL1       -0.0119
     27 C          -2.4461   -0.3737    0.7117 C.ar    1  UNL1        0.1363
     28 N          -3.4813    0.3798    1.3281 N.am    1  UNL1       -0.2536
     29 C          -4.1411    1.4192    0.5775 C.2     1  UNL1        0.3054
     30 O          -3.7630    1.6053   -0.6040 O.2     1  UNL1       -0.2525
     31 N          -5.1671    2.1743    1.1878 N.am    1  UNL1       -0.2944
     32 C          -5.8437    3.2254    0.4633 C.3     1  UNL1        0.0276
     33 C          -6.5339    2.7046   -0.7735 C.3     1  UNL1       -0.0442
     34 C          -4.8425    4.2886   -0.0104 C.3     1  UNL1       -0.0442
     35 C          -6.8886    3.8966    1.3335 C.3     1  UNL1       -0.0442
     36 N          -1.1974    0.1119    0.8452 N.ar    1  UNL1       -0.2116
     37 C          -0.1347   -0.5035    0.2992 C.ar    1  UNL1        0.1668
     38 N           1.0994    0.0072    0.4540 N.ar    1  UNL1       -0.1947
     39 H          10.1770   -1.6456    1.1214 H       1  UNL1        0.0242
     40 H           8.6935   -0.8017    1.5532 H       1  UNL1        0.0242
     41 H           8.7233   -2.0926    0.2400 H       1  UNL1        0.0242
     42 H           9.7090   -0.6019   -1.3472 H       1  UNL1        0.0424
     43 H          10.6316    0.1801   -0.0750 H       1  UNL1        0.0424
     44 H          10.1415    2.2496   -1.0848 H       1  UNL1        0.0424
     45 H           8.5373    2.9530   -0.8340 H       1  UNL1        0.0424
     46 H           7.7191    1.5889   -2.8065 H       1  UNL1        0.0242
     47 H           9.3539    0.7741   -2.8469 H       1  UNL1        0.0242
     48 H           9.1948    2.5591   -3.2276 H       1  UNL1        0.0242
     49 H           7.2579    2.1304    0.4793 H       1  UNL1        0.0426
     50 H           7.9943    1.0669    1.6667 H       1  UNL1        0.0426
     51 H           5.9701    0.4731   -0.6088 H       1  UNL1        0.0278
     52 H           6.6749   -0.8768    0.2801 H       1  UNL1        0.0278
     53 H           5.3085    1.6069    1.5129 H       1  UNL1        0.0281
     54 H           5.9676    0.2327    2.4045 H       1  UNL1        0.0281
     55 H           4.4819   -1.3524    1.3622 H       1  UNL1        0.0462
     56 H           3.5810   -0.0952    2.2510 H       1  UNL1        0.0462
     57 H           3.9251    0.6293   -0.5607 H       1  UNL1        0.1489
     58 H           0.6891   -3.1922   -1.5382 H       1  UNL1        0.0838
     59 H          -1.7081   -3.1025   -1.1408 H       1  UNL1        0.0632
     60 H          -4.2559   -2.0642    1.9759 H       1  UNL1        0.0660
     61 H          -5.3337   -2.6992    3.5010 H       1  UNL1        0.0660
     62 H          -6.7426   -3.7299    3.9411 H       1  UNL1        0.0660
     63 H          -7.0023   -1.9716    3.8126 H       1  UNL1        0.0660
     64 H          -7.5235   -3.4517   -0.4511 H       1  UNL1        0.0691
     65 H          -4.7905   -3.5444   -3.9988 H       1  UNL1        0.0660
     66 H          -6.3775   -3.3735   -4.8004 H       1  UNL1        0.0660
     67 H          -5.4979   -1.9123   -4.1881 H       1  UNL1        0.0660
     68 H          -3.9385   -2.1917   -2.2461 H       1  UNL1        0.0660
     69 H          -3.7965    0.2326    2.2968 H       1  UNL1        0.1578
     70 H          -5.4516    1.9793    2.1767 H       1  UNL1        0.1508
     71 H          -7.0528    1.7400   -0.6191 H       1  UNL1        0.0250
     72 H          -5.8108    2.6834   -1.6157 H       1  UNL1        0.0250
     73 H          -7.3292    3.4354   -1.0886 H       1  UNL1        0.0250
     74 H          -4.8472    4.4104   -1.1042 H       1  UNL1        0.0250
     75 H          -5.0906    5.2662    0.4828 H       1  UNL1        0.0250
     76 H          -3.8298    3.9446    0.3118 H       1  UNL1        0.0250
     77 H          -7.8384    3.3602    1.1520 H       1  UNL1        0.0250
     78 H          -6.5877    3.8811    2.4028 H       1  UNL1        0.0250
     79 H          -7.0060    4.9202    0.9324 H       1  UNL1        0.0250
@<TRIPOS>BOND
     1     1     2    1
     2     2     3    1
     3     3     4    1
     4     4     5    1
     5     3     6    1
     6     6     7    1
     7     7     8    1
     8     8     9    1
     9     9    10    1
    10    10    11    1
    11    11    12   ar
    12    12    13   ar
    13    13    14   ar
    14    14    15   ar
    15    15    16   ar
    16    16    17    1
    17    17    18   ar
    18    18    19   ar
    19    19    20    1
    20    20    21    1
    21    19    22   ar
    22    22    23   ar
    23    23    24    1
    24    24    25    1
    25    23    26   ar
    26    16    27   ar
    27    27    28    1
    28    28    29   am
    29    29    30    2
    30    29    31   am
    31    31    32    1
    32    32    33    1
    33    32    34    1
    34    32    35    1
    35    27    36   ar
    36    36    37   ar
    37    37    38   ar
    38    38    11   ar
    39    37    14   ar
    40    26    17   ar
    41     1    39    1
    42     1    40    1
    43     1    41    1
    44     2    42    1
    45     2    43    1
    46     4    44    1
    47     4    45    1
    48     5    46    1
    49     5    47    1
    50     5    48    1
    51     6    49    1
    52     6    50    1
    53     7    51    1
    54     7    52    1
    55     8    53    1
    56     8    54    1
    57     9    55    1
    58     9    56    1
    59    10    57    1
    60    13    58    1
    61    15    59    1
    62    18    60    1
    63    21    61    1
    64    21    62    1
    65    21    63    1
    66    22    64    1
    67    25    65    1
    68    25    66    1
    69    25    67    1
    70    26    68    1
    71    28    69    1
    72    31    70    1
    73    33    71    1
    74    33    72    1
    75    33    73    1
    76    34    74    1
    77    34    75    1
    78    34    76    1
    79    35    77    1
    80    35    78    1
    81    35    79    1
