
     RDKit          3D

 79 81  0  0  0  0  0  0  0  0999 V2000
    9.2243   -1.1983    0.6930 C   0  0  0  0  0  0  0  0  0  0  0  0
    9.5788   -0.1653   -0.3250 C   0  0  0  0  0  0  0  0  0  0  0  0
    8.7570    0.9670   -0.2735 N   0  0  0  0  0  0  0  0  0  0  0  0
    9.0362    2.0258   -1.1753 C   0  0  0  0  0  0  0  0  0  0  0  0
    8.7901    1.7261   -2.6229 C   0  0  0  0  0  0  0  0  0  0  0  0
    7.6744    1.0695    0.5910 C   0  0  0  0  0  0  0  0  0  0  0  0
    6.4788    0.1873    0.3390 C   0  0  0  0  0  0  0  0  0  0  0  0
    5.4845    0.5017    1.4430 C   0  0  0  0  0  0  0  0  0  0  0  0
    4.2104   -0.2656    1.3580 C   0  0  0  0  0  0  0  0  0  0  0  0
    3.4629   -0.0027    0.1263 N   0  0  0  0  0  0  0  0  0  0  0  0
    2.1936   -0.5911   -0.0815 C   0  0  0  0  0  0  0  0  0  0  0  0
    2.0506   -1.7217   -0.7855 N   0  0  0  0  0  0  0  0  0  0  0  0
    0.8230   -2.2774   -0.9706 C   0  0  0  0  0  0  0  0  0  0  0  0
   -0.2821   -1.6678   -0.4262 C   0  0  0  0  0  0  0  0  0  0  0  0
   -1.5711   -2.1767   -0.5690 C   0  0  0  0  0  0  0  0  0  0  0  0
   -2.6418   -1.5284   -0.0005 C   0  0  0  0  0  0  0  0  0  0  0  0
   -3.9772   -2.0784   -0.1397 C   0  0  0  0  0  0  0  0  0  0  0  0
   -4.7329   -2.2987    1.0149 C   0  0  0  0  0  0  0  0  0  0  0  0
   -6.0011   -2.7904    0.8974 C   0  0  0  0  0  0  0  0  0  0  0  0
   -6.7659   -3.0176    2.0160 O   0  0  0  0  0  0  0  0  0  0  0  0
   -6.4135   -2.8166    3.3509 C   0  0  0  0  0  0  0  0  0  0  0  0
   -6.5131   -3.0611   -0.3530 C   0  0  0  0  0  0  0  0  0  0  0  0
   -5.7996   -2.8579   -1.5170 C   0  0  0  0  0  0  0  0  0  0  0  0
   -6.3738   -3.1504   -2.7398 O   0  0  0  0  0  0  0  0  0  0  0  0
   -5.7440   -2.9822   -3.9704 C   0  0  0  0  0  0  0  0  0  0  0  0
   -4.5289   -2.3632   -1.3664 C   0  0  0  0  0  0  0  0  0  0  0  0
   -2.4461   -0.3737    0.7117 C   0  0  0  0  0  0  0  0  0  0  0  0
   -3.4813    0.3798    1.3281 N   0  0  0  0  0  0  0  0  0  0  0  0
   -4.1411    1.4192    0.5775 C   0  0  0  0  0  0  0  0  0  0  0  0
   -3.7630    1.6053   -0.6040 O   0  0  0  0  0  0  0  0  0  0  0  0
   -5.1671    2.1743    1.1878 N   0  0  0  0  0  0  0  0  0  0  0  0
   -5.8437    3.2254    0.4633 C   0  0  0  0  0  0  0  0  0  0  0  0
   -6.5339    2.7046   -0.7735 C   0  0  0  0  0  0  0  0  0  0  0  0
   -4.8425    4.2886   -0.0104 C   0  0  0  0  0  0  0  0  0  0  0  0
   -6.8886    3.8966    1.3335 C   0  0  0  0  0  0  0  0  0  0  0  0
   -1.1974    0.1119    0.8452 N   0  0  0  0  0  0  0  0  0  0  0  0
   -0.1347   -0.5035    0.2992 C   0  0  0  0  0  0  0  0  0  0  0  0
    1.0994    0.0072    0.4540 N   0  0  0  0  0  0  0  0  0  0  0  0
   10.1770   -1.6456    1.1214 H   0  0  0  0  0  0  0  0  0  0  0  0
    8.6935   -0.8017    1.5532 H   0  0  0  0  0  0  0  0  0  0  0  0
    8.7233   -2.0926    0.2400 H   0  0  0  0  0  0  0  0  0  0  0  0
    9.7090   -0.6019   -1.3472 H   0  0  0  0  0  0  0  0  0  0  0  0
   10.6316    0.1801   -0.0750 H   0  0  0  0  0  0  0  0  0  0  0  0
   10.1415    2.2496   -1.0848 H   0  0  0  0  0  0  0  0  0  0  0  0
    8.5373    2.9530   -0.8340 H   0  0  0  0  0  0  0  0  0  0  0  0
    7.7191    1.5889   -2.8065 H   0  0  0  0  0  0  0  0  0  0  0  0
    9.3539    0.7741   -2.8469 H   0  0  0  0  0  0  0  0  0  0  0  0
    9.1948    2.5591   -3.2276 H   0  0  0  0  0  0  0  0  0  0  0  0
    7.2579    2.1304    0.4793 H   0  0  0  0  0  0  0  0  0  0  0  0
    7.9943    1.0669    1.6667 H   0  0  0  0  0  0  0  0  0  0  0  0
    5.9701    0.4731   -0.6088 H   0  0  0  0  0  0  0  0  0  0  0  0
    6.6749   -0.8768    0.2801 H   0  0  0  0  0  0  0  0  0  0  0  0
    5.3085    1.6069    1.5129 H   0  0  0  0  0  0  0  0  0  0  0  0
    5.9676    0.2327    2.4045 H   0  0  0  0  0  0  0  0  0  0  0  0
    4.4819   -1.3524    1.3622 H   0  0  0  0  0  0  0  0  0  0  0  0
    3.5810   -0.0952    2.2510 H   0  0  0  0  0  0  0  0  0  0  0  0
    3.9251    0.6293   -0.5607 H   0  0  0  0  0  0  0  0  0  0  0  0
    0.6891   -3.1922   -1.5382 H   0  0  0  0  0  0  0  0  0  0  0  0
   -1.7081   -3.1025   -1.1408 H   0  0  0  0  0  0  0  0  0  0  0  0
   -4.2559   -2.0642    1.9759 H   0  0  0  0  0  0  0  0  0  0  0  0
   -5.3337   -2.6992    3.5010 H   0  0  0  0  0  0  0  0  0  0  0  0
   -6.7426   -3.7299    3.9411 H   0  0  0  0  0  0  0  0  0  0  0  0
   -7.0023   -1.9716    3.8126 H   0  0  0  0  0  0  0  0  0  0  0  0
   -7.5235   -3.4517   -0.4511 H   0  0  0  0  0  0  0  0  0  0  0  0
   -4.7905   -3.5444   -3.9988 H   0  0  0  0  0  0  0  0  0  0  0  0
   -6.3775   -3.3735   -4.8004 H   0  0  0  0  0  0  0  0  0  0  0  0
   -5.4979   -1.9123   -4.1881 H   0  0  0  0  0  0  0  0  0  0  0  0
   -3.9385   -2.1917   -2.2461 H   0  0  0  0  0  0  0  0  0  0  0  0
   -3.7965    0.2326    2.2968 H   0  0  0  0  0  0  0  0  0  0  0  0
   -5.4516    1.9793    2.1767 H   0  0  0  0  0  0  0  0  0  0  0  0
   -7.0528    1.7400   -0.6191 H   0  0  0  0  0  0  0  0  0  0  0  0
   -5.8108    2.6834   -1.6157 H   0  0  0  0  0  0  0  0  0  0  0  0
   -7.3292    3.4354   -1.0886 H   0  0  0  0  0  0  0  0  0  0  0  0
   -4.8472    4.4104   -1.1042 H   0  0  0  0  0  0  0  0  0  0  0  0
   -5.0906    5.2662    0.4828 H   0  0  0  0  0  0  0  0  0  0  0  0
   -3.8298    3.9446    0.3118 H   0  0  0  0  0  0  0  0  0  0  0  0
   -7.8384    3.3602    1.1520 H   0  0  0  0  0  0  0  0  0  0  0  0
   -6.5877    3.8811    2.4028 H   0  0  0  0  0  0  0  0  0  0  0  0
   -7.0060    4.9202    0.9324 H   0  0  0  0  0  0  0  0  0  0  0  0
  1  2  1  0
  2  3  1  0
  3  4  1  0
  4  5  1  0
  3  6  1  0
  6  7  1  0
  7  8  1  0
  8  9  1  0
  9 10  1  0
 10 11  1  0
 11 12  2  0
 12 13  1  0
 13 14  2  0
 14 15  1  0
 15 16  2  0
 16 17  1  0
 17 18  2  0
 18 19  1  0
 19 20  1  0
 20 21  1  0
 19 22  2  0
 22 23  1  0
 23 24  1  0
 24 25  1  0
 23 26  2  0
 16 27  1  0
 27 28  1  0
 28 29  1  0
 29 30  2  0
 29 31  1  0
 31 32  1  0
 32 33  1  0
 32 34  1  0
 32 35  1  0
 27 36  2  0
 36 37  1  0
 37 38  2  0
 38 11  1  0
 37 14  1  0
 26 17  1  0
  1 39  1  0
  1 40  1  0
  1 41  1  0
  2 42  1  0
  2 43  1  0
  4 44  1  0
  4 45  1  0
  5 46  1  0
  5 47  1  0
  5 48  1  0
  6 49  1  0
  6 50  1  0
  7 51  1  0
  7 52  1  0
  8 53  1  0
  8 54  1  0
  9 55  1  0
  9 56  1  0
 10 57  1  0
 13 58  1  0
 15 59  1  0
 18 60  1  0
 21 61  1  0
 21 62  1  0
 21 63  1  0
 22 64  1  0
 25 65  1  0
 25 66  1  0
 25 67  1  0
 26 68  1  0
 28 69  1  0
 31 70  1  0
 33 71  1  0
 33 72  1  0
 33 73  1  0
 34 74  1  0
 34 75  1  0
 34 76  1  0
 35 77  1  0
 35 78  1  0
 35 79  1  0
M  END
$$$$
