@<TRIPOS>MOLECULE
*****
 34 36 0 0 0
SMALL
GASTEIGER

@<TRIPOS>ATOM
      1 O           3.0650   -2.0674   -2.5610 O.2     1  UNL1       -0.2451
      2 C           3.8425   -1.7838   -1.6146 C.2     1  UNL1        0.3369
      3 O           5.0977   -2.3332   -1.5596 O.3     1  UNL1       -0.4771
      4 C           3.3924   -0.8637   -0.5772 C.ar    1  UNL1        0.0607
      5 C           4.2108   -0.5241    0.4791 C.ar    1  UNL1       -0.0477
      6 C           3.8037    0.3408    1.4652 C.ar    1  UNL1       -0.0591
      7 C           2.5373    0.8787    1.3854 C.ar    1  UNL1       -0.0353
      8 C           1.6894    0.5696    0.3537 C.ar    1  UNL1        0.1063
      9 S           0.0779    1.2313    0.2163 S.O2    1  UNL1        0.0612
     10 O           0.1091    2.6011    0.8753 O.2     1  UNL1       -0.1528
     11 O          -0.2906    1.4560   -1.2146 O.2     1  UNL1       -0.1528
     12 N          -1.0871    0.2829    1.0051 N.3     1  UNL1       -0.1719
     13 C          -1.1684   -1.0208    0.4531 C.3     1  UNL1        0.0253
     14 C          -2.5795   -1.5173    0.2355 C.3     1  UNL1       -0.0067
     15 C          -3.3794   -0.4206   -0.3394 C.ar    1  UNL1       -0.0045
     16 S          -4.5524   -0.2332   -1.6297 S.2     1  UNL1       -0.1012
     17 C          -4.8626    1.4990   -1.4414 C.ar    1  UNL1       -0.0238
     18 C          -4.0164    1.8392   -0.3609 C.ar    1  UNL1       -0.0500
     19 C          -3.2859    0.9001    0.1836 C.ar    1  UNL1       -0.0215
     20 C          -2.3023    0.9426    1.3247 C.3     1  UNL1        0.0463
     21 C           2.1303   -0.2996   -0.6156 C.ar    1  UNL1       -0.0214
     22 H           5.5159   -2.6701   -2.4233 H       1  UNL1        0.2954
     23 H           5.2090   -0.9544    0.5326 H       1  UNL1        0.0626
     24 H           4.4407    0.6160    2.3032 H       1  UNL1        0.0618
     25 H           2.1509    1.5723    2.1352 H       1  UNL1        0.0637
     26 H          -0.6886   -1.0316   -0.5690 H       1  UNL1        0.0447
     27 H          -0.5748   -1.7277    1.0811 H       1  UNL1        0.0447
     28 H          -2.5351   -2.3224   -0.5266 H       1  UNL1        0.0331
     29 H          -3.0381   -1.9465    1.1344 H       1  UNL1        0.0331
     30 H          -5.5304    2.1432   -2.0070 H       1  UNL1        0.0693
     31 H          -4.0248    2.9283   -0.0269 H       1  UNL1        0.0626
     32 H          -2.7576    0.4881    2.2431 H       1  UNL1        0.0493
     33 H          -2.0846    2.0058    1.5256 H       1  UNL1        0.0493
     34 H           1.4860   -0.5786   -1.4656 H       1  UNL1        0.0645
@<TRIPOS>BOND
     1     1     2    2
     2     2     3    1
     3     2     4    1
     4     4     5   ar
     5     5     6   ar
     6     6     7   ar
     7     7     8   ar
     8     8     9    1
     9     9    10    2
    10     9    11    2
    11     9    12    1
    12    12    13    1
    13    13    14    1
    14    14    15    1
    15    15    16   ar
    16    16    17   ar
    17    17    18   ar
    18    18    19   ar
    19    19    20    1
    20     8    21   ar
    21    21     4   ar
    22    20    12    1
    23    19    15   ar
    24     3    22    1
    25     5    23    1
    26     6    24    1
    27     7    25    1
    28    13    26    1
    29    13    27    1
    30    14    28    1
    31    14    29    1
    32    17    30    1
    33    18    31    1
    34    20    32    1
    35    20    33    1
    36    21    34    1
