
     RDKit          3D

 46 48  0  0  0  0  0  0  0  0999 V2000
   -4.0567    1.4661    1.3447 C   0  0  0  0  0  0  0  0  0  0  0  0
   -4.3242    0.9191   -0.0643 C   0  0  0  0  0  0  0  0  0  0  0  0
   -5.1542    1.9716   -0.7796 C   0  0  0  0  0  0  0  0  0  0  0  0
   -3.0578    0.6342   -0.8014 C   0  0  0  0  0  0  0  0  0  0  0  0
   -2.2205   -0.3349   -0.1493 N   0  0  0  0  0  0  0  0  0  0  0  0
   -0.9932   -0.5639   -0.9749 C   0  0  0  0  0  0  0  0  0  0  0  0
   -0.1735   -1.5513   -0.2256 C   0  0  0  0  0  0  0  0  0  0  0  0
   -0.4327   -2.8797   -0.5906 C   0  0  0  0  0  0  0  0  0  0  0  0
    0.1076   -3.9270    0.0841 C   0  0  0  0  0  0  0  0  0  0  0  0
    0.9277   -3.6402    1.1524 C   0  0  0  0  0  0  0  0  0  0  0  0
    1.1861   -2.3225    1.5119 C   0  0  0  0  0  0  0  0  0  0  0  0
    0.6517   -1.2413    0.8395 C   0  0  0  0  0  0  0  0  0  0  0  0
    1.0505    0.1383    1.1245 C   0  0  0  0  0  0  0  0  0  0  0  0
    2.4141    0.4962    0.8871 N   0  0  0  0  0  0  0  0  0  0  0  0
    3.2142    0.5378    2.0007 C   0  0  0  0  0  0  0  0  0  0  0  0
    2.5863    0.3305    3.5212 S   0  0  0  0  0  0  0  0  0  0  0  0
    4.5124    0.8057    1.8541 N   0  0  0  0  0  0  0  0  0  0  0  0
    5.0372    1.0331    0.6479 C   0  0  0  0  0  0  0  0  0  0  0  0
    6.2718    1.2863    0.5344 O   0  0  0  0  0  0  0  0  0  0  0  0
    4.2725    1.0039   -0.4976 C   0  0  0  0  0  0  0  0  0  0  0  0
    4.5402    1.1882   -1.8003 N   0  0  0  0  0  0  0  0  0  0  0  0
    3.4338    1.0472   -2.5311 C   0  0  0  0  0  0  0  0  0  0  0  0
    2.4224    0.7557   -1.6156 C   0  0  0  0  0  0  0  0  0  0  0  0
    2.9161    0.7215   -0.3331 C   0  0  0  0  0  0  0  0  0  0  0  0
   -3.6382    2.4805    1.3188 H   0  0  0  0  0  0  0  0  0  0  0  0
   -3.4711    0.7508    1.9544 H   0  0  0  0  0  0  0  0  0  0  0  0
   -5.0676    1.5680    1.8233 H   0  0  0  0  0  0  0  0  0  0  0  0
   -4.9800    0.0302    0.0363 H   0  0  0  0  0  0  0  0  0  0  0  0
   -5.3865    2.8232   -0.1233 H   0  0  0  0  0  0  0  0  0  0  0  0
   -6.1084    1.5512   -1.1746 H   0  0  0  0  0  0  0  0  0  0  0  0
   -4.5768    2.2953   -1.6581 H   0  0  0  0  0  0  0  0  0  0  0  0
   -3.3566    0.2398   -1.8067 H   0  0  0  0  0  0  0  0  0  0  0  0
   -2.4928    1.5564   -1.0002 H   0  0  0  0  0  0  0  0  0  0  0  0
   -2.7159   -1.2565   -0.0568 H   0  0  0  0  0  0  0  0  0  0  0  0
   -1.3304   -0.9736   -1.9334 H   0  0  0  0  0  0  0  0  0  0  0  0
   -0.5921    0.4290   -1.0833 H   0  0  0  0  0  0  0  0  0  0  0  0
   -1.0766   -3.1137   -1.4284 H   0  0  0  0  0  0  0  0  0  0  0  0
   -0.1132   -4.9435   -0.2214 H   0  0  0  0  0  0  0  0  0  0  0  0
    1.3790   -4.4222    1.7262 H   0  0  0  0  0  0  0  0  0  0  0  0
    1.8316   -2.1204    2.3565 H   0  0  0  0  0  0  0  0  0  0  0  0
    0.8166    0.4101    2.2035 H   0  0  0  0  0  0  0  0  0  0  0  0
    0.3928    0.8530    0.5531 H   0  0  0  0  0  0  0  0  0  0  0  0
    5.1045    0.8291    2.7377 H   0  0  0  0  0  0  0  0  0  0  0  0
    5.4994    1.4160   -2.1980 H   0  0  0  0  0  0  0  0  0  0  0  0
    3.3407    1.1394   -3.6025 H   0  0  0  0  0  0  0  0  0  0  0  0
    1.4100    0.5835   -1.8730 H   0  0  0  0  0  0  0  0  0  0  0  0
  1  2  1  0
  2  3  1  0
  2  4  1  0
  4  5  1  0
  5  6  1  0
  6  7  1  0
  7  8  2  0
  8  9  1  0
  9 10  2  0
 10 11  1  0
 11 12  2  0
 12 13  1  0
 13 14  1  0
 14 15  1  0
 15 16  2  0
 15 17  1  0
 17 18  1  0
 18 19  2  0
 18 20  1  0
 20 21  1  0
 21 22  1  0
 22 23  2  0
 23 24  1  0
 12  7  1  0
 24 14  1  0
 24 20  2  0
  1 25  1  0
  1 26  1  0
  1 27  1  0
  2 28  1  0
  3 29  1  0
  3 30  1  0
  3 31  1  0
  4 32  1  0
  4 33  1  0
  5 34  1  0
  6 35  1  0
  6 36  1  0
  8 37  1  0
  9 38  1  0
 10 39  1  0
 11 40  1  0
 13 41  1  0
 13 42  1  0
 17 43  1  0
 21 44  1  0
 22 45  1  0
 23 46  1  0
M  END
$$$$
