@<TRIPOS>MOLECULE
*****
 46 48 0 0 0
SMALL
GASTEIGER

@<TRIPOS>ATOM
      1 C          -4.0567    1.4661    1.3447 C.3     1  UNL1       -0.0615
      2 C          -4.3242    0.9191   -0.0643 C.3     1  UNL1       -0.0341
      3 C          -5.1542    1.9716   -0.7796 C.3     1  UNL1       -0.0615
      4 C          -3.0578    0.6342   -0.8014 C.3     1  UNL1       -0.0015
      5 N          -2.2205   -0.3349   -0.1493 N.3     1  UNL1       -0.3118
      6 C          -0.9932   -0.5639   -0.9749 C.3     1  UNL1        0.0216
      7 C          -0.1735   -1.5513   -0.2256 C.ar    1  UNL1       -0.0287
      8 C          -0.4327   -2.8797   -0.5906 C.ar    1  UNL1       -0.0570
      9 C           0.1076   -3.9270    0.0841 C.ar    1  UNL1       -0.0614
     10 C           0.9277   -3.6402    1.1524 C.ar    1  UNL1       -0.0614
     11 C           1.1861   -2.3225    1.5119 C.ar    1  UNL1       -0.0566
     12 C           0.6517   -1.2413    0.8395 C.ar    1  UNL1       -0.0233
     13 C           1.0505    0.1383    1.1245 C.3     1  UNL1        0.0510
     14 N           2.4141    0.4962    0.8871 N.ar    1  UNL1       -0.3149
     15 C           3.2142    0.5378    2.0007 C.ar    1  UNL1        0.1614
     16 S           2.5863    0.3305    3.5212 S.2     1  UNL1       -0.0128
     17 N           4.5124    0.8057    1.8541 N.ar    1  UNL1       -0.3009
     18 C           5.0372    1.0331    0.6479 C.ar    1  UNL1        0.2761
     19 O           6.2718    1.2863    0.5344 O.2     1  UNL1       -0.2655
     20 C           4.2725    1.0039   -0.4976 C.ar    1  UNL1        0.1283
     21 N           4.5402    1.1882   -1.8003 N.ar    1  UNL1       -0.3553
     22 C           3.4338    1.0472   -2.5311 C.ar    1  UNL1        0.0043
     23 C           2.4224    0.7557   -1.6156 C.ar    1  UNL1       -0.0200
     24 C           2.9161    0.7215   -0.3331 C.ar    1  UNL1        0.0743
     25 H          -3.6382    2.4805    1.3188 H       1  UNL1        0.0233
     26 H          -3.4711    0.7508    1.9544 H       1  UNL1        0.0233
     27 H          -5.0676    1.5680    1.8233 H       1  UNL1        0.0233
     28 H          -4.9800    0.0302    0.0363 H       1  UNL1        0.0308
     29 H          -5.3865    2.8232   -0.1233 H       1  UNL1        0.0233
     30 H          -6.1084    1.5512   -1.1746 H       1  UNL1        0.0233
     31 H          -4.5768    2.2953   -1.6581 H       1  UNL1        0.0233
     32 H          -3.3566    0.2398   -1.8067 H       1  UNL1        0.0427
     33 H          -2.4928    1.5564   -1.0002 H       1  UNL1        0.0427
     34 H          -2.7159   -1.2565   -0.0568 H       1  UNL1        0.1223
     35 H          -1.3304   -0.9736   -1.9334 H       1  UNL1        0.0474
     36 H          -0.5921    0.4290   -1.0833 H       1  UNL1        0.0474
     37 H          -1.0766   -3.1137   -1.4284 H       1  UNL1        0.0621
     38 H          -0.1132   -4.9435   -0.2214 H       1  UNL1        0.0618
     39 H           1.3790   -4.4222    1.7262 H       1  UNL1        0.0618
     40 H           1.8316   -2.1204    2.3565 H       1  UNL1        0.0621
     41 H           0.8166    0.4101    2.2035 H       1  UNL1        0.0542
     42 H           0.3928    0.8530    0.5531 H       1  UNL1        0.0542
     43 H           5.1045    0.8291    2.7377 H       1  UNL1        0.1709
     44 H           5.4994    1.4160   -2.1980 H       1  UNL1        0.1655
     45 H           3.3407    1.1394   -3.6025 H       1  UNL1        0.0807
     46 H           1.4100    0.5835   -1.8730 H       1  UNL1        0.0653
@<TRIPOS>BOND
     1     1     2    1
     2     2     3    1
     3     2     4    1
     4     4     5    1
     5     5     6    1
     6     6     7    1
     7     7     8   ar
     8     8     9   ar
     9     9    10   ar
    10    10    11   ar
    11    11    12   ar
    12    12    13    1
    13    13    14    1
    14    14    15   ar
    15    15    16    2
    16    15    17   ar
    17    17    18   ar
    18    18    19    2
    19    18    20   ar
    20    20    21   ar
    21    21    22   ar
    22    22    23   ar
    23    23    24   ar
    24    12     7   ar
    25    24    14   ar
    26    24    20   ar
    27     1    25    1
    28     1    26    1
    29     1    27    1
    30     2    28    1
    31     3    29    1
    32     3    30    1
    33     3    31    1
    34     4    32    1
    35     4    33    1
    36     5    34    1
    37     6    35    1
    38     6    36    1
    39     8    37    1
    40     9    38    1
    41    10    39    1
    42    11    40    1
    43    13    41    1
    44    13    42    1
    45    17    43    1
    46    21    44    1
    47    22    45    1
    48    23    46    1
