@<TRIPOS>MOLECULE
*****
 47 49 0 0 0
SMALL
GASTEIGER

@<TRIPOS>ATOM
      1 C           1.1618    0.0381   -0.8886 C.3     1  UNL1        0.1134
      2 C           2.5416    0.3988   -0.4438 C.3     1  UNL1        0.0879
      3 O           2.6185    1.2951    0.5938 O.3     1  UNL1       -0.2837
      4 P           4.2917    1.5173    0.8834 P.3     1  UNL1        0.4834
      5 O           5.1446    1.5973   -0.5824 O.3     1  UNL1       -0.3022
      6 O           4.4870    2.8300    1.5862 O.2     1  UNL1       -0.2269
      7 O           4.9049    0.2418    1.8094 O.3     1  UNL1       -0.1862
      8 P           6.1904   -0.5468    1.0805 P.3     1  UNL1        0.4808
      9 O           7.1300    0.4832    0.1591 O.3     1  UNL1       -0.3023
     10 O           7.1537   -1.1967    2.3194 O.3     1  UNL1       -0.3023
     11 O           5.7008   -1.7138    0.2453 O.2     1  UNL1       -0.2271
     12 O           0.3612   -0.5405    0.0677 O.3     1  UNL1       -0.3456
     13 C          -0.8383   -0.6595   -0.6738 C.3     1  UNL1        0.1675
     14 N          -1.8707   -1.3045    0.0663 N.ar    1  UNL1       -0.2855
     15 C          -1.9579   -2.6641    0.0722 C.ar    1  UNL1        0.1004
     16 N          -3.0059   -2.9964    0.8373 N.ar    1  UNL1       -0.2306
     17 C          -3.6120   -1.9130    1.3352 C.ar    1  UNL1        0.1473
     18 C          -4.6938   -1.6445    2.1517 C.ar    1  UNL1        0.1472
     19 N          -5.4139   -2.7543    2.6391 N.pl3   1  UNL1       -0.3413
     20 N          -4.9885   -0.3644    2.4265 N.ar    1  UNL1       -0.2188
     21 C          -4.2622    0.6717    1.9312 C.ar    1  UNL1        0.1205
     22 N          -3.2071    0.4075    1.1348 N.ar    1  UNL1       -0.2159
     23 C          -2.8699   -0.8588    0.8289 C.ar    1  UNL1        0.1674
     24 C          -1.0973    0.7582   -1.0584 C.3     1  UNL1        0.1433
     25 O          -1.8500    0.7840   -2.2200 O.3     1  UNL1       -0.2762
     26 P          -3.2257    1.7115   -2.1664 P.3     1  UNL1        0.4728
     27 O          -3.2263    2.8493   -0.9203 O.3     1  UNL1       -0.3026
     28 O          -4.5297    0.6529   -1.8371 O.3     1  UNL1       -0.3026
     29 O          -3.5735    2.4093   -3.4404 O.2     1  UNL1       -0.2275
     30 C           0.3435    1.2163   -1.3324 C.3     1  UNL1        0.1144
     31 O           0.5537    1.3584   -2.7161 O.3     1  UNL1       -0.3864
     32 H           1.2766   -0.7080   -1.7033 H       1  UNL1        0.0647
     33 H           3.0290   -0.5380   -0.0910 H       1  UNL1        0.0592
     34 H           3.1031    0.7174   -1.3439 H       1  UNL1        0.0592
     35 H           5.1151    0.6920   -1.0072 H       1  UNL1        0.2220
     36 H           7.6007    0.0209   -0.5715 H       1  UNL1        0.2220
     37 H           8.0571   -0.7671    2.3279 H       1  UNL1        0.2220
     38 H          -0.5300   -1.2198   -1.5852 H       1  UNL1        0.0867
     39 H          -1.3775   -3.4657   -0.3943 H       1  UNL1        0.1030
     40 H          -5.1106   -2.7308    3.6165 H       1  UNL1        0.1438
     41 H          -6.0879   -3.4700    2.2347 H       1  UNL1        0.1438
     42 H          -4.5838    1.6754    2.2141 H       1  UNL1        0.1048
     43 H          -1.5134    1.3647   -0.2321 H       1  UNL1        0.0674
     44 H          -4.1861    3.1413   -0.8038 H       1  UNL1        0.2220
     45 H          -4.9406    0.3466   -2.6991 H       1  UNL1        0.2220
     46 H           0.5769    2.1322   -0.7650 H       1  UNL1        0.0648
     47 H           1.2105    0.7457   -3.0850 H       1  UNL1        0.2100
@<TRIPOS>BOND
     1     1     2    1
     2     2     3    1
     3     3     4    1
     4     4     5    1
     5     4     6    2
     6     4     7    1
     7     7     8    1
     8     8     9    1
     9     8    10    1
    10     8    11    2
    11     1    12    1
    12    12    13    1
    13    13    14    1
    14    14    15   ar
    15    15    16   ar
    16    16    17   ar
    17    17    18   ar
    18    18    19    1
    19    18    20   ar
    20    20    21   ar
    21    21    22   ar
    22    22    23   ar
    23    13    24    1
    24    24    25    1
    25    25    26    1
    26    26    27    1
    27    26    28    1
    28    26    29    2
    29    24    30    1
    30    30    31    1
    31    30     1    1
    32    23    14   ar
    33    23    17   ar
    34     1    32    1
    35     2    33    1
    36     2    34    1
    37     5    35    1
    38     9    36    1
    39    10    37    1
    40    13    38    1
    41    15    39    1
    42    19    40    1
    43    19    41    1
    44    21    42    1
    45    24    43    1
    46    27    44    1
    47    28    45    1
    48    30    46    1
    49    31    47    1
