@<TRIPOS>MOLECULE
*****
 49 52 0 0 0
SMALL
GASTEIGER

@<TRIPOS>ATOM
      1 C           2.5202    1.8285   -0.6052 C.3     1  UNL1        0.0093
      2 N           1.9223    0.5527   -0.4582 N.3     1  UNL1       -0.1749
      3 C           0.4976    0.4720   -0.6690 C.3     1  UNL1        0.0498
      4 C          -0.1816    1.6928   -1.1376 C.3     1  UNL1       -0.0287
      5 C          -1.2531    2.1813   -0.1452 C.3     1  UNL1       -0.0104
      6 C          -2.0946    0.9940    0.1482 C.ar    1  UNL1        0.0250
      7 C          -3.4620    0.7238    0.1079 C.ar    1  UNL1       -0.0067
      8 C          -4.4241    1.7539   -0.2876 C.3     1  UNL1        0.0722
      9 C          -5.7890    1.3591   -0.5573 C.2     1  UNL1        0.3091
     10 O          -6.0738    0.6535   -1.5594 O.2     1  UNL1       -0.2507
     11 O          -6.8428    1.7442    0.2794 O.3     1  UNL1       -0.4804
     12 C          -3.6877   -0.5804    0.4887 C.ar    1  UNL1        0.0228
     13 C          -4.7992   -1.3783    0.6421 C.ar    1  UNL1       -0.0493
     14 C          -4.6612   -2.6808    1.0538 C.ar    1  UNL1       -0.0429
     15 C          -3.3898   -3.1972    1.3160 C.ar    1  UNL1        0.0299
     16 N          -2.3429   -2.3793    1.1537 N.ar    1  UNL1       -0.2373
     17 C          -2.4149   -1.1022    0.7599 C.ar    1  UNL1        0.1412
     18 N          -1.4931   -0.1260    0.5452 N.ar    1  UNL1       -0.3272
     19 C          -0.0504   -0.0713    0.6685 C.3     1  UNL1        0.0421
     20 S           2.7611   -0.7309   -1.2365 S.O2    1  UNL1        0.0609
     21 O           2.0210   -2.0062   -0.9533 O.2     1  UNL1       -0.1528
     22 O           2.7805   -0.5196   -2.7049 O.2     1  UNL1       -0.1528
     23 C           4.3760   -0.9119   -0.5852 C.ar    1  UNL1        0.1056
     24 C           5.4956   -0.8524   -1.4100 C.ar    1  UNL1       -0.0326
     25 C           6.7630   -0.9665   -0.9144 C.ar    1  UNL1       -0.0246
     26 C           6.9407   -1.1471    0.4453 C.ar    1  UNL1        0.1235
     27 F           8.1955   -1.2675    0.9656 F       1  UNL1       -0.2055
     28 C           5.8499   -1.2084    1.2784 C.ar    1  UNL1       -0.0246
     29 C           4.5791   -1.0907    0.7651 C.ar    1  UNL1       -0.0326
     30 H           2.4193    2.3366   -1.5640 H       1  UNL1        0.0408
     31 H           2.2037    2.5587    0.1929 H       1  UNL1        0.0408
     32 H           3.6360    1.6746   -0.4699 H       1  UNL1        0.0408
     33 H           0.3373   -0.4338   -1.3436 H       1  UNL1        0.0497
     34 H          -0.8190    1.3873   -2.0342 H       1  UNL1        0.0285
     35 H           0.4344    2.5231   -1.4853 H       1  UNL1        0.0285
     36 H          -0.7935    2.5192    0.7992 H       1  UNL1        0.0328
     37 H          -1.8361    2.9479   -0.6747 H       1  UNL1        0.0328
     38 H          -4.0159    2.3146   -1.1774 H       1  UNL1        0.0427
     39 H          -4.4394    2.5395    0.5206 H       1  UNL1        0.0427
     40 H          -7.5687    1.0331    0.4514 H       1  UNL1        0.2951
     41 H          -5.7778   -0.9950    0.4519 H       1  UNL1        0.0625
     42 H          -5.5015   -3.3381    1.1903 H       1  UNL1        0.0633
     43 H          -3.2919   -4.2436    1.6480 H       1  UNL1        0.0830
     44 H           0.4244   -1.0634    0.7976 H       1  UNL1        0.0508
     45 H           0.1608    0.6126    1.5083 H       1  UNL1        0.0508
     46 H           5.3097   -0.7146   -2.4809 H       1  UNL1        0.0638
     47 H           7.6124   -0.9172   -1.6156 H       1  UNL1        0.0647
     48 H           6.0443   -1.3483    2.3303 H       1  UNL1        0.0647
     49 H           3.7192   -1.1323    1.4639 H       1  UNL1        0.0638
@<TRIPOS>BOND
     1     1     2    1
     2     2     3    1
     3     3     4    1
     4     4     5    1
     5     5     6    1
     6     6     7   ar
     7     7     8    1
     8     8     9    1
     9     9    10    2
    10     9    11    1
    11     7    12   ar
    12    12    13   ar
    13    13    14   ar
    14    14    15   ar
    15    15    16   ar
    16    16    17   ar
    17    17    18   ar
    18    18    19    1
    19     2    20    1
    20    20    21    2
    21    20    22    2
    22    20    23    1
    23    23    24   ar
    24    24    25   ar
    25    25    26   ar
    26    26    27    1
    27    26    28   ar
    28    28    29   ar
    29    19     3    1
    30    29    23   ar
    31    18     6   ar
    32    17    12   ar
    33     1    30    1
    34     1    31    1
    35     1    32    1
    36     3    33    1
    37     4    34    1
    38     4    35    1
    39     5    36    1
    40     5    37    1
    41     8    38    1
    42     8    39    1
    43    11    40    1
    44    13    41    1
    45    14    42    1
    46    15    43    1
    47    19    44    1
    48    19    45    1
    49    24    46    1
    50    25    47    1
    51    28    48    1
    52    29    49    1
