@<TRIPOS>MOLECULE
*****
 36 38 0 0 0
SMALL
GASTEIGER

@<TRIPOS>ATOM
      1 N           6.8930   -0.1407    0.1145 N.3     1  UNL1       -0.1739
      2 S           5.3797   -1.0011   -0.0315 S.O2    1  UNL1        0.1892
      3 O           4.9938   -1.0297   -1.4877 O.2     1  UNL1       -0.1191
      4 O           5.5876   -2.4229    0.4492 O.2     1  UNL1       -0.1191
      5 O           4.2496   -0.1802    0.9137 O.3     1  UNL1       -0.3337
      6 C           2.8862   -0.1581    0.6778 C.ar    1  UNL1        0.1614
      7 C           2.0242   -1.0956    1.2193 C.ar    1  UNL1       -0.0162
      8 C           0.6668   -1.0715    0.9827 C.ar    1  UNL1       -0.0473
      9 C           0.0995   -0.1000    0.1858 C.ar    1  UNL1        0.0213
     10 C          -1.2445    0.0050   -0.1069 C.ar    1  UNL1       -0.0268
     11 C          -1.6218    1.0611   -0.9331 C.ar    1  UNL1        0.0408
     12 C          -3.0750    1.2349   -1.2850 C.3     1  UNL1       -0.0206
     13 C          -3.8108    1.3262    0.0317 C.3     1  UNL1       -0.0488
     14 C          -4.2697   -0.0067    0.5033 C.3     1  UNL1       -0.0525
     15 C          -3.4333   -1.1735    0.1217 C.3     1  UNL1       -0.0490
     16 C          -1.9870   -1.0955    0.5650 C.3     1  UNL1       -0.0265
     17 C          -0.7083    1.9617   -1.4394 C.ar    1  UNL1        0.3407
     18 O          -1.2056    2.8577   -2.1692 O.2     1  UNL1       -0.2449
     19 O           0.5413    1.8164   -1.1330 O.2     1  UNL1       -0.4218
     20 C           0.9800    0.8425   -0.3560 C.ar    1  UNL1        0.1429
     21 C           2.3364    0.8247   -0.1243 C.ar    1  UNL1        0.0260
     22 H           7.5532   -0.6697    0.7389 H       1  UNL1        0.1472
     23 H           6.7635    0.7928    0.5555 H       1  UNL1        0.1472
     24 H           2.3961   -1.8829    1.8507 H       1  UNL1        0.0655
     25 H           0.0195   -1.8134    1.4198 H       1  UNL1        0.0626
     26 H          -3.3873    0.3366   -1.8438 H       1  UNL1        0.0315
     27 H          -3.1935    2.1576   -1.8928 H       1  UNL1        0.0315
     28 H          -4.7064    1.9682   -0.1668 H       1  UNL1        0.0268
     29 H          -3.1556    1.8558    0.7551 H       1  UNL1        0.0268
     30 H          -5.2881   -0.1926    0.0498 H       1  UNL1        0.0265
     31 H          -4.4748    0.0386    1.5950 H       1  UNL1        0.0265
     32 H          -3.5041   -1.4662   -0.9240 H       1  UNL1        0.0268
     33 H          -3.8479   -2.0550    0.7002 H       1  UNL1        0.0268
     34 H          -1.5226   -2.0390    0.1422 H       1  UNL1        0.0313
     35 H          -1.9304   -1.0499    1.6633 H       1  UNL1        0.0313
     36 H           2.9963    1.5641   -0.5545 H       1  UNL1        0.0692
@<TRIPOS>BOND
     1     1     2    1
     2     2     3    2
     3     2     4    2
     4     2     5    1
     5     5     6    1
     6     6     7   ar
     7     7     8   ar
     8     8     9   ar
     9     9    10   ar
    10    10    11   ar
    11    11    12    1
    12    12    13    1
    13    13    14    1
    14    14    15    1
    15    15    16    1
    16    11    17   ar
    17    17    18    2
    18    17    19   ar
    19    19    20   ar
    20    20    21   ar
    21    21     6   ar
    22    20     9   ar
    23    16    10    1
    24     1    22    1
    25     1    23    1
    26     7    24    1
    27     8    25    1
    28    12    26    1
    29    12    27    1
    30    13    28    1
    31    13    29    1
    32    14    30    1
    33    14    31    1
    34    15    32    1
    35    15    33    1
    36    16    34    1
    37    16    35    1
    38    21    36    1
