
     RDKit          3D

 36 38  0  0  0  0  0  0  0  0999 V2000
    6.8930   -0.1407    0.1145 N   0  0  0  0  0  0  0  0  0  0  0  0
    5.3797   -1.0011   -0.0315 S   0  0  0  0  0  0  0  0  0  0  0  0
    4.9938   -1.0297   -1.4877 O   0  0  0  0  0  0  0  0  0  0  0  0
    5.5876   -2.4229    0.4492 O   0  0  0  0  0  0  0  0  0  0  0  0
    4.2496   -0.1802    0.9137 O   0  0  0  0  0  0  0  0  0  0  0  0
    2.8862   -0.1581    0.6778 C   0  0  0  0  0  0  0  0  0  0  0  0
    2.0242   -1.0956    1.2193 C   0  0  0  0  0  0  0  0  0  0  0  0
    0.6668   -1.0715    0.9827 C   0  0  0  0  0  0  0  0  0  0  0  0
    0.0995   -0.1000    0.1858 C   0  0  0  0  0  0  0  0  0  0  0  0
   -1.2445    0.0050   -0.1069 C   0  0  0  0  0  0  0  0  0  0  0  0
   -1.6218    1.0611   -0.9331 C   0  0  0  0  0  0  0  0  0  0  0  0
   -3.0750    1.2349   -1.2850 C   0  0  0  0  0  0  0  0  0  0  0  0
   -3.8108    1.3262    0.0317 C   0  0  0  0  0  0  0  0  0  0  0  0
   -4.2697   -0.0067    0.5033 C   0  0  0  0  0  0  0  0  0  0  0  0
   -3.4333   -1.1735    0.1217 C   0  0  0  0  0  0  0  0  0  0  0  0
   -1.9870   -1.0955    0.5650 C   0  0  0  0  0  0  0  0  0  0  0  0
   -0.7083    1.9617   -1.4394 C   0  0  0  0  0  0  0  0  0  0  0  0
   -1.2056    2.8577   -2.1692 O   0  0  0  0  0  0  0  0  0  0  0  0
    0.5413    1.8164   -1.1330 O   0  0  0  0  0  0  0  0  0  0  0  0
    0.9800    0.8425   -0.3560 C   0  0  0  0  0  0  0  0  0  0  0  0
    2.3364    0.8247   -0.1243 C   0  0  0  0  0  0  0  0  0  0  0  0
    7.5532   -0.6697    0.7389 H   0  0  0  0  0  0  0  0  0  0  0  0
    6.7635    0.7928    0.5555 H   0  0  0  0  0  0  0  0  0  0  0  0
    2.3961   -1.8829    1.8507 H   0  0  0  0  0  0  0  0  0  0  0  0
    0.0195   -1.8134    1.4198 H   0  0  0  0  0  0  0  0  0  0  0  0
   -3.3873    0.3366   -1.8438 H   0  0  0  0  0  0  0  0  0  0  0  0
   -3.1935    2.1576   -1.8928 H   0  0  0  0  0  0  0  0  0  0  0  0
   -4.7064    1.9682   -0.1668 H   0  0  0  0  0  0  0  0  0  0  0  0
   -3.1556    1.8558    0.7551 H   0  0  0  0  0  0  0  0  0  0  0  0
   -5.2881   -0.1926    0.0498 H   0  0  0  0  0  0  0  0  0  0  0  0
   -4.4748    0.0386    1.5950 H   0  0  0  0  0  0  0  0  0  0  0  0
   -3.5041   -1.4662   -0.9240 H   0  0  0  0  0  0  0  0  0  0  0  0
   -3.8479   -2.0550    0.7002 H   0  0  0  0  0  0  0  0  0  0  0  0
   -1.5226   -2.0390    0.1422 H   0  0  0  0  0  0  0  0  0  0  0  0
   -1.9304   -1.0499    1.6633 H   0  0  0  0  0  0  0  0  0  0  0  0
    2.9963    1.5641   -0.5545 H   0  0  0  0  0  0  0  0  0  0  0  0
  1  2  1  0
  2  3  2  0
  2  4  2  0
  2  5  1  0
  5  6  1  0
  6  7  2  0
  7  8  1  0
  8  9  2  0
  9 10  1  0
 10 11  2  0
 11 12  1  0
 12 13  1  0
 13 14  1  0
 14 15  1  0
 15 16  1  0
 11 17  1  0
 17 18  2  0
 17 19  1  0
 19 20  1  0
 20 21  2  0
 21  6  1  0
 20  9  1  0
 16 10  1  0
  1 22  1  0
  1 23  1  0
  7 24  1  0
  8 25  1  0
 12 26  1  0
 12 27  1  0
 13 28  1  0
 13 29  1  0
 14 30  1  0
 14 31  1  0
 15 32  1  0
 15 33  1  0
 16 34  1  0
 16 35  1  0
 21 36  1  0
M  END
$$$$
