@<TRIPOS>MOLECULE
*****
 30 33 0 0 0
SMALL
GASTEIGER

@<TRIPOS>ATOM
      1 CL         -5.7339    2.1754   -0.9115 Cl      1  UNL1       -0.0835
      2 C          -4.2342    1.2987   -0.6903 C.ar    1  UNL1        0.0431
      3 C          -4.2178   -0.0830   -0.6694 C.ar    1  UNL1       -0.0413
      4 C          -3.0666   -0.8198   -0.4988 C.ar    1  UNL1       -0.0347
      5 C          -1.8578   -0.1736   -0.3389 C.ar    1  UNL1        0.0693
      6 C          -1.8573    1.2008   -0.3573 C.ar    1  UNL1        0.0910
      7 C          -3.0200    1.9317   -0.5294 C.ar    1  UNL1       -0.0159
      8 N          -0.5669    1.5708   -0.1822 N.ar    1  UNL1       -0.2274
      9 C           0.1918    0.4484   -0.0612 C.ar    1  UNL1        0.1455
     10 N          -0.5895   -0.6393   -0.1556 N.ar    1  UNL1       -0.3202
     11 C          -0.2278   -2.0150   -0.0869 C.3     1  UNL1        0.0594
     12 C           0.6854   -2.3768    1.0404 C.3     1  UNL1        0.1075
     13 O           1.9907   -1.8650    0.8938 O.3     1  UNL1       -0.4895
     14 C           2.4453   -0.5811    0.5663 C.ar    1  UNL1        0.1313
     15 C           3.8017   -0.4195    0.7063 C.ar    1  UNL1       -0.0182
     16 C           4.3598    0.7934    0.4149 C.ar    1  UNL1       -0.0443
     17 C           3.5668    1.8159   -0.0069 C.ar    1  UNL1        0.0188
     18 BR          4.3339    3.5199   -0.4186 Br      1  UNL1       -0.0503
     19 C           2.2023    1.6683   -0.1522 C.ar    1  UNL1       -0.0336
     20 C           1.6360    0.4478    0.1403 C.ar    1  UNL1        0.0601
     21 H          -5.1628   -0.6255   -0.7940 H       1  UNL1        0.0633
     22 H          -3.0588   -1.9032   -0.4831 H       1  UNL1        0.0639
     23 H          -3.0117    3.0103   -0.5428 H       1  UNL1        0.0654
     24 H           0.1794   -2.3210   -1.0712 H       1  UNL1        0.0526
     25 H          -1.1648   -2.6104    0.0459 H       1  UNL1        0.0526
     26 H           0.2180   -2.0824    1.9947 H       1  UNL1        0.0714
     27 H           0.7747   -3.4834    1.0594 H       1  UNL1        0.0714
     28 H           4.3677   -1.2719    1.0446 H       1  UNL1        0.0655
     29 H           5.4493    0.8894    0.5376 H       1  UNL1        0.0630
     30 H           1.5672    2.5001   -0.4938 H       1  UNL1        0.0637
@<TRIPOS>BOND
     1     1     2    1
     2     2     3   ar
     3     3     4   ar
     4     4     5   ar
     5     5     6   ar
     6     6     7   ar
     7     6     8   ar
     8     8     9   ar
     9     9    10   ar
    10    10    11    1
    11    11    12    1
    12    12    13    1
    13    13    14    1
    14    14    15   ar
    15    15    16   ar
    16    16    17   ar
    17    17    18    1
    18    17    19   ar
    19    19    20   ar
    20     7     2   ar
    21    20     9    1
    22    10     5   ar
    23    20    14   ar
    24     3    21    1
    25     4    22    1
    26     7    23    1
    27    11    24    1
    28    11    25    1
    29    12    26    1
    30    12    27    1
    31    15    28    1
    32    16    29    1
    33    19    30    1
