@<TRIPOS>MOLECULE
*****
 51 55 0 0 0
SMALL
GASTEIGER

@<TRIPOS>ATOM
      1 C          -2.9356   -1.0587   -2.1529 C.3     1  UNL1       -0.0274
      2 C          -2.4884   -0.7178   -0.7437 C.3     1  UNL1        0.1037
      3 O          -2.4814    0.6889   -0.6439 O.3     1  UNL1       -0.4725
      4 C          -1.2704    1.3290   -0.3990 C.ar    1  UNL1        0.2265
      5 N          -0.1142    0.6628   -0.2547 N.ar    1  UNL1       -0.2122
      6 C           1.0544    1.3225   -0.0154 C.ar    1  UNL1        0.0783
      7 C           2.2904    0.5626    0.1355 C.ar    1  UNL1        0.0186
      8 C           2.2614   -0.8371    0.0325 C.ar    1  UNL1       -0.0494
      9 C           3.4445   -1.5198    0.1801 C.ar    1  UNL1       -0.0395
     10 C           4.6464   -0.9146    0.4211 C.ar    1  UNL1        0.0444
     11 C           5.9196   -1.6674    0.5786 C.3     1  UNL1        0.0014
     12 C           5.9062   -3.0435    1.1288 C.3     1  UNL1       -0.0442
     13 C           6.1097   -2.8919   -0.3409 C.3     1  UNL1       -0.0442
     14 N           4.6365    0.4243    0.5134 N.ar    1  UNL1       -0.2590
     15 C           3.4907    1.1611    0.3758 C.ar    1  UNL1        0.0370
     16 C           1.0177    2.6701    0.0731 C.ar    1  UNL1       -0.0077
     17 C          -0.1574    3.4192   -0.0685 C.ar    1  UNL1        0.0999
     18 N          -0.4840    4.7198   -0.0312 N.ar    1  UNL1       -0.1712
     19 N          -1.7939    4.8630   -0.2376 N.ar    1  UNL1       -0.2732
     20 C          -2.5273    6.1141   -0.2710 C.3     1  UNL1        0.0302
     21 C          -2.3465    3.6279   -0.4155 C.ar    1  UNL1        0.0380
     22 C          -1.3126    2.7089   -0.3092 C.ar    1  UNL1        0.0812
     23 C          -3.4340   -1.3706    0.2086 C.3     1  UNL1        0.0196
     24 C          -3.3828   -2.8667   -0.0272 C.3     1  UNL1        0.0182
     25 N          -3.7386   -3.4357    1.2629 N.am    1  UNL1       -0.3149
     26 C          -3.7526   -2.4107    2.2625 C.2     1  UNL1        0.2135
     27 O          -4.2615   -2.4751    3.3941 O.2     1  UNL1       -0.2758
     28 C          -3.0276   -1.2589    1.6503 C.3     1  UNL1        0.0315
     29 H          -2.9822   -2.1401   -2.3307 H       1  UNL1        0.0265
     30 H          -3.9925   -0.6795   -2.2647 H       1  UNL1        0.0265
     31 H          -2.2586   -0.5155   -2.8365 H       1  UNL1        0.0265
     32 H          -1.4898   -1.1608   -0.6096 H       1  UNL1        0.0734
     33 H           1.3171   -1.3178   -0.1572 H       1  UNL1        0.0625
     34 H           3.4552   -2.6043    0.1057 H       1  UNL1        0.0636
     35 H           6.8116   -1.0699    0.7680 H       1  UNL1        0.0364
     36 H           6.8042   -3.3804    1.6888 H       1  UNL1        0.0272
     37 H           4.9422   -3.5009    1.4740 H       1  UNL1        0.0272
     38 H           5.2438   -3.1322   -0.9793 H       1  UNL1        0.0272
     39 H           7.0962   -3.0071   -0.8094 H       1  UNL1        0.0272
     40 H           3.5481    2.2515    0.4618 H       1  UNL1        0.0836
     41 H           1.8917    3.2711    0.2596 H       1  UNL1        0.0661
     42 H          -1.9483    6.8645   -0.8725 H       1  UNL1        0.0473
     43 H          -3.4812    5.9684   -0.8394 H       1  UNL1        0.0473
     44 H          -2.6842    6.5482    0.7207 H       1  UNL1        0.0473
     45 H          -3.3674    3.3752   -0.6019 H       1  UNL1        0.0834
     46 H          -4.4774   -1.0247    0.1068 H       1  UNL1        0.0356
     47 H          -4.0927   -3.1938   -0.7974 H       1  UNL1        0.0466
     48 H          -2.3357   -3.2026   -0.2342 H       1  UNL1        0.0466
     49 H          -3.9604   -4.4250    1.4920 H       1  UNL1        0.1487
     50 H          -3.3690   -0.3063    2.1182 H       1  UNL1        0.0363
     51 H          -1.9394   -1.4239    1.7960 H       1  UNL1        0.0363
@<TRIPOS>BOND
     1     1     2    1
     2     2     3    1
     3     3     4    1
     4     4     5   ar
     5     5     6   ar
     6     6     7    1
     7     7     8   ar
     8     8     9   ar
     9     9    10   ar
    10    10    11    1
    11    11    12    1
    12    12    13    1
    13    10    14   ar
    14    14    15   ar
    15     6    16   ar
    16    16    17   ar
    17    17    18   ar
    18    18    19   ar
    19    19    20    1
    20    19    21   ar
    21    21    22   ar
    22     2    23    1
    23    23    24    1
    24    24    25    1
    25    25    26   am
    26    26    27    2
    27    26    28    1
    28    22     4   ar
    29    28    23    1
    30    15     7   ar
    31    22    17   ar
    32    13    11    1
    33     1    29    1
    34     1    30    1
    35     1    31    1
    36     2    32    1
    37     8    33    1
    38     9    34    1
    39    11    35    1
    40    12    36    1
    41    12    37    1
    42    13    38    1
    43    13    39    1
    44    15    40    1
    45    16    41    1
    46    20    42    1
    47    20    43    1
    48    20    44    1
    49    21    45    1
    50    23    46    1
    51    24    47    1
    52    24    48    1
    53    25    49    1
    54    28    50    1
    55    28    51    1
