
     RDKit          3D

 45 48  0  0  0  0  0  0  0  0999 V2000
    1.3014   -1.9476   -1.7706 C   0  0  0  0  0  0  0  0  0  0  0  0
    1.7787   -0.8615   -0.9066 N   0  0  0  0  0  0  0  0  0  0  0  0
    3.0686   -0.7338   -0.5431 C   0  0  0  0  0  0  0  0  0  0  0  0
    3.8213   -1.6469   -1.0244 O   0  0  0  0  0  0  0  0  0  0  0  0
    3.4769    0.3073    0.2747 C   0  0  0  0  0  0  0  0  0  0  0  0
    2.5387    1.2186    0.7154 C   0  0  0  0  0  0  0  0  0  0  0  0
    1.2407    1.0444    0.3174 C   0  0  0  0  0  0  0  0  0  0  0  0
    0.3046    1.9638    0.7643 C   0  0  0  0  0  0  0  0  0  0  0  0
   -0.9886    1.8480    0.4084 N   0  0  0  0  0  0  0  0  0  0  0  0
   -1.3535    0.8136   -0.3954 C   0  0  0  0  0  0  0  0  0  0  0  0
   -2.7298    0.7317   -0.7452 N   0  0  0  0  0  0  0  0  0  0  0  0
   -3.8578    0.0976   -0.1652 C   0  0  0  0  0  0  0  0  0  0  0  0
   -5.0739    0.2338   -0.7935 C   0  0  0  0  0  0  0  0  0  0  0  0
   -6.1254   -0.4132   -0.1673 C   0  0  0  0  0  0  0  0  0  0  0  0
   -7.4783   -0.3165   -0.7826 C   0  0  0  0  0  0  0  0  0  0  0  0
   -8.1678    0.8006   -0.2752 O   0  0  0  0  0  0  0  0  0  0  0  0
   -6.0406   -1.1514    0.9909 C   0  0  0  0  0  0  0  0  0  0  0  0
   -4.7923   -1.2529    1.5772 C   0  0  0  0  0  0  0  0  0  0  0  0
   -3.6867   -0.6255    0.9997 C   0  0  0  0  0  0  0  0  0  0  0  0
   -0.4785   -0.1019   -0.8525 N   0  0  0  0  0  0  0  0  0  0  0  0
    0.8241   -0.0005   -0.5047 C   0  0  0  0  0  0  0  0  0  0  0  0
    4.9088    0.2819    0.5609 C   0  0  0  0  0  0  0  0  0  0  0  0
    5.6921    0.9845   -0.3407 C   0  0  0  0  0  0  0  0  0  0  0  0
    5.0810    1.8653   -1.7474 Cl  0  0  0  0  0  0  0  0  0  0  0  0
    7.0608    1.0378   -0.1818 C   0  0  0  0  0  0  0  0  0  0  0  0
    7.7053    0.4072    0.8614 C   0  0  0  0  0  0  0  0  0  0  0  0
    6.9030   -0.2949    1.7589 C   0  0  0  0  0  0  0  0  0  0  0  0
    5.5303   -0.3593    1.6156 C   0  0  0  0  0  0  0  0  0  0  0  0
    4.4830   -1.2275    2.7158 Cl  0  0  0  0  0  0  0  0  0  0  0  0
    0.7061   -1.5782   -2.6231 H   0  0  0  0  0  0  0  0  0  0  0  0
    2.1256   -2.6329   -2.0446 H   0  0  0  0  0  0  0  0  0  0  0  0
    0.5915   -2.5739   -1.1610 H   0  0  0  0  0  0  0  0  0  0  0  0
    2.9250    1.9876    1.3374 H   0  0  0  0  0  0  0  0  0  0  0  0
    0.6055    2.7919    1.4096 H   0  0  0  0  0  0  0  0  0  0  0  0
   -2.7822    1.2904   -1.6173 H   0  0  0  0  0  0  0  0  0  0  0  0
   -5.2055    0.7973   -1.7008 H   0  0  0  0  0  0  0  0  0  0  0  0
   -7.3622   -0.1681   -1.8713 H   0  0  0  0  0  0  0  0  0  0  0  0
   -8.0997   -1.2056   -0.5508 H   0  0  0  0  0  0  0  0  0  0  0  0
   -7.9781    1.6167   -0.8041 H   0  0  0  0  0  0  0  0  0  0  0  0
   -6.9133   -1.6295    1.4204 H   0  0  0  0  0  0  0  0  0  0  0  0
   -4.7116   -1.8267    2.4826 H   0  0  0  0  0  0  0  0  0  0  0  0
   -2.7437   -0.7509    1.5172 H   0  0  0  0  0  0  0  0  0  0  0  0
    7.7491    1.5668   -0.8434 H   0  0  0  0  0  0  0  0  0  0  0  0
    8.7853    0.4269    1.0198 H   0  0  0  0  0  0  0  0  0  0  0  0
    7.3622   -0.8145    2.6058 H   0  0  0  0  0  0  0  0  0  0  0  0
  1  2  1  0
  2  3  1  0
  3  4  2  0
  3  5  1  0
  5  6  2  0
  6  7  1  0
  7  8  2  0
  8  9  1  0
  9 10  2  0
 10 11  1  0
 11 12  1  0
 12 13  2  0
 13 14  1  0
 14 15  1  0
 15 16  1  0
 14 17  2  0
 17 18  1  0
 18 19  2  0
 10 20  1  0
 20 21  2  0
  5 22  1  0
 22 23  2  0
 23 24  1  0
 23 25  1  0
 25 26  2  0
 26 27  1  0
 27 28  2  0
 28 29  1  0
 21  2  1  0
 28 22  1  0
 21  7  1  0
 19 12  1  0
  1 30  1  0
  1 31  1  0
  1 32  1  0
  6 33  1  0
  8 34  1  0
 11 35  1  0
 13 36  1  0
 15 37  1  0
 15 38  1  0
 16 39  1  0
 17 40  1  0
 18 41  1  0
 19 42  1  0
 25 43  1  0
 26 44  1  0
 27 45  1  0
M  END
$$$$
