@<TRIPOS>MOLECULE
*****
 45 48 0 0 0
SMALL
GASTEIGER

@<TRIPOS>ATOM
      1 C           1.3014   -1.9476   -1.7706 C.3     1  UNL1        0.0167
      2 N           1.7787   -0.8615   -0.9066 N.ar    1  UNL1       -0.2953
      3 C           3.0686   -0.7338   -0.5431 C.ar    1  UNL1        0.2604
      4 O           3.8213   -1.6469   -1.0244 O.2     1  UNL1       -0.2670
      5 C           3.4769    0.3073    0.2747 C.ar    1  UNL1        0.0502
      6 C           2.5387    1.2186    0.7154 C.ar    1  UNL1       -0.0366
      7 C           1.2407    1.0444    0.3174 C.ar    1  UNL1        0.0365
      8 C           0.3046    1.9638    0.7643 C.ar    1  UNL1        0.0418
      9 N          -0.9886    1.8480    0.4084 N.ar    1  UNL1       -0.2219
     10 C          -1.3535    0.8136   -0.3954 C.ar    1  UNL1        0.2214
     11 N          -2.7298    0.7317   -0.7452 N.pl3   1  UNL1       -0.2836
     12 C          -3.8578    0.0976   -0.1652 C.ar    1  UNL1        0.0339
     13 C          -5.0739    0.2338   -0.7935 C.ar    1  UNL1       -0.0351
     14 C          -6.1254   -0.4132   -0.1673 C.ar    1  UNL1       -0.0204
     15 C          -7.4783   -0.3165   -0.7826 C.3     1  UNL1        0.0693
     16 O          -8.1678    0.8006   -0.2752 O.3     1  UNL1       -0.3904
     17 C          -6.0406   -1.1514    0.9909 C.ar    1  UNL1       -0.0563
     18 C          -4.7923   -1.2529    1.5772 C.ar    1  UNL1       -0.0597
     19 C          -3.6867   -0.6255    0.9997 C.ar    1  UNL1       -0.0405
     20 N          -0.4785   -0.1019   -0.8525 N.ar    1  UNL1       -0.1961
     21 C           0.8241   -0.0005   -0.5047 C.ar    1  UNL1        0.1482
     22 C           4.9088    0.2819    0.5609 C.ar    1  UNL1        0.0239
     23 C           5.6921    0.9845   -0.3407 C.ar    1  UNL1        0.0502
     24 CL          5.0810    1.8653   -1.7474 Cl      1  UNL1       -0.0829
     25 C           7.0608    1.0378   -0.1818 C.ar    1  UNL1       -0.0427
     26 C           7.7053    0.4072    0.8614 C.ar    1  UNL1       -0.0590
     27 C           6.9030   -0.2949    1.7589 C.ar    1  UNL1       -0.0427
     28 C           5.5303   -0.3593    1.6156 C.ar    1  UNL1        0.0502
     29 CL          4.4830   -1.2275    2.7158 Cl      1  UNL1       -0.0829
     30 H           0.7061   -1.5782   -2.6231 H       1  UNL1        0.0457
     31 H           2.1256   -2.6329   -2.0446 H       1  UNL1        0.0457
     32 H           0.5915   -2.5739   -1.1610 H       1  UNL1        0.0457
     33 H           2.9250    1.9876    1.3374 H       1  UNL1        0.0633
     34 H           0.6055    2.7919    1.4096 H       1  UNL1        0.0838
     35 H          -2.7822    1.2904   -1.6173 H       1  UNL1        0.1550
     36 H          -5.2055    0.7973   -1.7008 H       1  UNL1        0.0639
     37 H          -7.3622   -0.1681   -1.8713 H       1  UNL1        0.0607
     38 H          -8.0997   -1.2056   -0.5508 H       1  UNL1        0.0607
     39 H          -7.9781    1.6167   -0.8041 H       1  UNL1        0.2098
     40 H          -6.9133   -1.6295    1.4204 H       1  UNL1        0.0621
     41 H          -4.7116   -1.8267    2.4826 H       1  UNL1        0.0618
     42 H          -2.7437   -0.7509    1.5172 H       1  UNL1        0.0636
     43 H           7.7491    1.5668   -0.8434 H       1  UNL1        0.0632
     44 H           8.7853    0.4269    1.0198 H       1  UNL1        0.0618
     45 H           7.3622   -0.8145    2.6058 H       1  UNL1        0.0632
@<TRIPOS>BOND
     1     1     2    1
     2     2     3   ar
     3     3     4    2
     4     3     5   ar
     5     5     6   ar
     6     6     7   ar
     7     7     8   ar
     8     8     9   ar
     9     9    10   ar
    10    10    11    1
    11    11    12    1
    12    12    13   ar
    13    13    14   ar
    14    14    15    1
    15    15    16    1
    16    14    17   ar
    17    17    18   ar
    18    18    19   ar
    19    10    20   ar
    20    20    21   ar
    21     5    22    1
    22    22    23   ar
    23    23    24    1
    24    23    25   ar
    25    25    26   ar
    26    26    27   ar
    27    27    28   ar
    28    28    29    1
    29    21     2   ar
    30    28    22   ar
    31    21     7   ar
    32    19    12   ar
    33     1    30    1
    34     1    31    1
    35     1    32    1
    36     6    33    1
    37     8    34    1
    38    11    35    1
    39    13    36    1
    40    15    37    1
    41    15    38    1
    42    16    39    1
    43    17    40    1
    44    18    41    1
    45    19    42    1
    46    25    43    1
    47    26    44    1
    48    27    45    1
