@<TRIPOS>MOLECULE
*****
 44 46 0 0 0
SMALL
GASTEIGER

@<TRIPOS>ATOM
      1 N          -5.7681   -3.0775    0.2388 N.am    1  UNL1       -0.3253
      2 C          -5.7541   -1.6689    0.0716 C.2     1  UNL1        0.2436
      3 O          -6.8579   -1.1002   -0.1146 O.2     1  UNL1       -0.2703
      4 C          -4.5247   -0.8857    0.1095 C.ar    1  UNL1        0.0626
      5 C          -3.3057   -1.4848    0.3117 C.ar    1  UNL1       -0.0458
      6 C          -2.1473   -0.7027    0.3421 C.ar    1  UNL1       -0.0394
      7 C          -2.1852    0.6590    0.1745 C.ar    1  UNL1        0.0379
      8 N          -1.0176    1.4168    0.2359 N.pl3   1  UNL1       -0.3433
      9 C           0.3146    0.8812    0.4173 C.3     1  UNL1        0.0091
     10 C           0.8584    0.2056   -0.7896 C.3     1  UNL1       -0.0372
     11 C           2.2350   -0.3407   -0.5305 C.3     1  UNL1       -0.0476
     12 C           3.2278    0.7023   -0.1486 C.3     1  UNL1       -0.0276
     13 C           4.5643    0.1128    0.0935 C.ar    1  UNL1       -0.0474
     14 C           5.4799   -0.0151   -0.9266 C.ar    1  UNL1       -0.0586
     15 C           6.7401   -0.5623   -0.7355 C.ar    1  UNL1       -0.0615
     16 C           7.0765   -0.9922    0.5354 C.ar    1  UNL1       -0.0617
     17 C           6.1908   -0.8813    1.5773 C.ar    1  UNL1       -0.0615
     18 C           4.9502   -0.3331    1.3479 C.ar    1  UNL1       -0.0586
     19 C          -3.4033    1.2587   -0.0274 C.ar    1  UNL1        0.0400
     20 C          -3.5785    2.6085   -0.2086 C.ar    1  UNL1        0.0403
     21 N          -4.8210    3.1060   -0.4015 N.ar    1  UNL1       -0.2430
     22 C          -5.9272    2.3500   -0.4290 C.ar    1  UNL1        0.1166
     23 N          -5.7905    1.0311   -0.2558 N.ar    1  UNL1       -0.2346
     24 C          -4.5740    0.4792   -0.0591 C.ar    1  UNL1        0.0880
     25 H          -5.6908   -3.4460    1.2148 H       1  UNL1        0.1453
     26 H          -5.8504   -3.7545   -0.5506 H       1  UNL1        0.1453
     27 H          -3.2692   -2.5637    0.4447 H       1  UNL1        0.0626
     28 H          -1.2387   -1.2542    0.5208 H       1  UNL1        0.0636
     29 H          -1.0515    2.4689    0.1476 H       1  UNL1        0.1461
     30 H           0.1986    0.0826    1.2043 H       1  UNL1        0.0461
     31 H           0.9765    1.6871    0.7562 H       1  UNL1        0.0461
     32 H           0.9212    0.9693   -1.6133 H       1  UNL1        0.0280
     33 H           0.1608   -0.5523   -1.1677 H       1  UNL1        0.0280
     34 H           2.1452   -1.1405    0.2411 H       1  UNL1        0.0269
     35 H           2.6087   -0.8471   -1.4437 H       1  UNL1        0.0269
     36 H           2.9702    1.2833    0.7499 H       1  UNL1        0.0313
     37 H           3.2793    1.4374   -0.9959 H       1  UNL1        0.0313
     38 H           5.2408    0.3132   -1.9278 H       1  UNL1        0.0620
     39 H           7.4412   -0.6517   -1.5532 H       1  UNL1        0.0618
     40 H           8.0562   -1.4165    0.6795 H       1  UNL1        0.0618
     41 H           6.4897   -1.2260    2.5460 H       1  UNL1        0.0618
     42 H           4.2509   -0.2450    2.1681 H       1  UNL1        0.0620
     43 H          -2.7293    3.2678   -0.1979 H       1  UNL1        0.0837
     44 H          -6.8918    2.8211   -0.5889 H       1  UNL1        0.1047
@<TRIPOS>BOND
     1     1     2   am
     2     2     3    2
     3     2     4    1
     4     4     5   ar
     5     5     6   ar
     6     6     7   ar
     7     7     8    1
     8     8     9    1
     9     9    10    1
    10    10    11    1
    11    11    12    1
    12    12    13    1
    13    13    14   ar
    14    14    15   ar
    15    15    16   ar
    16    16    17   ar
    17    17    18   ar
    18     7    19   ar
    19    19    20   ar
    20    20    21   ar
    21    21    22   ar
    22    22    23   ar
    23    23    24   ar
    24    24     4   ar
    25    18    13   ar
    26    24    19   ar
    27     1    25    1
    28     1    26    1
    29     5    27    1
    30     6    28    1
    31     8    29    1
    32     9    30    1
    33     9    31    1
    34    10    32    1
    35    10    33    1
    36    11    34    1
    37    11    35    1
    38    12    36    1
    39    12    37    1
    40    14    38    1
    41    15    39    1
    42    16    40    1
    43    17    41    1
    44    18    42    1
    45    20    43    1
    46    22    44    1
