@<TRIPOS>MOLECULE
*****
 49 53 0 0 0
SMALL
GASTEIGER

@<TRIPOS>ATOM
      1 C          -4.1329   -3.4458    0.4227 C.ar    1  UNL1       -0.0617
      2 C          -3.7544   -3.3953   -0.9032 C.ar    1  UNL1       -0.0612
      3 C          -2.4551   -3.1191   -1.2214 C.ar    1  UNL1       -0.0540
      4 C          -1.5389   -2.8946   -0.2277 C.ar    1  UNL1       -0.0171
      5 C          -0.1434   -2.7326   -0.5416 C.ar    1  UNL1       -0.0054
      6 C           0.4733   -3.8934   -1.0587 C.ar    1  UNL1       -0.0532
      7 C           1.8295   -3.9134   -1.2302 C.ar    1  UNL1       -0.0591
      8 C           2.6008   -2.8240   -0.9076 C.ar    1  UNL1       -0.0355
      9 C           1.9938   -1.6865   -0.4038 C.ar    1  UNL1        0.0772
     10 N           2.7207   -0.6219   -0.0618 N.ar    1  UNL1       -0.2271
     11 C           2.1917    0.5146    0.4514 C.ar    1  UNL1        0.1638
     12 C           3.1381    1.5721    0.7762 C.ar    1  UNL1        0.0373
     13 C           2.7356    2.7316    1.3878 C.ar    1  UNL1       -0.0482
     14 C           3.6480    3.7433    1.7150 C.ar    1  UNL1       -0.0429
     15 C           4.9834    3.5826    1.4216 C.ar    1  UNL1        0.0276
     16 N           5.3565    2.4381    0.8223 N.ar    1  UNL1       -0.2626
     17 C           4.4864    1.4639    0.5057 C.ar    1  UNL1        0.0382
     18 N           0.8851    0.5457    0.6065 N.ar    1  UNL1       -0.2121
     19 C           0.0365   -0.4937    0.2862 C.ar    1  UNL1        0.1312
     20 N          -1.3476   -0.2492    0.3368 N.pl3   1  UNL1       -0.3229
     21 C          -1.8597    0.9941    0.9523 C.3     1  UNL1        0.0528
     22 C          -1.6543    2.1281    0.0477 C.ar    1  UNL1        0.0583
     23 C          -2.6090    2.5072   -0.8906 C.ar    1  UNL1       -0.0388
     24 C          -2.3635    3.5809   -1.7171 C.ar    1  UNL1       -0.0586
     25 C          -1.1885    4.2769   -1.6223 C.ar    1  UNL1       -0.0436
     26 C          -0.2531    3.8930   -0.6917 C.ar    1  UNL1        0.0279
     27 N          -0.5319    2.8421    0.0934 N.ar    1  UNL1       -0.2583
     28 C           0.5950   -1.6292   -0.2176 C.ar    1  UNL1        0.0478
     29 C          -1.9373   -2.9496    1.0888 C.ar    1  UNL1       -0.0540
     30 C          -3.2517   -3.2282    1.4475 C.ar    1  UNL1       -0.0612
     31 H          -5.1628   -3.6649    0.6700 H       1  UNL1        0.0618
     32 H          -4.5303   -3.5832   -1.6520 H       1  UNL1        0.0618
     33 H          -2.1964   -3.0882   -2.2749 H       1  UNL1        0.0624
     34 H          -0.1498   -4.7346   -1.3050 H       1  UNL1        0.0624
     35 H           2.2756   -4.8213   -1.6307 H       1  UNL1        0.0618
     36 H           3.6662   -2.8302   -1.0359 H       1  UNL1        0.0639
     37 H           1.7104    2.8802    1.6360 H       1  UNL1        0.0626
     38 H           3.3305    4.6614    2.1987 H       1  UNL1        0.0633
     39 H           5.7109    4.3622    1.6697 H       1  UNL1        0.0829
     40 H           4.8123    0.5373    0.0165 H       1  UNL1        0.0837
     41 H          -2.0628   -0.7995   -0.0897 H       1  UNL1        0.1479
     42 H          -1.2890    1.1552    1.8989 H       1  UNL1        0.0526
     43 H          -2.9210    0.8286    1.1852 H       1  UNL1        0.0526
     44 H          -3.5438    1.9729   -0.9838 H       1  UNL1        0.0636
     45 H          -3.1118    3.8684   -2.4437 H       1  UNL1        0.0619
     46 H          -1.0170    5.1308   -2.2943 H       1  UNL1        0.0633
     47 H           0.6836    4.4477   -0.6160 H       1  UNL1        0.0829
     48 H          -1.2541   -2.7801    1.9180 H       1  UNL1        0.0624
     49 H          -3.6039   -3.2804    2.4664 H       1  UNL1        0.0618
@<TRIPOS>BOND
     1     1     2   ar
     2     2     3   ar
     3     3     4   ar
     4     4     5    1
     5     5     6   ar
     6     6     7   ar
     7     7     8   ar
     8     8     9   ar
     9     9    10   ar
    10    10    11   ar
    11    11    12    1
    12    12    13   ar
    13    13    14   ar
    14    14    15   ar
    15    15    16   ar
    16    16    17   ar
    17    11    18   ar
    18    18    19   ar
    19    19    20    1
    20    20    21    1
    21    21    22    1
    22    22    23   ar
    23    23    24   ar
    24    24    25   ar
    25    25    26   ar
    26    26    27   ar
    27    19    28   ar
    28     4    29   ar
    29    29    30   ar
    30    30     1   ar
    31    28     5   ar
    32    28     9   ar
    33    17    12   ar
    34    27    22   ar
    35     1    31    1
    36     2    32    1
    37     3    33    1
    38     6    34    1
    39     7    35    1
    40     8    36    1
    41    13    37    1
    42    14    38    1
    43    15    39    1
    44    17    40    1
    45    20    41    1
    46    21    42    1
    47    21    43    1
    48    23    44    1
    49    24    45    1
    50    25    46    1
    51    26    47    1
    52    29    48    1
    53    30    49    1
