
     RDKit          3D

 49 53  0  0  0  0  0  0  0  0999 V2000
   -4.1329   -3.4458    0.4227 C   0  0  0  0  0  0  0  0  0  0  0  0
   -3.7544   -3.3953   -0.9032 C   0  0  0  0  0  0  0  0  0  0  0  0
   -2.4551   -3.1191   -1.2214 C   0  0  0  0  0  0  0  0  0  0  0  0
   -1.5389   -2.8946   -0.2277 C   0  0  0  0  0  0  0  0  0  0  0  0
   -0.1434   -2.7326   -0.5416 C   0  0  0  0  0  0  0  0  0  0  0  0
    0.4733   -3.8934   -1.0587 C   0  0  0  0  0  0  0  0  0  0  0  0
    1.8295   -3.9134   -1.2302 C   0  0  0  0  0  0  0  0  0  0  0  0
    2.6008   -2.8240   -0.9076 C   0  0  0  0  0  0  0  0  0  0  0  0
    1.9938   -1.6865   -0.4038 C   0  0  0  0  0  0  0  0  0  0  0  0
    2.7207   -0.6219   -0.0618 N   0  0  0  0  0  0  0  0  0  0  0  0
    2.1917    0.5146    0.4514 C   0  0  0  0  0  0  0  0  0  0  0  0
    3.1381    1.5721    0.7762 C   0  0  0  0  0  0  0  0  0  0  0  0
    2.7356    2.7316    1.3878 C   0  0  0  0  0  0  0  0  0  0  0  0
    3.6480    3.7433    1.7150 C   0  0  0  0  0  0  0  0  0  0  0  0
    4.9834    3.5826    1.4216 C   0  0  0  0  0  0  0  0  0  0  0  0
    5.3565    2.4381    0.8223 N   0  0  0  0  0  0  0  0  0  0  0  0
    4.4864    1.4639    0.5057 C   0  0  0  0  0  0  0  0  0  0  0  0
    0.8851    0.5457    0.6065 N   0  0  0  0  0  0  0  0  0  0  0  0
    0.0365   -0.4937    0.2862 C   0  0  0  0  0  0  0  0  0  0  0  0
   -1.3476   -0.2492    0.3368 N   0  0  0  0  0  0  0  0  0  0  0  0
   -1.8597    0.9941    0.9523 C   0  0  0  0  0  0  0  0  0  0  0  0
   -1.6543    2.1281    0.0477 C   0  0  0  0  0  0  0  0  0  0  0  0
   -2.6090    2.5072   -0.8906 C   0  0  0  0  0  0  0  0  0  0  0  0
   -2.3635    3.5809   -1.7171 C   0  0  0  0  0  0  0  0  0  0  0  0
   -1.1885    4.2769   -1.6223 C   0  0  0  0  0  0  0  0  0  0  0  0
   -0.2531    3.8930   -0.6917 C   0  0  0  0  0  0  0  0  0  0  0  0
   -0.5319    2.8421    0.0934 N   0  0  0  0  0  0  0  0  0  0  0  0
    0.5950   -1.6292   -0.2176 C   0  0  0  0  0  0  0  0  0  0  0  0
   -1.9373   -2.9496    1.0888 C   0  0  0  0  0  0  0  0  0  0  0  0
   -3.2517   -3.2282    1.4475 C   0  0  0  0  0  0  0  0  0  0  0  0
   -5.1628   -3.6649    0.6700 H   0  0  0  0  0  0  0  0  0  0  0  0
   -4.5303   -3.5832   -1.6520 H   0  0  0  0  0  0  0  0  0  0  0  0
   -2.1964   -3.0882   -2.2749 H   0  0  0  0  0  0  0  0  0  0  0  0
   -0.1498   -4.7346   -1.3050 H   0  0  0  0  0  0  0  0  0  0  0  0
    2.2756   -4.8213   -1.6307 H   0  0  0  0  0  0  0  0  0  0  0  0
    3.6662   -2.8302   -1.0359 H   0  0  0  0  0  0  0  0  0  0  0  0
    1.7104    2.8802    1.6360 H   0  0  0  0  0  0  0  0  0  0  0  0
    3.3305    4.6614    2.1987 H   0  0  0  0  0  0  0  0  0  0  0  0
    5.7109    4.3622    1.6697 H   0  0  0  0  0  0  0  0  0  0  0  0
    4.8123    0.5373    0.0165 H   0  0  0  0  0  0  0  0  0  0  0  0
   -2.0628   -0.7995   -0.0897 H   0  0  0  0  0  0  0  0  0  0  0  0
   -1.2890    1.1552    1.8989 H   0  0  0  0  0  0  0  0  0  0  0  0
   -2.9210    0.8286    1.1852 H   0  0  0  0  0  0  0  0  0  0  0  0
   -3.5438    1.9729   -0.9838 H   0  0  0  0  0  0  0  0  0  0  0  0
   -3.1118    3.8684   -2.4437 H   0  0  0  0  0  0  0  0  0  0  0  0
   -1.0170    5.1308   -2.2943 H   0  0  0  0  0  0  0  0  0  0  0  0
    0.6836    4.4477   -0.6160 H   0  0  0  0  0  0  0  0  0  0  0  0
   -1.2541   -2.7801    1.9180 H   0  0  0  0  0  0  0  0  0  0  0  0
   -3.6039   -3.2804    2.4664 H   0  0  0  0  0  0  0  0  0  0  0  0
  1  2  2  0
  2  3  1  0
  3  4  2  0
  4  5  1  0
  5  6  2  0
  6  7  1  0
  7  8  2  0
  8  9  1  0
  9 10  2  0
 10 11  1  0
 11 12  1  0
 12 13  2  0
 13 14  1  0
 14 15  2  0
 15 16  1  0
 16 17  2  0
 11 18  2  0
 18 19  1  0
 19 20  1  0
 20 21  1  0
 21 22  1  0
 22 23  2  0
 23 24  1  0
 24 25  2  0
 25 26  1  0
 26 27  2  0
 19 28  2  0
  4 29  1  0
 29 30  2  0
 30  1  1  0
 28  5  1  0
 28  9  1  0
 17 12  1  0
 27 22  1  0
  1 31  1  0
  2 32  1  0
  3 33  1  0
  6 34  1  0
  7 35  1  0
  8 36  1  0
 13 37  1  0
 14 38  1  0
 15 39  1  0
 17 40  1  0
 20 41  1  0
 21 42  1  0
 21 43  1  0
 23 44  1  0
 24 45  1  0
 25 46  1  0
 26 47  1  0
 29 48  1  0
 30 49  1  0
M  END
$$$$
