
     RDKit          3D

 48 50  0  0  0  0  0  0  0  0999 V2000
   10.3109    1.4718   -0.1020 C   0  0  0  0  0  0  0  0  0  0  0  0
    9.2374    0.5068    0.0378 N   0  0  0  0  0  0  0  0  0  0  0  0
    7.8929    0.9266   -0.1021 C   0  0  0  0  0  0  0  0  0  0  0  0
    7.6611    2.1334   -0.3457 O   0  0  0  0  0  0  0  0  0  0  0  0
    6.7571    0.0070    0.0262 C   0  0  0  0  0  0  0  0  0  0  0  0
    5.4606    0.4298   -0.1122 C   0  0  0  0  0  0  0  0  0  0  0  0
    4.3454   -0.3951   -0.0012 C   0  0  0  0  0  0  0  0  0  0  0  0
    3.1440    0.1478   -0.1609 O   0  0  0  0  0  0  0  0  0  0  0  0
    1.8633   -0.0881    0.0473 C   0  0  0  0  0  0  0  0  0  0  0  0
    1.3581   -1.0531    0.8727 C   0  0  0  0  0  0  0  0  0  0  0  0
   -0.0024   -1.2453    1.0386 C   0  0  0  0  0  0  0  0  0  0  0  0
   -0.9349   -0.4439    0.3559 C   0  0  0  0  0  0  0  0  0  0  0  0
   -2.2881   -0.7385    0.6080 N   0  0  0  0  0  0  0  0  0  0  0  0
   -3.4186   -0.0863    0.0483 C   0  0  0  0  0  0  0  0  0  0  0  0
   -3.2320    0.8327   -0.7390 O   0  0  0  0  0  0  0  0  0  0  0  0
   -4.7380   -0.4571    0.3651 N   0  0  0  0  0  0  0  0  0  0  0  0
   -5.9195    0.1303   -0.1393 C   0  0  0  0  0  0  0  0  0  0  0  0
   -6.0005    1.1623   -1.0222 C   0  0  0  0  0  0  0  0  0  0  0  0
   -7.2548    1.6399   -1.4334 C   0  0  0  0  0  0  0  0  0  0  0  0
   -8.4266    1.0960   -0.9708 C   0  0  0  0  0  0  0  0  0  0  0  0
  -10.0077    1.6604   -1.4570 Cl  0  0  0  0  0  0  0  0  0  0  0  0
   -8.3648    0.0446   -0.0714 C   0  0  0  0  0  0  0  0  0  0  0  0
   -9.6056   -0.5874    0.4664 C   0  0  0  0  0  0  0  0  0  0  0  0
  -10.3483    0.3895    1.1421 F   0  0  0  0  0  0  0  0  0  0  0  0
   -9.2699   -1.5712    1.3451 F   0  0  0  0  0  0  0  0  0  0  0  0
  -10.3718   -1.1513   -0.5316 F   0  0  0  0  0  0  0  0  0  0  0  0
   -7.1453   -0.3976    0.3095 C   0  0  0  0  0  0  0  0  0  0  0  0
   -0.4448    0.5212   -0.4683 C   0  0  0  0  0  0  0  0  0  0  0  0
    0.9128    0.6912   -0.6157 C   0  0  0  0  0  0  0  0  0  0  0  0
    4.6192   -1.7192    0.2661 C   0  0  0  0  0  0  0  0  0  0  0  0
    5.9355   -2.1222    0.4019 C   0  0  0  0  0  0  0  0  0  0  0  0
    6.9712   -1.3057    0.2896 N   0  0  0  0  0  0  0  0  0  0  0  0
   11.1757    1.2334    0.5495 H   0  0  0  0  0  0  0  0  0  0  0  0
    9.9006    2.4583    0.2089 H   0  0  0  0  0  0  0  0  0  0  0  0
   10.5830    1.5646   -1.1639 H   0  0  0  0  0  0  0  0  0  0  0  0
    9.4334   -0.4942    0.2400 H   0  0  0  0  0  0  0  0  0  0  0  0
    5.2806    1.4827   -0.3238 H   0  0  0  0  0  0  0  0  0  0  0  0
    2.0289   -1.7046    1.4518 H   0  0  0  0  0  0  0  0  0  0  0  0
   -0.3415   -2.0266    1.7058 H   0  0  0  0  0  0  0  0  0  0  0  0
   -2.5332   -1.5275    1.2843 H   0  0  0  0  0  0  0  0  0  0  0  0
   -4.8332   -1.2640    1.0568 H   0  0  0  0  0  0  0  0  0  0  0  0
   -5.1059    1.6192   -1.4109 H   0  0  0  0  0  0  0  0  0  0  0  0
   -7.2895    2.4579   -2.1331 H   0  0  0  0  0  0  0  0  0  0  0  0
   -7.1085   -1.2301    1.0217 H   0  0  0  0  0  0  0  0  0  0  0  0
   -1.1386    1.1540   -1.0067 H   0  0  0  0  0  0  0  0  0  0  0  0
    1.2705    1.4649   -1.2763 H   0  0  0  0  0  0  0  0  0  0  0  0
    3.8550   -2.4602    0.3596 H   0  0  0  0  0  0  0  0  0  0  0  0
    6.1270   -3.1575    0.6106 H   0  0  0  0  0  0  0  0  0  0  0  0
  1  2  1  0
  2  3  1  0
  3  4  2  0
  3  5  1  0
  5  6  2  0
  6  7  1  0
  7  8  1  0
  8  9  1  0
  9 10  2  0
 10 11  1  0
 11 12  2  0
 12 13  1  0
 13 14  1  0
 14 15  2  0
 14 16  1  0
 16 17  1  0
 17 18  2  0
 18 19  1  0
 19 20  2  0
 20 21  1  0
 20 22  1  0
 22 23  1  0
 23 24  1  0
 23 25  1  0
 23 26  1  0
 22 27  2  0
 12 28  1  0
 28 29  2  0
  7 30  2  0
 30 31  1  0
 31 32  2  0
 32  5  1  0
 29  9  1  0
 27 17  1  0
  1 33  1  0
  1 34  1  0
  1 35  1  0
  2 36  1  0
  6 37  1  0
 10 38  1  0
 11 39  1  0
 13 40  1  0
 16 41  1  0
 18 42  1  0
 19 43  1  0
 27 44  1  0
 28 45  1  0
 29 46  1  0
 30 47  1  0
 31 48  1  0
M  END
$$$$
