@<TRIPOS>MOLECULE
*****
 48 50 0 0 0
SMALL
GASTEIGER

@<TRIPOS>ATOM
      1 C          10.3109    1.4718   -0.1020 C.3     1  UNL1        0.0004
      2 N           9.2374    0.5068    0.0378 N.am    1  UNL1       -0.3132
      3 C           7.8929    0.9266   -0.1021 C.2     1  UNL1        0.2623
      4 O           7.6611    2.1334   -0.3457 O.2     1  UNL1       -0.2685
      5 C           6.7571    0.0070    0.0262 C.ar    1  UNL1        0.1288
      6 C           5.4606    0.4298   -0.1122 C.ar    1  UNL1        0.0112
      7 C           4.3454   -0.3951   -0.0012 C.ar    1  UNL1        0.1321
      8 O           3.1440    0.1478   -0.1609 O.3     1  UNL1       -0.4559
      9 C           1.8633   -0.0881    0.0473 C.ar    1  UNL1        0.1286
     10 C           1.3581   -1.0531    0.8727 C.ar    1  UNL1       -0.0176
     11 C          -0.0024   -1.2453    1.0386 C.ar    1  UNL1       -0.0370
     12 C          -0.9349   -0.4439    0.3559 C.ar    1  UNL1        0.0350
     13 N          -2.2881   -0.7385    0.6080 N.am    1  UNL1       -0.2692
     14 C          -3.4186   -0.0863    0.0483 C.2     1  UNL1        0.3081
     15 O          -3.2320    0.8327   -0.7390 O.2     1  UNL1       -0.2522
     16 N          -4.7380   -0.4571    0.3651 N.am    1  UNL1       -0.2692
     17 C          -5.9195    0.1303   -0.1393 C.ar    1  UNL1        0.0354
     18 C          -6.0005    1.1623   -1.0222 C.ar    1  UNL1       -0.0390
     19 C          -7.2548    1.6399   -1.4334 C.ar    1  UNL1       -0.0411
     20 C          -8.4266    1.0960   -0.9708 C.ar    1  UNL1        0.0527
     21 CL        -10.0077    1.6604   -1.4570 Cl      1  UNL1       -0.0830
     22 C          -8.3648    0.0446   -0.0714 C.ar    1  UNL1        0.0748
     23 C          -9.6056   -0.5874    0.4664 C.3     1  UNL1        0.4188
     24 F         -10.3483    0.3895    1.1421 F       1  UNL1       -0.1658
     25 F          -9.2699   -1.5712    1.3451 F       1  UNL1       -0.1658
     26 F         -10.3718   -1.1513   -0.5316 F       1  UNL1       -0.1658
     27 C          -7.1453   -0.3976    0.3095 C.ar    1  UNL1       -0.0274
     28 C          -0.4448    0.5212   -0.4683 C.ar    1  UNL1       -0.0370
     29 C           0.9128    0.6912   -0.6157 C.ar    1  UNL1       -0.0176
     30 C           4.6192   -1.7192    0.2661 C.ar    1  UNL1       -0.0012
     31 C           5.9355   -2.1222    0.4019 C.ar    1  UNL1        0.0319
     32 N           6.9712   -1.3057    0.2896 N.ar    1  UNL1       -0.2501
     33 H          11.1757    1.2334    0.5495 H       1  UNL1        0.0426
     34 H           9.9006    2.4583    0.2089 H       1  UNL1        0.0426
     35 H          10.5830    1.5646   -1.1639 H       1  UNL1        0.0426
     36 H           9.4334   -0.4942    0.2400 H       1  UNL1        0.1487
     37 H           5.2806    1.4827   -0.3238 H       1  UNL1        0.0677
     38 H           2.0289   -1.7046    1.4518 H       1  UNL1        0.0655
     39 H          -0.3415   -2.0266    1.7058 H       1  UNL1        0.0637
     40 H          -2.5332   -1.5275    1.2843 H       1  UNL1        0.1564
     41 H          -4.8332   -1.2640    1.0568 H       1  UNL1        0.1564
     42 H          -5.1059    1.6192   -1.4109 H       1  UNL1        0.0636
     43 H          -7.2895    2.4579   -2.1331 H       1  UNL1        0.0633
     44 H          -7.1085   -1.2301    1.0217 H       1  UNL1        0.0642
     45 H          -1.1386    1.1540   -1.0067 H       1  UNL1        0.0637
     46 H           1.2705    1.4649   -1.2763 H       1  UNL1        0.0655
     47 H           3.8550   -2.4602    0.3596 H       1  UNL1        0.0669
     48 H           6.1270   -3.1575    0.6106 H       1  UNL1        0.0831
@<TRIPOS>BOND
     1     1     2    1
     2     2     3   am
     3     3     4    2
     4     3     5    1
     5     5     6   ar
     6     6     7   ar
     7     7     8    1
     8     8     9    1
     9     9    10   ar
    10    10    11   ar
    11    11    12   ar
    12    12    13    1
    13    13    14   am
    14    14    15    2
    15    14    16   am
    16    16    17    1
    17    17    18   ar
    18    18    19   ar
    19    19    20   ar
    20    20    21    1
    21    20    22   ar
    22    22    23    1
    23    23    24    1
    24    23    25    1
    25    23    26    1
    26    22    27   ar
    27    12    28   ar
    28    28    29   ar
    29     7    30   ar
    30    30    31   ar
    31    31    32   ar
    32    32     5   ar
    33    29     9   ar
    34    27    17   ar
    35     1    33    1
    36     1    34    1
    37     1    35    1
    38     2    36    1
    39     6    37    1
    40    10    38    1
    41    11    39    1
    42    13    40    1
    43    16    41    1
    44    18    42    1
    45    19    43    1
    46    27    44    1
    47    28    45    1
    48    29    46    1
    49    30    47    1
    50    31    48    1
