@<TRIPOS>MOLECULE
*****
 34 37 0 0 0
SMALL
GASTEIGER

@<TRIPOS>ATOM
      1 C           2.2902   -0.9415   -0.3973 C.3     1  UNL1        0.1141
      2 C           3.2766   -1.1160    0.7195 C.3     1  UNL1        0.0855
      3 O           4.3870   -0.3151    0.3989 O.3     1  UNL1       -0.3081
      4 P           3.8628    1.2972    0.4163 P.3     1  UNL1        0.3061
      5 O           3.2039    1.5822    1.9542 O.3     1  UNL1       -0.3267
      6 S           5.1209    2.3912    0.0715 S.2     1  UNL1        0.0224
      7 O           2.5950    1.4146   -0.7273 O.3     1  UNL1       -0.3020
      8 C           1.6903    0.4523   -0.3568 C.3     1  UNL1        0.1259
      9 C           0.6026    0.2297   -1.4094 C.3     1  UNL1        0.1293
     10 O           1.2589    0.1197   -2.6303 O.3     1  UNL1       -0.3846
     11 C           0.1232   -1.1315   -0.9489 C.3     1  UNL1        0.1667
     12 O           1.1576   -1.7240   -0.2684 O.3     1  UNL1       -0.3456
     13 N          -1.0296   -0.9118   -0.0953 N.ar    1  UNL1       -0.2855
     14 C          -1.2194   -1.4031    1.1423 C.ar    1  UNL1        0.1004
     15 N          -2.4023   -1.0015    1.6517 N.ar    1  UNL1       -0.2306
     16 C          -2.9589   -0.2346    0.6893 C.ar    1  UNL1        0.1473
     17 C          -4.1579    0.4725    0.5815 C.ar    1  UNL1        0.1472
     18 N          -5.0265    0.3977    1.7245 N.pl3   1  UNL1       -0.3413
     19 N          -4.5103    1.1802   -0.4900 N.ar    1  UNL1       -0.2188
     20 C          -3.6551    1.2132   -1.5307 C.ar    1  UNL1        0.1205
     21 N          -2.4875    0.5506   -1.4796 N.ar    1  UNL1       -0.2159
     22 C          -2.1076   -0.1714   -0.4099 C.ar    1  UNL1        0.1674
     23 H           2.7807   -1.0995   -1.3795 H       1  UNL1        0.0647
     24 H           2.8026   -0.7563    1.6583 H       1  UNL1        0.0591
     25 H           3.5839   -2.1663    0.7934 H       1  UNL1        0.0591
     26 H           3.9748    1.9033    2.5032 H       1  UNL1        0.2195
     27 H           1.2371    0.6228    0.6378 H       1  UNL1        0.0655
     28 H          -0.1542    1.0106   -1.3881 H       1  UNL1        0.0666
     29 H           1.0210   -0.6889   -3.1342 H       1  UNL1        0.2101
     30 H          -0.1433   -1.7972   -1.7956 H       1  UNL1        0.0866
     31 H          -0.5008   -2.0429    1.6563 H       1  UNL1        0.1030
     32 H          -5.2159   -0.3985    2.3498 H       1  UNL1        0.1438
     33 H          -5.5284    1.2943    1.9319 H       1  UNL1        0.1438
     34 H          -3.8714    1.7681   -2.4389 H       1  UNL1        0.1048
@<TRIPOS>BOND
     1     1     2    1
     2     2     3    1
     3     3     4    1
     4     4     5    1
     5     4     6    2
     6     4     7    1
     7     7     8    1
     8     8     9    1
     9     9    10    1
    10     9    11    1
    11    11    12    1
    12    11    13    1
    13    13    14   ar
    14    14    15   ar
    15    15    16   ar
    16    16    17   ar
    17    17    18    1
    18    17    19   ar
    19    19    20   ar
    20    20    21   ar
    21    21    22   ar
    22     8     1    1
    23    22    13   ar
    24    12     1    1
    25    22    16   ar
    26     1    23    1
    27     2    24    1
    28     2    25    1
    29     5    26    1
    30     8    27    1
    31     9    28    1
    32    10    29    1
    33    11    30    1
    34    14    31    1
    35    18    32    1
    36    18    33    1
    37    20    34    1
