@<TRIPOS>MOLECULE
*****
 62 66 0 0 0
SMALL
GASTEIGER

@<TRIPOS>ATOM
      1 C          -4.6552   -5.3854    0.7051 C.3     1  UNL1       -0.0206
      2 C          -3.8383   -4.1469    0.6150 C.ar    1  UNL1        0.0611
      3 C          -2.4940   -4.0484    0.3757 C.ar    1  UNL1       -0.0084
      4 C          -2.1543   -2.6791    0.3783 C.ar    1  UNL1        0.1296
      5 C          -0.7873   -2.2259    0.1520 C.2     1  UNL1        0.2667
      6 O           0.1194   -3.1065   -0.0455 O.2     1  UNL1       -0.2682
      7 N          -0.3333   -0.8970    0.1239 N.am    1  UNL1       -0.2802
      8 C           1.0533   -0.5689   -0.1107 C.ar    1  UNL1        0.0338
      9 C           1.4923   -0.3684   -1.3977 C.ar    1  UNL1       -0.0399
     10 C           2.8155   -0.0529   -1.6419 C.ar    1  UNL1       -0.0522
     11 C           3.7353    0.0711   -0.6126 C.ar    1  UNL1       -0.0159
     12 C           5.1348    0.3637   -0.8548 C.ar    1  UNL1        0.0084
     13 C           5.9620   -0.6100   -1.4411 C.ar    1  UNL1       -0.0522
     14 C           7.3005   -0.3736   -1.6516 C.ar    1  UNL1       -0.0611
     15 C           7.8725    0.8286   -1.2930 C.ar    1  UNL1       -0.0599
     16 C           7.0516    1.7657   -0.7239 C.ar    1  UNL1       -0.0348
     17 C           5.6857    1.5636   -0.4938 C.ar    1  UNL1        0.1127
     18 S           4.7422    2.8306    0.1895 S.O2    1  UNL1        0.0565
     19 N           5.7906    4.2127    0.4592 N.3     1  UNL1       -0.2035
     20 O           3.6926    3.3443   -0.7890 O.2     1  UNL1       -0.1532
     21 O           4.1216    2.5457    1.5017 O.2     1  UNL1       -0.1532
     22 C           3.2788   -0.1335    0.6640 C.ar    1  UNL1       -0.0522
     23 C           1.9430   -0.4531    0.9317 C.ar    1  UNL1       -0.0399
     24 N          -3.2857   -2.0128    0.6149 N.ar    1  UNL1       -0.2255
     25 C          -3.4162   -0.5922    0.7059 C.ar    1  UNL1        0.0930
     26 C          -3.2779    0.0749    1.9171 C.ar    1  UNL1       -0.0266
     27 C          -3.4330    1.4342    1.9758 C.ar    1  UNL1       -0.0158
     28 C          -3.3003    2.1280    3.1732 C.ar    1  UNL1       -0.0540
     29 C          -3.4559    3.4834    3.2261 C.ar    1  UNL1       -0.0612
     30 C          -3.7495    4.1481    2.0550 C.ar    1  UNL1       -0.0612
     31 C          -3.8851    3.4817    0.8598 C.ar    1  UNL1       -0.0540
     32 C          -3.7260    2.1159    0.8192 C.ar    1  UNL1       -0.0159
     33 C          -3.8649    1.4458   -0.3967 C.ar    1  UNL1       -0.0255
     34 C          -3.7127    0.0768   -0.4779 C.ar    1  UNL1        0.1309
     35 S          -3.8811   -0.7858   -1.9828 S.O2    1  UNL1        0.0580
     36 N          -5.1619   -1.9496   -1.8622 N.3     1  UNL1       -0.2034
     37 O          -2.6182   -1.3975   -2.4590 O.2     1  UNL1       -0.1532
     38 O          -4.3223    0.2139   -3.0358 O.2     1  UNL1       -0.1532
     39 N          -4.2728   -2.8926    0.7527 N.ar    1  UNL1       -0.1709
     40 H          -5.1650   -5.4353    1.6849 H       1  UNL1        0.0293
     41 H          -5.4447   -5.4228   -0.0648 H       1  UNL1        0.0293
     42 H          -3.9870   -6.2531    0.5317 H       1  UNL1        0.0293
     43 H          -1.8137   -4.8871    0.2130 H       1  UNL1        0.0659
     44 H          -1.0067   -0.1303    0.2745 H       1  UNL1        0.1552
     45 H           0.7873   -0.4606   -2.2231 H       1  UNL1        0.0636
     46 H           3.1850    0.1096   -2.6464 H       1  UNL1        0.0624
     47 H           5.4861   -1.5391   -1.7105 H       1  UNL1        0.0624
     48 H           7.9018   -1.1460   -2.1042 H       1  UNL1        0.0618
     49 H           8.9271    0.9798   -1.4726 H       1  UNL1        0.0618
     50 H           7.4894    2.7112   -0.4390 H       1  UNL1        0.0637
     51 H           6.3344    4.4346   -0.4023 H       1  UNL1        0.1442
     52 H           6.4085    4.0354    1.2825 H       1  UNL1        0.1442
     53 H           3.9301   -0.0813    1.5323 H       1  UNL1        0.0624
     54 H           1.5926   -0.6115    1.9396 H       1  UNL1        0.0636
     55 H          -3.0472   -0.4804    2.8147 H       1  UNL1        0.0645
     56 H          -3.0732    1.5740    4.0533 H       1  UNL1        0.0624
     57 H          -3.3613    4.0556    4.1318 H       1  UNL1        0.0618
     58 H          -3.8767    5.2322    2.0820 H       1  UNL1        0.0618
     59 H          -4.1156    3.9796   -0.0751 H       1  UNL1        0.0624
     60 H          -4.0952    1.9601   -1.3194 H       1  UNL1        0.0644
     61 H          -5.1529   -2.5592   -2.7110 H       1  UNL1        0.1442
     62 H          -6.0691   -1.5142   -1.6788 H       1  UNL1        0.1442
@<TRIPOS>BOND
     1     1     2    1
     2     2     3   ar
     3     3     4   ar
     4     4     5    1
     5     5     6    2
     6     5     7   am
     7     7     8    1
     8     8     9   ar
     9     9    10   ar
    10    10    11   ar
    11    11    12    1
    12    12    13   ar
    13    13    14   ar
    14    14    15   ar
    15    15    16   ar
    16    16    17   ar
    17    17    18    1
    18    18    19    1
    19    18    20    2
    20    18    21    2
    21    11    22   ar
    22    22    23   ar
    23     4    24   ar
    24    24    25    1
    25    25    26   ar
    26    26    27   ar
    27    27    28   ar
    28    28    29   ar
    29    29    30   ar
    30    30    31   ar
    31    31    32   ar
    32    32    33   ar
    33    33    34   ar
    34    34    35    1
    35    35    36    1
    36    35    37    2
    37    35    38    2
    38    24    39   ar
    39    39     2   ar
    40    23     8   ar
    41    34    25   ar
    42    17    12   ar
    43    32    27   ar
    44     1    40    1
    45     1    41    1
    46     1    42    1
    47     3    43    1
    48     7    44    1
    49     9    45    1
    50    10    46    1
    51    13    47    1
    52    14    48    1
    53    15    49    1
    54    16    50    1
    55    19    51    1
    56    19    52    1
    57    22    53    1
    58    23    54    1
    59    26    55    1
    60    28    56    1
    61    29    57    1
    62    30    58    1
    63    31    59    1
    64    33    60    1
    65    36    61    1
    66    36    62    1
