@<TRIPOS>MOLECULE
*****
 68 72 0 0 0
SMALL
GASTEIGER

@<TRIPOS>ATOM
      1 C           5.2048    5.1586    0.0289 C.3     1  UNL1        0.0788
      2 O           4.5266    3.9251    0.1253 O.3     1  UNL1       -0.4944
      3 C           5.2410    2.7595   -0.0905 C.ar    1  UNL1        0.1316
      4 C           6.5863    2.7721   -0.3945 C.ar    1  UNL1       -0.0192
      5 C           7.2016    1.5662   -0.5897 C.ar    1  UNL1       -0.0576
      6 C           6.5590    0.3533   -0.5005 C.ar    1  UNL1       -0.0500
      7 C           5.2051    0.3949   -0.1920 C.ar    1  UNL1        0.0367
      8 C           4.5159    1.5891    0.0194 C.ar    1  UNL1        0.0748
      9 C           3.0925    1.5463    0.3396 C.2     1  UNL1        0.2016
     10 O           2.5126    2.6429    0.5218 O.2     1  UNL1       -0.2864
     11 C           2.3560    0.2878    0.4480 C.ar    1  UNL1        0.0784
     12 C           1.0099    0.2470    0.7508 C.ar    1  UNL1        0.1345
     13 O           0.3545    1.4535    0.9552 O.3     1  UNL1       -0.5057
     14 C           0.2930   -0.9262    0.8587 C.ar    1  UNL1        0.0302
     15 C           0.9829   -2.1215    0.6471 C.ar    1  UNL1        0.0070
     16 C           0.4192   -3.4984    0.7109 C.3     1  UNL1        0.0123
     17 C          -1.0922   -3.3307    0.5235 C.3     1  UNL1        0.1325
     18 O          -1.3114   -2.7989   -0.7368 O.3     1  UNL1       -0.3806
     19 C          -1.5831   -2.3368    1.5656 C.3     1  UNL1        0.0141
     20 C          -1.1555   -0.9217    1.1869 C.3     1  UNL1        0.0934
     21 O          -1.8600   -0.6175    0.0246 O.3     1  UNL1       -0.3432
     22 C          -2.7594    0.4284    0.1780 C.3     1  UNL1        0.1618
     23 C          -2.3735    1.5088   -0.8102 C.3     1  UNL1        0.0161
     24 C          -3.5348    1.6619   -1.7716 C.3     1  UNL1        0.0382
     25 N          -3.2139    2.6770   -2.7520 N.3     1  UNL1       -0.3249
     26 C          -4.7358    2.0611   -0.9275 C.3     1  UNL1        0.0963
     27 O          -4.3184    3.1388   -0.1455 O.3     1  UNL1       -0.3877
     28 C          -5.0151    0.9045    0.0080 C.3     1  UNL1        0.0861
     29 C          -5.2193    1.4161    1.4140 C.3     1  UNL1       -0.0361
     30 O          -4.0346   -0.0733   -0.0609 O.3     1  UNL1       -0.3457
     31 C          -1.8335   -4.5890    0.6686 C.2     1  UNL1        0.1900
     32 O          -1.8940   -5.3441    1.6211 O.2     1  UNL1       -0.2919
     33 C          -2.6690   -5.1143   -0.4555 C.3     1  UNL1        0.1051
     34 O          -3.2850   -6.3028   -0.1288 O.3     1  UNL1       -0.3874
     35 C           2.3255   -2.0823    0.3450 C.ar    1  UNL1        0.1322
     36 O           3.0994   -3.2264    0.1167 O.3     1  UNL1       -0.5057
     37 C           3.0468   -0.9040    0.2363 C.ar    1  UNL1        0.0782
     38 C           4.4679   -0.8574   -0.0832 C.2     1  UNL1        0.1982
     39 O           5.0705   -1.9407   -0.2699 O.2     1  UNL1       -0.2865
     40 H           4.4564    5.9732   -0.0398 H       1  UNL1        0.0660
     41 H           5.7744    5.1518   -0.9413 H       1  UNL1        0.0660
     42 H           5.9425    5.2904    0.8231 H       1  UNL1        0.0660
     43 H           7.1309    3.6997   -0.4747 H       1  UNL1        0.0654
     44 H           8.2561    1.6071   -0.8265 H       1  UNL1        0.0619
     45 H           7.0559   -0.5843   -0.6564 H       1  UNL1        0.0625
     46 H           0.2328    2.1815    0.2868 H       1  UNL1        0.2922
     47 H           0.7794   -4.1160   -0.1194 H       1  UNL1        0.0347
     48 H           0.6015   -3.9692    1.6979 H       1  UNL1        0.0347
     49 H          -2.2600   -2.7187   -0.9508 H       1  UNL1        0.2108
     50 H          -2.6832   -2.4217    1.6176 H       1  UNL1        0.0326
     51 H          -1.1760   -2.6592    2.5422 H       1  UNL1        0.0326
     52 H          -1.4137   -0.2942    2.0454 H       1  UNL1        0.0649
     53 H          -2.6875    0.7725    1.2304 H       1  UNL1        0.0910
     54 H          -2.2574    2.4500   -0.2136 H       1  UNL1        0.0330
     55 H          -1.4256    1.2712   -1.3347 H       1  UNL1        0.0330
     56 H          -3.7176    0.6810   -2.2166 H       1  UNL1        0.0486
     57 H          -4.1425    2.9929   -3.1519 H       1  UNL1        0.1186
     58 H          -2.7496    2.1709   -3.5400 H       1  UNL1        0.1186
     59 H          -5.6175    2.3231   -1.5427 H       1  UNL1        0.0635
     60 H          -4.7435    3.9774   -0.4521 H       1  UNL1        0.2100
     61 H          -5.9651    0.4370   -0.3215 H       1  UNL1        0.0620
     62 H          -5.0703    0.6015    2.1378 H       1  UNL1        0.0255
     63 H          -4.6121    2.3281    1.6388 H       1  UNL1        0.0255
     64 H          -6.2735    1.7481    1.4943 H       1  UNL1        0.0255
     65 H          -3.4494   -4.3569   -0.7002 H       1  UNL1        0.0637
     66 H          -2.0640   -5.2510   -1.3785 H       1  UNL1        0.0637
     67 H          -3.2951   -6.9194   -0.9220 H       1  UNL1        0.2100
     68 H           3.1908   -3.8734    0.8834 H       1  UNL1        0.2922
@<TRIPOS>BOND
     1     1     2    1
     2     2     3    1
     3     3     4   ar
     4     4     5   ar
     5     5     6   ar
     6     6     7   ar
     7     7     8   ar
     8     8     9    1
     9     9    10    2
    10     9    11    1
    11    11    12   ar
    12    12    13    1
    13    12    14   ar
    14    14    15   ar
    15    15    16    1
    16    16    17    1
    17    17    18    1
    18    17    19    1
    19    19    20    1
    20    20    21    1
    21    21    22    1
    22    22    23    1
    23    23    24    1
    24    24    25    1
    25    24    26    1
    26    26    27    1
    27    26    28    1
    28    28    29    1
    29    28    30    1
    30    17    31    1
    31    31    32    2
    32    31    33    1
    33    33    34    1
    34    15    35   ar
    35    35    36    1
    36    35    37   ar
    37    37    38    1
    38    38    39    2
    39     8     3   ar
    40    37    11   ar
    41    38     7    1
    42    20    14    1
    43    30    22    1
    44     1    40    1
    45     1    41    1
    46     1    42    1
    47     4    43    1
    48     5    44    1
    49     6    45    1
    50    13    46    1
    51    16    47    1
    52    16    48    1
    53    18    49    1
    54    19    50    1
    55    19    51    1
    56    20    52    1
    57    22    53    1
    58    23    54    1
    59    23    55    1
    60    24    56    1
    61    25    57    1
    62    25    58    1
    63    26    59    1
    64    27    60    1
    65    28    61    1
    66    29    62    1
    67    29    63    1
    68    29    64    1
    69    33    65    1
    70    33    66    1
    71    34    67    1
    72    36    68    1
