
     RDKit          3D

 68 72  0  0  0  0  0  0  0  0999 V2000
    5.2048    5.1586    0.0289 C   0  0  0  0  0  0  0  0  0  0  0  0
    4.5266    3.9251    0.1253 O   0  0  0  0  0  0  0  0  0  0  0  0
    5.2410    2.7595   -0.0905 C   0  0  0  0  0  0  0  0  0  0  0  0
    6.5863    2.7721   -0.3945 C   0  0  0  0  0  0  0  0  0  0  0  0
    7.2016    1.5662   -0.5897 C   0  0  0  0  0  0  0  0  0  0  0  0
    6.5590    0.3533   -0.5005 C   0  0  0  0  0  0  0  0  0  0  0  0
    5.2051    0.3949   -0.1920 C   0  0  0  0  0  0  0  0  0  0  0  0
    4.5159    1.5891    0.0194 C   0  0  0  0  0  0  0  0  0  0  0  0
    3.0925    1.5463    0.3396 C   0  0  0  0  0  0  0  0  0  0  0  0
    2.5126    2.6429    0.5218 O   0  0  0  0  0  0  0  0  0  0  0  0
    2.3560    0.2878    0.4480 C   0  0  0  0  0  0  0  0  0  0  0  0
    1.0099    0.2470    0.7508 C   0  0  0  0  0  0  0  0  0  0  0  0
    0.3545    1.4535    0.9552 O   0  0  0  0  0  0  0  0  0  0  0  0
    0.2930   -0.9262    0.8587 C   0  0  0  0  0  0  0  0  0  0  0  0
    0.9829   -2.1215    0.6471 C   0  0  0  0  0  0  0  0  0  0  0  0
    0.4192   -3.4984    0.7109 C   0  0  0  0  0  0  0  0  0  0  0  0
   -1.0922   -3.3307    0.5235 C   0  0  2  0  0  0  0  0  0  0  0  0
   -1.3114   -2.7989   -0.7368 O   0  0  0  0  0  0  0  0  0  0  0  0
   -1.5831   -2.3368    1.5656 C   0  0  0  0  0  0  0  0  0  0  0  0
   -1.1555   -0.9217    1.1869 C   0  0  2  0  0  0  0  0  0  0  0  0
   -1.8600   -0.6175    0.0246 O   0  0  0  0  0  0  0  0  0  0  0  0
   -2.7594    0.4284    0.1780 C   0  0  1  0  0  0  0  0  0  0  0  0
   -2.3735    1.5088   -0.8102 C   0  0  0  0  0  0  0  0  0  0  0  0
   -3.5348    1.6619   -1.7716 C   0  0  2  0  0  0  0  0  0  0  0  0
   -3.2139    2.6770   -2.7520 N   0  0  0  0  0  0  0  0  0  0  0  0
   -4.7358    2.0611   -0.9275 C   0  0  2  0  0  0  0  0  0  0  0  0
   -4.3184    3.1388   -0.1455 O   0  0  0  0  0  0  0  0  0  0  0  0
   -5.0151    0.9045    0.0080 C   0  0  2  0  0  0  0  0  0  0  0  0
   -5.2193    1.4161    1.4140 C   0  0  0  0  0  0  0  0  0  0  0  0
   -4.0346   -0.0733   -0.0609 O   0  0  0  0  0  0  0  0  0  0  0  0
   -1.8335   -4.5890    0.6686 C   0  0  0  0  0  0  0  0  0  0  0  0
   -1.8940   -5.3441    1.6211 O   0  0  0  0  0  0  0  0  0  0  0  0
   -2.6690   -5.1143   -0.4555 C   0  0  0  0  0  0  0  0  0  0  0  0
   -3.2850   -6.3028   -0.1288 O   0  0  0  0  0  0  0  0  0  0  0  0
    2.3255   -2.0823    0.3450 C   0  0  0  0  0  0  0  0  0  0  0  0
    3.0994   -3.2264    0.1167 O   0  0  0  0  0  0  0  0  0  0  0  0
    3.0468   -0.9040    0.2363 C   0  0  0  0  0  0  0  0  0  0  0  0
    4.4679   -0.8574   -0.0832 C   0  0  0  0  0  0  0  0  0  0  0  0
    5.0705   -1.9407   -0.2699 O   0  0  0  0  0  0  0  0  0  0  0  0
    4.4564    5.9732   -0.0398 H   0  0  0  0  0  0  0  0  0  0  0  0
    5.7744    5.1518   -0.9413 H   0  0  0  0  0  0  0  0  0  0  0  0
    5.9425    5.2904    0.8231 H   0  0  0  0  0  0  0  0  0  0  0  0
    7.1309    3.6997   -0.4747 H   0  0  0  0  0  0  0  0  0  0  0  0
    8.2561    1.6071   -0.8265 H   0  0  0  0  0  0  0  0  0  0  0  0
    7.0559   -0.5843   -0.6564 H   0  0  0  0  0  0  0  0  0  0  0  0
    0.2328    2.1815    0.2868 H   0  0  0  0  0  0  0  0  0  0  0  0
    0.7794   -4.1160   -0.1194 H   0  0  0  0  0  0  0  0  0  0  0  0
    0.6015   -3.9692    1.6979 H   0  0  0  0  0  0  0  0  0  0  0  0
   -2.2600   -2.7187   -0.9508 H   0  0  0  0  0  0  0  0  0  0  0  0
   -2.6832   -2.4217    1.6176 H   0  0  0  0  0  0  0  0  0  0  0  0
   -1.1760   -2.6592    2.5422 H   0  0  0  0  0  0  0  0  0  0  0  0
   -1.4137   -0.2942    2.0454 H   0  0  0  0  0  0  0  0  0  0  0  0
   -2.6875    0.7725    1.2304 H   0  0  0  0  0  0  0  0  0  0  0  0
   -2.2574    2.4500   -0.2136 H   0  0  0  0  0  0  0  0  0  0  0  0
   -1.4256    1.2712   -1.3347 H   0  0  0  0  0  0  0  0  0  0  0  0
   -3.7176    0.6810   -2.2166 H   0  0  0  0  0  0  0  0  0  0  0  0
   -4.1425    2.9929   -3.1519 H   0  0  0  0  0  0  0  0  0  0  0  0
   -2.7496    2.1709   -3.5400 H   0  0  0  0  0  0  0  0  0  0  0  0
   -5.6175    2.3231   -1.5427 H   0  0  0  0  0  0  0  0  0  0  0  0
   -4.7435    3.9774   -0.4521 H   0  0  0  0  0  0  0  0  0  0  0  0
   -5.9651    0.4370   -0.3215 H   0  0  0  0  0  0  0  0  0  0  0  0
   -5.0703    0.6015    2.1378 H   0  0  0  0  0  0  0  0  0  0  0  0
   -4.6121    2.3281    1.6388 H   0  0  0  0  0  0  0  0  0  0  0  0
   -6.2735    1.7481    1.4943 H   0  0  0  0  0  0  0  0  0  0  0  0
   -3.4494   -4.3569   -0.7002 H   0  0  0  0  0  0  0  0  0  0  0  0
   -2.0640   -5.2510   -1.3785 H   0  0  0  0  0  0  0  0  0  0  0  0
   -3.2951   -6.9194   -0.9220 H   0  0  0  0  0  0  0  0  0  0  0  0
    3.1908   -3.8734    0.8834 H   0  0  0  0  0  0  0  0  0  0  0  0
  1  2  1  0
  2  3  1  0
  3  4  2  0
  4  5  1  0
  5  6  2  0
  6  7  1  0
  7  8  2  0
  8  9  1  0
  9 10  2  0
  9 11  1  0
 11 12  2  0
 12 13  1  0
 12 14  1  0
 14 15  2  0
 15 16  1  0
 16 17  1  0
 17 18  1  6
 17 19  1  0
 19 20  1  0
 20 21  1  0
 21 22  1  0
 22 23  1  0
 23 24  1  0
 24 25  1  0
 24 26  1  0
 26 27  1  0
 26 28  1  0
 28 29  1  0
 28 30  1  0
 17 31  1  0
 31 32  2  0
 31 33  1  0
 33 34  1  0
 15 35  1  0
 35 36  1  0
 35 37  2  0
 37 38  1  0
 38 39  2  0
  8  3  1  0
 37 11  1  0
 38  7  1  0
 20 14  1  0
 30 22  1  0
  1 40  1  0
  1 41  1  0
  1 42  1  0
  4 43  1  0
  5 44  1  0
  6 45  1  0
 13 46  1  0
 16 47  1  0
 16 48  1  0
 18 49  1  0
 19 50  1  0
 19 51  1  0
 20 52  1  1
 22 53  1  1
 23 54  1  0
 23 55  1  0
 24 56  1  6
 25 57  1  0
 25 58  1  0
 26 59  1  6
 27 60  1  0
 28 61  1  6
 29 62  1  0
 29 63  1  0
 29 64  1  0
 33 65  1  0
 33 66  1  0
 34 67  1  0
 36 68  1  0
M  END
$$$$
