
     RDKit          3D

 35 36  0  0  0  0  0  0  0  0999 V2000
   -6.9322    0.9639    0.3205 C   0  0  0  0  0  0  0  0  0  0  0  0
   -6.1261    0.2626   -0.5993 O   0  0  0  0  0  0  0  0  0  0  0  0
   -4.7475    0.1917   -0.4706 C   0  0  0  0  0  0  0  0  0  0  0  0
   -4.0897    0.8066    0.5693 C   0  0  0  0  0  0  0  0  0  0  0  0
   -2.6973    0.7280    0.6885 C   0  0  0  0  0  0  0  0  0  0  0  0
   -1.9471    0.0323   -0.2328 C   0  0  0  0  0  0  0  0  0  0  0  0
   -0.4812   -0.0727   -0.1415 C   0  0  0  0  0  0  0  0  0  0  0  0
    0.2910   -0.1773   -1.2964 C   0  0  0  0  0  0  0  0  0  0  0  0
    1.6510   -0.2740   -1.1959 C   0  0  0  0  0  0  0  0  0  0  0  0
    2.3264   -0.2743    0.0208 C   0  0  0  0  0  0  0  0  0  0  0  0
    3.7749   -0.3809    0.0333 C   0  0  0  0  0  0  0  0  0  0  0  0
    4.5267   -0.3928    1.1084 C   0  0  0  0  0  0  0  0  0  0  0  0
    5.9771   -0.4994    1.1229 C   0  0  0  0  0  0  0  0  0  0  0  0
    6.5414   -0.4945    2.2703 O   0  0  0  0  0  0  0  0  0  0  0  0
    6.7917   -0.6068   -0.0366 N   0  0  0  0  0  0  0  0  0  0  0  0
    8.1425   -0.7021    0.0732 O   0  0  0  0  0  0  0  0  0  0  0  0
    1.5631   -0.1720    1.1373 C   0  0  0  0  0  0  0  0  0  0  0  0
    0.1801   -0.0728    1.0557 C   0  0  0  0  0  0  0  0  0  0  0  0
   -2.6090   -0.5871   -1.2803 C   0  0  0  0  0  0  0  0  0  0  0  0
   -3.9807   -0.4964   -1.3777 C   0  0  0  0  0  0  0  0  0  0  0  0
   -7.9138    1.2536   -0.1575 H   0  0  0  0  0  0  0  0  0  0  0  0
   -6.4598    1.9366    0.5834 H   0  0  0  0  0  0  0  0  0  0  0  0
   -7.0834    0.4089    1.2683 H   0  0  0  0  0  0  0  0  0  0  0  0
   -4.6466    1.3694    1.3237 H   0  0  0  0  0  0  0  0  0  0  0  0
   -2.2222    1.2219    1.5143 H   0  0  0  0  0  0  0  0  0  0  0  0
   -0.1990   -0.1801   -2.2552 H   0  0  0  0  0  0  0  0  0  0  0  0
    2.2359   -0.3544   -2.1001 H   0  0  0  0  0  0  0  0  0  0  0  0
    4.3015   -0.4586   -0.9184 H   0  0  0  0  0  0  0  0  0  0  0  0
    3.9967   -0.3152    2.0532 H   0  0  0  0  0  0  0  0  0  0  0  0
    6.3071   -0.6083   -0.9585 H   0  0  0  0  0  0  0  0  0  0  0  0
    8.5336    0.2202    0.0146 H   0  0  0  0  0  0  0  0  0  0  0  0
    1.9858   -0.1636    2.1089 H   0  0  0  0  0  0  0  0  0  0  0  0
   -0.4258    0.0091    1.9604 H   0  0  0  0  0  0  0  0  0  0  0  0
   -2.0393   -1.1439   -2.0231 H   0  0  0  0  0  0  0  0  0  0  0  0
   -4.5260   -0.9775   -2.1966 H   0  0  0  0  0  0  0  0  0  0  0  0
  1  2  1  0
  2  3  1  0
  3  4  2  0
  4  5  1  0
  5  6  2  0
  6  7  1  0
  7  8  2  0
  8  9  1  0
  9 10  2  0
 10 11  1  0
 11 12  2  0
 12 13  1  0
 13 14  2  0
 13 15  1  0
 15 16  1  0
 10 17  1  0
 17 18  2  0
  6 19  1  0
 19 20  2  0
 20  3  1  0
 18  7  1  0
  1 21  1  0
  1 22  1  0
  1 23  1  0
  4 24  1  0
  5 25  1  0
  8 26  1  0
  9 27  1  0
 11 28  1  0
 12 29  1  0
 15 30  1  0
 16 31  1  0
 17 32  1  0
 18 33  1  0
 19 34  1  0
 20 35  1  0
M  END
$$$$
