@<TRIPOS>MOLECULE
*****
 35 36 0 0 0
SMALL
GASTEIGER

@<TRIPOS>ATOM
      1 C          -6.9322    0.9639    0.3205 C.3     1  UNL1        0.0788
      2 O          -6.1261    0.2626   -0.5993 O.3     1  UNL1       -0.4951
      3 C          -4.7475    0.1917   -0.4706 C.ar    1  UNL1        0.1201
      4 C          -4.0897    0.8066    0.5693 C.ar    1  UNL1       -0.0194
      5 C          -2.6973    0.7280    0.6885 C.ar    1  UNL1       -0.0506
      6 C          -1.9471    0.0323   -0.2328 C.ar    1  UNL1       -0.0177
      7 C          -0.4812   -0.0727   -0.1415 C.ar    1  UNL1       -0.0178
      8 C           0.2910   -0.1773   -1.2964 C.ar    1  UNL1       -0.0535
      9 C           1.6510   -0.2740   -1.1959 C.ar    1  UNL1       -0.0540
     10 C           2.3264   -0.2743    0.0208 C.ar    1  UNL1       -0.0248
     11 C           3.7749   -0.3809    0.0333 C.2     1  UNL1       -0.0496
     12 C           4.5267   -0.3928    1.1084 C.2     1  UNL1        0.0027
     13 C           5.9771   -0.4994    1.1229 C.2     1  UNL1        0.2593
     14 O           6.5414   -0.4945    2.2703 O.2     1  UNL1       -0.2687
     15 N           6.7917   -0.6068   -0.0366 N.am    1  UNL1       -0.1940
     16 O           8.1425   -0.7021    0.0732 O.3     1  UNL1       -0.2949
     17 C           1.5631   -0.1720    1.1373 C.ar    1  UNL1       -0.0540
     18 C           0.1801   -0.0728    1.0557 C.ar    1  UNL1       -0.0535
     19 C          -2.6090   -0.5871   -1.2803 C.ar    1  UNL1       -0.0506
     20 C          -3.9807   -0.4964   -1.3777 C.ar    1  UNL1       -0.0194
     21 H          -7.9138    1.2536   -0.1575 H       1  UNL1        0.0660
     22 H          -6.4598    1.9366    0.5834 H       1  UNL1        0.0660
     23 H          -7.0834    0.4089    1.2683 H       1  UNL1        0.0660
     24 H          -4.6466    1.3694    1.3237 H       1  UNL1        0.0654
     25 H          -2.2222    1.2219    1.5143 H       1  UNL1        0.0625
     26 H          -0.1990   -0.1801   -2.2552 H       1  UNL1        0.0624
     27 H           2.2359   -0.3544   -2.1001 H       1  UNL1        0.0624
     28 H           4.3015   -0.4586   -0.9184 H       1  UNL1        0.0625
     29 H           3.9967   -0.3152    2.0532 H       1  UNL1        0.0670
     30 H           6.3071   -0.6083   -0.9585 H       1  UNL1        0.1825
     31 H           8.5336    0.2202    0.0146 H       1  UNL1        0.2414
     32 H           1.9858   -0.1636    2.1089 H       1  UNL1        0.0624
     33 H          -0.4258    0.0091    1.9604 H       1  UNL1        0.0624
     34 H          -2.0393   -1.1439   -2.0231 H       1  UNL1        0.0625
     35 H          -4.5260   -0.9775   -2.1966 H       1  UNL1        0.0654
@<TRIPOS>BOND
     1     1     2    1
     2     2     3    1
     3     3     4   ar
     4     4     5   ar
     5     5     6   ar
     6     6     7    1
     7     7     8   ar
     8     8     9   ar
     9     9    10   ar
    10    10    11    1
    11    11    12    2
    12    12    13    1
    13    13    14    2
    14    13    15   am
    15    15    16    1
    16    10    17   ar
    17    17    18   ar
    18     6    19   ar
    19    19    20   ar
    20    20     3   ar
    21    18     7   ar
    22     1    21    1
    23     1    22    1
    24     1    23    1
    25     4    24    1
    26     5    25    1
    27     8    26    1
    28     9    27    1
    29    11    28    1
    30    12    29    1
    31    15    30    1
    32    16    31    1
    33    17    32    1
    34    18    33    1
    35    19    34    1
    36    20    35    1
