@<TRIPOS>MOLECULE
*****
 129 134 0 0 0
SMALL
GASTEIGER

@<TRIPOS>ATOM
      1 C          -2.0313    1.8171    2.8130 C.3     1  UNL1       -0.0370
      2 C          -2.2570    0.9697    1.5636 C.3     1  UNL1        0.0768
      3 O          -3.5472    0.5378    1.5025 O.3     1  UNL1       -0.3441
      4 C          -4.4453    1.2975    0.7742 C.3     1  UNL1        0.1882
      5 O          -4.8039    0.4796   -0.2954 O.3     1  UNL1       -0.3401
      6 C          -6.1428    0.1406   -0.3460 C.3     1  UNL1        0.1184
      7 C          -6.3456   -1.3680   -0.2424 C.3     1  UNL1        0.1134
      8 C          -5.6046   -1.9705    0.9101 C.3     1  UNL1        0.0730
      9 O          -5.8933   -3.3539    0.8702 O.3     1  UNL1       -0.3924
     10 O          -7.6956   -1.6049   -0.0921 O.3     1  UNL1       -0.3405
     11 C          -8.5233   -0.6853   -0.7340 C.3     1  UNL1        0.1884
     12 O          -9.7718   -1.3063   -0.9377 O.3     1  UNL1       -0.3401
     13 C         -10.7239   -0.5891   -0.2668 C.3     1  UNL1        0.1184
     14 C         -11.4538   -1.4163    0.7770 C.3     1  UNL1        0.1134
     15 C         -10.4074   -2.1637    1.5728 C.3     1  UNL1        0.0730
     16 O         -10.9740   -2.8600    2.6402 O.3     1  UNL1       -0.3924
     17 O         -12.0844   -0.5200    1.6200 O.3     1  UNL1       -0.3407
     18 C         -13.1192    0.1639    0.9847 C.3     1  UNL1        0.1854
     19 O         -14.1592   -0.6583    0.6238 O.3     1  UNL1       -0.3649
     20 C         -12.6430    0.8869   -0.2575 C.3     1  UNL1        0.1339
     21 O         -13.7256    1.4124   -0.9248 O.3     1  UNL1       -0.3841
     22 C         -11.8276   -0.0337   -1.1711 C.3     1  UNL1        0.1144
     23 O         -11.3373    0.7217   -2.2061 O.3     1  UNL1       -0.3864
     24 C          -7.9442   -0.1941   -2.0386 C.3     1  UNL1        0.1341
     25 O          -7.8411   -1.2074   -2.9918 O.3     1  UNL1       -0.3841
     26 C          -6.6334    0.4839   -1.7398 C.3     1  UNL1        0.1144
     27 O          -6.6369    1.8246   -2.0278 O.3     1  UNL1       -0.3864
     28 C          -3.8354    2.6097    0.3312 C.3     1  UNL1        0.1332
     29 O          -4.7383    3.4530   -0.2365 O.3     1  UNL1       -0.3841
     30 C          -2.6911    2.1986   -0.6049 C.3     1  UNL1        0.1035
     31 O          -2.2137    3.3083   -1.2729 O.3     1  UNL1       -0.3874
     32 C          -1.6733    1.5806    0.3367 C.3     1  UNL1        0.0631
     33 N          -0.7919    0.7730   -0.4255 N.3     1  UNL1       -0.3002
     34 C           0.4022    0.4120    0.2489 C.3     1  UNL1        0.0555
     35 C           1.1509   -0.5230   -0.6843 C.2     1  UNL1       -0.0608
     36 C           2.4759   -0.7274   -0.5102 C.2     1  UNL1       -0.0158
     37 C           3.0921   -1.6627   -1.4870 C.3     1  UNL1        0.0678
     38 O           4.0876   -0.9765   -2.1855 O.3     1  UNL1       -0.3906
     39 C           3.2754   -0.1032    0.5504 C.3     1  UNL1        0.1132
     40 O           4.5025    0.4013    0.1411 O.3     1  UNL1       -0.3384
     41 C           5.5696   -0.1444    0.8524 C.3     1  UNL1        0.1887
     42 O           6.2747   -0.9442   -0.0290 O.3     1  UNL1       -0.3405
     43 C           7.2778   -0.3051   -0.7092 C.3     1  UNL1        0.1134
     44 C           7.7110   -0.9958   -1.9558 C.3     1  UNL1        0.0730
     45 O           8.2034   -2.2731   -1.7591 O.3     1  UNL1       -0.3924
     46 C           8.3962   -0.0864    0.2899 C.3     1  UNL1        0.1184
     47 O           9.4817    0.5606   -0.2799 O.3     1  UNL1       -0.3401
     48 C          10.6285   -0.2473   -0.2344 C.3     1  UNL1        0.1884
     49 O          10.9630   -0.5637   -1.5410 O.3     1  UNL1       -0.3405
     50 C          12.1239   -1.3045   -1.6358 C.3     1  UNL1        0.1130
     51 C          12.1147   -2.5729   -0.8162 C.3     1  UNL1        0.0730
     52 O          13.3553   -3.1836   -1.0370 O.3     1  UNL1       -0.3924
     53 C          13.2661   -0.3918   -1.2613 C.3     1  UNL1        0.1119
     54 O          13.1237    0.7522   -2.0784 O.3     1  UNL1       -0.3865
     55 C          13.0943    0.0662    0.1498 C.3     1  UNL1        0.1141
     56 O          13.5788   -0.8591    1.0786 O.3     1  UNL1       -0.3864
     57 C          11.6995    0.5092    0.4815 C.3     1  UNL1        0.1341
     58 O          11.5065    1.8837    0.3480 O.3     1  UNL1       -0.3841
     59 C           7.8909    0.6455    1.5074 C.3     1  UNL1        0.1144
     60 O           8.2891   -0.0030    2.6743 O.3     1  UNL1       -0.3864
     61 C           6.4177    0.9030    1.4620 C.3     1  UNL1        0.1341
     62 O           6.1925    2.0933    0.7435 O.3     1  UNL1       -0.3841
     63 C           2.5424    1.0162    1.2569 C.3     1  UNL1        0.1128
     64 O           2.1064    0.6459    2.5350 O.3     1  UNL1       -0.3863
     65 C           1.3719    1.5579    0.4680 C.3     1  UNL1        0.1026
     66 O           1.8044    2.0802   -0.7366 O.3     1  UNL1       -0.3873
     67 H          -1.4217    1.3037    3.5825 H       1  UNL1        0.0255
     68 H          -2.9867    2.0636    3.3306 H       1  UNL1        0.0255
     69 H          -1.4396    2.7041    2.5147 H       1  UNL1        0.0255
     70 H          -1.6515    0.0301    1.7571 H       1  UNL1        0.0611
     71 H          -5.3201    1.5421    1.4050 H       1  UNL1        0.0937
     72 H          -6.7300    0.5711    0.4641 H       1  UNL1        0.0651
     73 H          -6.0221   -1.8874   -1.1530 H       1  UNL1        0.0647
     74 H          -4.5134   -1.9148    0.7442 H       1  UNL1        0.0584
     75 H          -5.9445   -1.6163    1.8979 H       1  UNL1        0.0584
     76 H          -6.8074   -3.5485    1.1958 H       1  UNL1        0.2095
     77 H          -8.7190    0.2038   -0.1016 H       1  UNL1        0.0938
     78 H         -10.3340    0.2962    0.2732 H       1  UNL1        0.0651
     79 H         -12.1970   -2.1094    0.3176 H       1  UNL1        0.0647
     80 H          -9.8937   -2.9086    0.8979 H       1  UNL1        0.0584
     81 H          -9.6879   -1.4183    1.9616 H       1  UNL1        0.0584
     82 H         -11.9619   -2.7634    2.5504 H       1  UNL1        0.2095
     83 H         -13.4851    0.9340    1.6931 H       1  UNL1        0.0935
     84 H         -15.0388   -0.2584    0.8466 H       1  UNL1        0.2126
     85 H         -11.9266    1.7149    0.0197 H       1  UNL1        0.0671
     86 H         -13.9515    2.3080   -0.5542 H       1  UNL1        0.2101
     87 H         -12.4680   -0.8364   -1.5815 H       1  UNL1        0.0648
     88 H         -11.8870    0.6000   -3.0323 H       1  UNL1        0.2100
     89 H          -8.6171    0.6022   -2.4274 H       1  UNL1        0.0671
     90 H          -8.6571   -1.1637   -3.5592 H       1  UNL1        0.2101
     91 H          -5.8856   -0.0137   -2.4267 H       1  UNL1        0.0648
     92 H          -5.7323    2.0767   -2.3991 H       1  UNL1        0.2100
     93 H          -3.4160    3.0915    1.2161 H       1  UNL1        0.0671
     94 H          -5.6581    3.3066    0.1036 H       1  UNL1        0.2101
     95 H          -3.1105    1.4271   -1.2896 H       1  UNL1        0.0637
     96 H          -2.9594    3.9716   -1.3966 H       1  UNL1        0.2100
     97 H          -1.0656    2.4681    0.6943 H       1  UNL1        0.0512
     98 H          -1.2412    0.0275   -0.9613 H       1  UNL1        0.1230
     99 H           0.2650   -0.0978    1.2180 H       1  UNL1        0.0531
    100 H           0.6143   -1.0341   -1.5044 H       1  UNL1        0.0589
    101 H           2.3888   -2.0399   -2.2547 H       1  UNL1        0.0605
    102 H           3.4942   -2.5738   -0.9933 H       1  UNL1        0.0605
    103 H           4.1774   -1.3556   -3.1182 H       1  UNL1        0.2098
    104 H           3.4155   -0.8803    1.3641 H       1  UNL1        0.0672
    105 H           5.1358   -0.8581    1.6039 H       1  UNL1        0.0938
    106 H           6.9154    0.7038   -0.9980 H       1  UNL1        0.0647
    107 H           8.4234   -0.4184   -2.5436 H       1  UNL1        0.0584
    108 H           6.7977   -1.0907   -2.6168 H       1  UNL1        0.0584
    109 H           7.5292   -2.9319   -1.4783 H       1  UNL1        0.2095
    110 H           8.7368   -1.0859    0.6260 H       1  UNL1        0.0651
    111 H          10.3664   -1.2076    0.2550 H       1  UNL1        0.0938
    112 H          12.2286   -1.6035   -2.7013 H       1  UNL1        0.0647
    113 H          12.0229   -2.3987    0.2547 H       1  UNL1        0.0584
    114 H          11.2594   -3.1741   -1.1525 H       1  UNL1        0.0584
    115 H          13.6061   -3.6816   -0.2409 H       1  UNL1        0.2095
    116 H          14.2392   -0.8681   -1.3770 H       1  UNL1        0.0647
    117 H          12.1528    1.0162   -2.0254 H       1  UNL1        0.2100
    118 H          13.7622    0.9654    0.2683 H       1  UNL1        0.0648
    119 H          13.1409   -0.6860    1.9486 H       1  UNL1        0.2100
    120 H          11.5625    0.2952    1.5823 H       1  UNL1        0.0671
    121 H          10.5403    2.0396    0.4706 H       1  UNL1        0.2101
    122 H           8.3868    1.6408    1.5138 H       1  UNL1        0.0648
    123 H           7.9478   -0.9166    2.6749 H       1  UNL1        0.2100
    124 H           6.1044    1.0371    2.5354 H       1  UNL1        0.0671
    125 H           7.0260    2.5567    0.5164 H       1  UNL1        0.2101
    126 H           3.2146    1.8870    1.4276 H       1  UNL1        0.0649
    127 H           2.8679    0.2361    3.0233 H       1  UNL1        0.2100
    128 H           0.8931    2.3028    1.1009 H       1  UNL1        0.0639
    129 H           2.0603    3.0312   -0.5587 H       1  UNL1        0.2100
@<TRIPOS>BOND
     1     1     2    1
     2     2     3    1
     3     3     4    1
     4     4     5    1
     5     5     6    1
     6     6     7    1
     7     7     8    1
     8     8     9    1
     9     7    10    1
    10    10    11    1
    11    11    12    1
    12    12    13    1
    13    13    14    1
    14    14    15    1
    15    15    16    1
    16    14    17    1
    17    17    18    1
    18    18    19    1
    19    18    20    1
    20    20    21    1
    21    20    22    1
    22    22    23    1
    23    11    24    1
    24    24    25    1
    25    24    26    1
    26    26    27    1
    27     4    28    1
    28    28    29    1
    29    28    30    1
    30    30    31    1
    31    30    32    1
    32    32    33    1
    33    33    34    1
    34    34    35    1
    35    35    36    2
    36    36    37    1
    37    37    38    1
    38    36    39    1
    39    39    40    1
    40    40    41    1
    41    41    42    1
    42    42    43    1
    43    43    44    1
    44    44    45    1
    45    43    46    1
    46    46    47    1
    47    47    48    1
    48    48    49    1
    49    49    50    1
    50    50    51    1
    51    51    52    1
    52    50    53    1
    53    53    54    1
    54    53    55    1
    55    55    56    1
    56    55    57    1
    57    57    58    1
    58    46    59    1
    59    59    60    1
    60    59    61    1
    61    61    62    1
    62    39    63    1
    63    63    64    1
    64    63    65    1
    65    65    66    1
    66    32     2    1
    67    65    34    1
    68    26     6    1
    69    61    41    1
    70    22    13    1
    71    57    48    1
    72     1    67    1
    73     1    68    1
    74     1    69    1
    75     2    70    1
    76     4    71    1
    77     6    72    1
    78     7    73    1
    79     8    74    1
    80     8    75    1
    81     9    76    1
    82    11    77    1
    83    13    78    1
    84    14    79    1
    85    15    80    1
    86    15    81    1
    87    16    82    1
    88    18    83    1
    89    19    84    1
    90    20    85    1
    91    21    86    1
    92    22    87    1
    93    23    88    1
    94    24    89    1
    95    25    90    1
    96    26    91    1
    97    27    92    1
    98    28    93    1
    99    29    94    1
   100    30    95    1
   101    31    96    1
   102    32    97    1
   103    33    98    1
   104    34    99    1
   105    35   100    1
   106    37   101    1
   107    37   102    1
   108    38   103    1
   109    39   104    1
   110    41   105    1
   111    43   106    1
   112    44   107    1
   113    44   108    1
   114    45   109    1
   115    46   110    1
   116    48   111    1
   117    50   112    1
   118    51   113    1
   119    51   114    1
   120    52   115    1
   121    53   116    1
   122    54   117    1
   123    55   118    1
   124    56   119    1
   125    57   120    1
   126    58   121    1
   127    59   122    1
   128    60   123    1
   129    61   124    1
   130    62   125    1
   131    63   126    1
   132    64   127    1
   133    65   128    1
   134    66   129    1
