@<TRIPOS>MOLECULE
*****
 54 57 0 0 0
SMALL
GASTEIGER

@<TRIPOS>ATOM
      1 C          -0.9539   -2.2445    0.1372 C.3     1  UNL1       -0.0436
      2 C          -2.0639   -1.4298    0.6407 C.3     1  UNL1        0.0543
      3 C          -2.6850   -2.1383    1.8492 C.3     1  UNL1        0.0758
      4 C          -1.6487   -2.3738    2.9131 C.3     1  UNL1       -0.0369
      5 O          -3.8766   -1.6741    2.2567 O.3     1  UNL1       -0.3599
      6 C          -4.0444   -0.3087    2.3674 C.3     1  UNL1        0.1402
      7 C          -5.4444   -0.0570    1.7292 C.3     1  UNL1       -0.0274
      8 C          -4.1803    0.1757    3.7717 C.3     1  UNL1       -0.0274
      9 C          -3.1238    0.4864    1.5831 C.2     1  UNL1        0.2516
     10 O          -3.4090    1.7307    1.4546 O.2     1  UNL1       -0.2721
     11 N          -1.9242   -0.0435    0.9413 N.am    1  UNL1       -0.2626
     12 C          -0.8600    0.8226    0.6724 C.ar    1  UNL1        0.0547
     13 C           0.0758    0.5720   -0.3720 C.ar    1  UNL1       -0.0298
     14 C           1.1069    1.3632   -0.7294 C.ar    1  UNL1        0.0023
     15 C           2.2215    0.9986   -1.6277 C.ar    1  UNL1        0.0740
     16 C           3.5365    1.2684   -1.2242 C.ar    1  UNL1       -0.0219
     17 C           4.4660    0.8538   -2.1042 C.ar    1  UNL1        0.0855
     18 C           5.9599    0.9502   -1.9842 C.3     1  UNL1        0.4195
     19 F           6.5790   -0.2768   -1.9568 F       1  UNL1       -0.1658
     20 F           6.2379    1.4951   -0.6940 F       1  UNL1       -0.1658
     21 F           6.5092    1.8361   -2.8814 F       1  UNL1       -0.1658
     22 C           3.7067    0.2820   -3.1336 C.ar    1  UNL1        0.1171
     23 C           4.0820   -0.3196   -4.2881 C.ar    1  UNL1        0.1442
     24 N           5.4434   -0.4808   -4.6614 N.pl3   1  UNL1       -0.3414
     25 N           3.1553   -0.8112   -5.1200 N.ar    1  UNL1       -0.2173
     26 C           1.8381   -0.7037   -4.7987 C.ar    1  UNL1        0.1388
     27 N           1.4921   -0.0915   -3.6272 N.ar    1  UNL1       -0.1543
     28 N           2.3604    0.3926   -2.8044 N.ar    1  UNL1       -0.2269
     29 C           1.2791    2.5771   -0.0123 C.ar    1  UNL1       -0.0512
     30 C           0.4260    2.8686    0.9914 C.ar    1  UNL1       -0.0419
     31 C          -0.6473    1.9776    1.3422 C.ar    1  UNL1        0.0732
     32 C          -1.1712    2.3079    2.6254 C.1     1  UNL1        0.1010
     33 N          -1.6044    2.5996    3.7415 N.1     1  UNL1       -0.1908
     34 H          -0.9179   -2.3258   -1.0035 H       1  UNL1        0.0248
     35 H          -1.2542   -3.3460    0.3551 H       1  UNL1        0.0248
     36 H           0.0230   -2.1524    0.6055 H       1  UNL1        0.0248
     37 H          -2.8916   -1.5037   -0.1570 H       1  UNL1        0.0527
     38 H          -2.8878   -3.1835    1.4230 H       1  UNL1        0.0612
     39 H          -1.8799   -3.3351    3.4115 H       1  UNL1        0.0255
     40 H          -1.6942   -1.5763    3.6984 H       1  UNL1        0.0255
     41 H          -0.6278   -2.4661    2.4937 H       1  UNL1        0.0255
     42 H          -6.1566   -0.8136    2.0835 H       1  UNL1        0.0262
     43 H          -5.3710   -0.0223    0.6281 H       1  UNL1        0.0262
     44 H          -5.8434    0.9280    2.0469 H       1  UNL1        0.0262
     45 H          -3.5773   -0.3690    4.5248 H       1  UNL1        0.0262
     46 H          -5.2592    0.0689    4.1184 H       1  UNL1        0.0262
     47 H          -3.9030    1.2589    3.8477 H       1  UNL1        0.0262
     48 H          -0.0301   -0.3316   -0.9518 H       1  UNL1        0.0643
     49 H           3.7954    1.7671   -0.2853 H       1  UNL1        0.0645
     50 H           5.8992    0.1806   -5.3079 H       1  UNL1        0.1438
     51 H           6.0274   -1.2799   -4.3028 H       1  UNL1        0.1438
     52 H           1.1023   -1.0961   -5.4718 H       1  UNL1        0.1066
     53 H           2.0905    3.2046   -0.3165 H       1  UNL1        0.0624
     54 H           0.5181    3.7884    1.5623 H       1  UNL1        0.0631
@<TRIPOS>BOND
     1     1     2    1
     2     2     3    1
     3     3     4    1
     4     3     5    1
     5     5     6    1
     6     6     7    1
     7     6     8    1
     8     6     9    1
     9     9    10    2
    10     9    11   am
    11    11    12    1
    12    12    13   ar
    13    13    14   ar
    14    14    15    1
    15    15    16   ar
    16    16    17   ar
    17    17    18    1
    18    18    19    1
    19    18    20    1
    20    18    21    1
    21    17    22   ar
    22    22    23   ar
    23    23    24    1
    24    23    25   ar
    25    25    26   ar
    26    26    27   ar
    27    27    28   ar
    28    14    29   ar
    29    29    30   ar
    30    30    31   ar
    31    31    32    1
    32    32    33    3
    33    11     2    1
    34    31    12   ar
    35    28    15   ar
    36    28    22   ar
    37     1    34    1
    38     1    35    1
    39     1    36    1
    40     2    37    1
    41     3    38    1
    42     4    39    1
    43     4    40    1
    44     4    41    1
    45     7    42    1
    46     7    43    1
    47     7    44    1
    48     8    45    1
    49     8    46    1
    50     8    47    1
    51    13    48    1
    52    16    49    1
    53    24    50    1
    54    24    51    1
    55    26    52    1
    56    29    53    1
    57    30    54    1
