
     RDKit          3D

 54 57  0  0  0  0  0  0  0  0999 V2000
   -0.9539   -2.2445    0.1372 C   0  0  0  0  0  0  0  0  0  0  0  0
   -2.0639   -1.4298    0.6407 C   0  0  1  0  0  0  0  0  0  0  0  0
   -2.6850   -2.1383    1.8492 C   0  0  1  0  0  0  0  0  0  0  0  0
   -1.6487   -2.3738    2.9131 C   0  0  0  0  0  0  0  0  0  0  0  0
   -3.8766   -1.6741    2.2567 O   0  0  0  0  0  0  0  0  0  0  0  0
   -4.0444   -0.3087    2.3674 C   0  0  0  0  0  0  0  0  0  0  0  0
   -5.4444   -0.0570    1.7292 C   0  0  0  0  0  0  0  0  0  0  0  0
   -4.1803    0.1757    3.7717 C   0  0  0  0  0  0  0  0  0  0  0  0
   -3.1238    0.4864    1.5831 C   0  0  0  0  0  0  0  0  0  0  0  0
   -3.4090    1.7307    1.4546 O   0  0  0  0  0  0  0  0  0  0  0  0
   -1.9242   -0.0435    0.9413 N   0  0  0  0  0  0  0  0  0  0  0  0
   -0.8600    0.8226    0.6724 C   0  0  0  0  0  0  0  0  0  0  0  0
    0.0758    0.5720   -0.3720 C   0  0  0  0  0  0  0  0  0  0  0  0
    1.1069    1.3632   -0.7294 C   0  0  0  0  0  0  0  0  0  0  0  0
    2.2215    0.9986   -1.6277 C   0  0  0  0  0  0  0  0  0  0  0  0
    3.5365    1.2684   -1.2242 C   0  0  0  0  0  0  0  0  0  0  0  0
    4.4660    0.8538   -2.1042 C   0  0  0  0  0  0  0  0  0  0  0  0
    5.9599    0.9502   -1.9842 C   0  0  0  0  0  0  0  0  0  0  0  0
    6.5790   -0.2768   -1.9568 F   0  0  0  0  0  0  0  0  0  0  0  0
    6.2379    1.4951   -0.6940 F   0  0  0  0  0  0  0  0  0  0  0  0
    6.5092    1.8361   -2.8814 F   0  0  0  0  0  0  0  0  0  0  0  0
    3.7067    0.2820   -3.1336 C   0  0  0  0  0  0  0  0  0  0  0  0
    4.0820   -0.3196   -4.2881 C   0  0  0  0  0  0  0  0  0  0  0  0
    5.4434   -0.4808   -4.6614 N   0  0  0  0  0  0  0  0  0  0  0  0
    3.1553   -0.8112   -5.1200 N   0  0  0  0  0  0  0  0  0  0  0  0
    1.8381   -0.7037   -4.7987 C   0  0  0  0  0  0  0  0  0  0  0  0
    1.4921   -0.0915   -3.6272 N   0  0  0  0  0  0  0  0  0  0  0  0
    2.3604    0.3926   -2.8044 N   0  0  0  0  0  0  0  0  0  0  0  0
    1.2791    2.5771   -0.0123 C   0  0  0  0  0  0  0  0  0  0  0  0
    0.4260    2.8686    0.9914 C   0  0  0  0  0  0  0  0  0  0  0  0
   -0.6473    1.9776    1.3422 C   0  0  0  0  0  0  0  0  0  0  0  0
   -1.1712    2.3079    2.6254 C   0  0  0  0  0  0  0  0  0  0  0  0
   -1.6044    2.5996    3.7415 N   0  0  0  0  0  0  0  0  0  0  0  0
   -0.9179   -2.3258   -1.0035 H   0  0  0  0  0  0  0  0  0  0  0  0
   -1.2542   -3.3460    0.3551 H   0  0  0  0  0  0  0  0  0  0  0  0
    0.0230   -2.1524    0.6055 H   0  0  0  0  0  0  0  0  0  0  0  0
   -2.8916   -1.5037   -0.1570 H   0  0  0  0  0  0  0  0  0  0  0  0
   -2.8878   -3.1835    1.4230 H   0  0  0  0  0  0  0  0  0  0  0  0
   -1.8799   -3.3351    3.4115 H   0  0  0  0  0  0  0  0  0  0  0  0
   -1.6942   -1.5763    3.6984 H   0  0  0  0  0  0  0  0  0  0  0  0
   -0.6278   -2.4661    2.4937 H   0  0  0  0  0  0  0  0  0  0  0  0
   -6.1566   -0.8136    2.0835 H   0  0  0  0  0  0  0  0  0  0  0  0
   -5.3710   -0.0223    0.6281 H   0  0  0  0  0  0  0  0  0  0  0  0
   -5.8434    0.9280    2.0469 H   0  0  0  0  0  0  0  0  0  0  0  0
   -3.5773   -0.3690    4.5248 H   0  0  0  0  0  0  0  0  0  0  0  0
   -5.2592    0.0689    4.1184 H   0  0  0  0  0  0  0  0  0  0  0  0
   -3.9030    1.2589    3.8477 H   0  0  0  0  0  0  0  0  0  0  0  0
   -0.0301   -0.3316   -0.9518 H   0  0  0  0  0  0  0  0  0  0  0  0
    3.7954    1.7671   -0.2853 H   0  0  0  0  0  0  0  0  0  0  0  0
    5.8992    0.1806   -5.3079 H   0  0  0  0  0  0  0  0  0  0  0  0
    6.0274   -1.2799   -4.3028 H   0  0  0  0  0  0  0  0  0  0  0  0
    1.1023   -1.0961   -5.4718 H   0  0  0  0  0  0  0  0  0  0  0  0
    2.0905    3.2046   -0.3165 H   0  0  0  0  0  0  0  0  0  0  0  0
    0.5181    3.7884    1.5623 H   0  0  0  0  0  0  0  0  0  0  0  0
  1  2  1  0
  2  3  1  0
  3  4  1  0
  3  5  1  0
  5  6  1  0
  6  7  1  0
  6  8  1  0
  6  9  1  0
  9 10  2  0
  9 11  1  0
 11 12  1  0
 12 13  2  0
 13 14  1  0
 14 15  1  0
 15 16  2  0
 16 17  1  0
 17 18  1  0
 18 19  1  0
 18 20  1  0
 18 21  1  0
 17 22  2  0
 22 23  1  0
 23 24  1  0
 23 25  2  0
 25 26  1  0
 26 27  2  0
 27 28  1  0
 14 29  2  0
 29 30  1  0
 30 31  2  0
 31 32  1  0
 32 33  3  0
 11  2  1  0
 31 12  1  0
 28 15  1  0
 28 22  1  0
  1 34  1  0
  1 35  1  0
  1 36  1  0
  2 37  1  6
  3 38  1  6
  4 39  1  0
  4 40  1  0
  4 41  1  0
  7 42  1  0
  7 43  1  0
  7 44  1  0
  8 45  1  0
  8 46  1  0
  8 47  1  0
 13 48  1  0
 16 49  1  0
 24 50  1  0
 24 51  1  0
 26 52  1  0
 29 53  1  0
 30 54  1  0
M  END
$$$$
