
     RDKit          3D

 71 75  0  0  0  0  0  0  0  0999 V2000
   -0.6217    0.3813   -0.9883 C   0  0  2  0  0  0  0  0  0  0  0  0
   -1.9811    0.7433   -1.4644 C   0  0  0  0  0  0  0  0  0  0  0  0
   -3.0748   -0.2209   -1.1832 C   0  0  1  0  0  0  0  0  0  0  0  0
   -2.6871   -1.3360   -0.2951 C   0  0  0  0  0  0  0  0  0  0  0  0
   -3.6365   -2.1114    0.4951 C   0  0  0  0  0  0  0  0  0  0  0  0
   -3.3746   -3.2698    0.9532 O   0  0  0  0  0  0  0  0  0  0  0  0
   -4.9697   -1.5464    0.7899 C   0  0  0  0  0  0  0  0  0  0  0  0
   -5.9423   -2.1841    1.5190 C   0  0  0  0  0  0  0  0  0  0  0  0
   -5.6048   -3.4462    1.9958 O   0  0  0  0  0  0  0  0  0  0  0  0
   -7.1614   -1.5588    1.7320 C   0  0  0  0  0  0  0  0  0  0  0  0
   -7.3612   -0.2966    1.1965 C   0  0  0  0  0  0  0  0  0  0  0  0
   -6.3540    0.3318    0.4572 C   0  0  0  0  0  0  0  0  0  0  0  0
   -5.1296   -0.2940    0.2422 C   0  0  0  0  0  0  0  0  0  0  0  0
   -4.2229    0.5354   -0.5493 C   0  0  2  0  0  0  0  0  0  0  0  0
   -4.9237    1.2491   -1.7093 C   0  0  0  0  0  0  0  0  0  0  0  0
   -3.6315    1.5314    0.2411 O   0  0  0  0  0  0  0  0  0  0  0  0
   -1.4389   -1.7436   -0.1322 C   0  0  0  0  0  0  0  0  0  0  0  0
   -1.0400   -2.8001    0.7048 O   0  0  0  0  0  0  0  0  0  0  0  0
   -0.3138   -1.0670   -0.8702 C   0  0  1  0  0  0  0  0  0  0  0  0
   -0.1820   -1.6347   -2.1220 O   0  0  0  0  0  0  0  0  0  0  0  0
    0.9598   -1.2212   -0.1377 C   0  0  0  0  0  0  0  0  0  0  0  0
    1.2384   -2.4371   -0.1016 O   0  0  0  0  0  0  0  0  0  0  0  0
    1.7788   -0.1399    0.4574 C   0  0  0  0  0  0  0  0  0  0  0  0
    3.1369   -0.5635    0.6877 C   0  0  0  0  0  0  0  0  0  0  0  0
    3.6137   -1.7293    0.4454 O   0  0  0  0  0  0  0  0  0  0  0  0
    4.2137    0.1726    1.2100 N   0  0  0  0  0  0  0  0  0  0  0  0
    5.4225   -0.6422    1.2777 C   0  0  0  0  0  0  0  0  0  0  0  0
    5.7829   -1.1013   -0.0393 N   0  0  0  0  0  0  0  0  0  0  0  0
    6.0107    0.0741   -0.8434 C   0  0  0  0  0  0  0  0  0  0  0  0
    7.1232   -0.3602   -1.7627 C   0  0  0  0  0  0  0  0  0  0  0  0
    8.0047   -1.1739   -0.8562 C   0  0  0  0  0  0  0  0  0  0  0  0
    7.0199   -1.8238    0.0668 C   0  0  0  0  0  0  0  0  0  0  0  0
    1.1305    0.9941    0.6500 C   0  0  0  0  0  0  0  0  0  0  0  0
    1.9513    1.9580    1.2086 O   0  0  0  0  0  0  0  0  0  0  0  0
   -0.3047    1.1463    0.2863 C   0  0  1  0  0  0  0  0  0  0  0  0
   -0.6355    2.5442    0.1255 N   0  0  0  0  0  0  0  0  0  0  0  0
   -0.3864    3.2197    1.3775 C   0  0  0  0  0  0  0  0  0  0  0  0
    0.1531    3.1812   -0.9035 C   0  0  0  0  0  0  0  0  0  0  0  0
    0.1152    0.7958   -1.7393 H   0  0  0  0  0  0  0  0  0  0  0  0
   -2.2454    1.7769   -1.0775 H   0  0  0  0  0  0  0  0  0  0  0  0
   -1.9687    0.9219   -2.5844 H   0  0  0  0  0  0  0  0  0  0  0  0
   -3.4177   -0.7085   -2.1369 H   0  0  0  0  0  0  0  0  0  0  0  0
   -5.6341   -4.2291    1.3545 H   0  0  0  0  0  0  0  0  0  0  0  0
   -7.9043   -2.0926    2.3120 H   0  0  0  0  0  0  0  0  0  0  0  0
   -8.3311    0.1284    1.4015 H   0  0  0  0  0  0  0  0  0  0  0  0
   -6.6877    1.3145    0.1163 H   0  0  0  0  0  0  0  0  0  0  0  0
   -4.1205    1.5700   -2.4295 H   0  0  0  0  0  0  0  0  0  0  0  0
   -5.5360    2.0950   -1.3744 H   0  0  0  0  0  0  0  0  0  0  0  0
   -5.4944    0.4786   -2.2677 H   0  0  0  0  0  0  0  0  0  0  0  0
   -4.2796    1.8897    0.9105 H   0  0  0  0  0  0  0  0  0  0  0  0
   -0.8107   -2.6454    1.6867 H   0  0  0  0  0  0  0  0  0  0  0  0
    0.0369   -0.9449   -2.7914 H   0  0  0  0  0  0  0  0  0  0  0  0
    4.0487    1.1550    1.4731 H   0  0  0  0  0  0  0  0  0  0  0  0
    6.2564   -0.0836    1.7684 H   0  0  0  0  0  0  0  0  0  0  0  0
    5.1918   -1.4805    1.9720 H   0  0  0  0  0  0  0  0  0  0  0  0
    5.0731    0.3023   -1.3796 H   0  0  0  0  0  0  0  0  0  0  0  0
    6.2748    0.9578   -0.2265 H   0  0  0  0  0  0  0  0  0  0  0  0
    7.6590    0.4902   -2.2322 H   0  0  0  0  0  0  0  0  0  0  0  0
    6.6540   -1.0269   -2.5177 H   0  0  0  0  0  0  0  0  0  0  0  0
    8.6513   -0.4759   -0.3058 H   0  0  0  0  0  0  0  0  0  0  0  0
    8.5539   -1.9777   -1.3873 H   0  0  0  0  0  0  0  0  0  0  0  0
    7.4261   -1.8173    1.1171 H   0  0  0  0  0  0  0  0  0  0  0  0
    6.8080   -2.8869   -0.1921 H   0  0  0  0  0  0  0  0  0  0  0  0
    2.0047    2.1093    2.2094 H   0  0  0  0  0  0  0  0  0  0  0  0
   -0.9035    0.7513    1.1249 H   0  0  0  0  0  0  0  0  0  0  0  0
   -1.2314    3.9302    1.5342 H   0  0  0  0  0  0  0  0  0  0  0  0
   -0.3438    2.5031    2.2361 H   0  0  0  0  0  0  0  0  0  0  0  0
    0.5503    3.8087    1.3642 H   0  0  0  0  0  0  0  0  0  0  0  0
   -0.4975    3.2511   -1.8174 H   0  0  0  0  0  0  0  0  0  0  0  0
    0.5057    4.1871   -0.6510 H   0  0  0  0  0  0  0  0  0  0  0  0
    1.0349    2.5916   -1.2202 H   0  0  0  0  0  0  0  0  0  0  0  0
  1  2  1  0
  2  3  1  0
  3  4  1  0
  4  5  1  0
  5  6  2  0
  5  7  1  0
  7  8  2  0
  8  9  1  0
  8 10  1  0
 10 11  2  0
 11 12  1  0
 12 13  2  0
 13 14  1  0
 14 15  1  0
 14 16  1  1
  4 17  2  0
 17 18  1  0
 17 19  1  0
 19 20  1  6
 19 21  1  0
 21 22  2  0
 21 23  1  0
 23 24  1  0
 24 25  2  0
 24 26  1  0
 26 27  1  0
 27 28  1  0
 28 29  1  0
 29 30  1  0
 30 31  1  0
 31 32  1  0
 23 33  2  0
 33 34  1  0
 33 35  1  0
 35 36  1  0
 36 37  1  0
 36 38  1  0
 19  1  1  0
 32 28  1  0
 35  1  1  0
 14  3  1  0
 13  7  1  0
  1 39  1  6
  2 40  1  0
  2 41  1  0
  3 42  1  6
  9 43  1  0
 10 44  1  0
 11 45  1  0
 12 46  1  0
 15 47  1  0
 15 48  1  0
 15 49  1  0
 16 50  1  0
 18 51  1  0
 20 52  1  0
 26 53  1  0
 27 54  1  0
 27 55  1  0
 29 56  1  0
 29 57  1  0
 30 58  1  0
 30 59  1  0
 31 60  1  0
 31 61  1  0
 32 62  1  0
 32 63  1  0
 34 64  1  0
 35 65  1  1
 37 66  1  0
 37 67  1  0
 37 68  1  0
 38 69  1  0
 38 70  1  0
 38 71  1  0
M  END
$$$$
