@<TRIPOS>MOLECULE
*****
 71 75 0 0 0
SMALL
GASTEIGER

@<TRIPOS>ATOM
      1 C          -0.6217    0.3813   -0.9883 C.3     1  UNL1        0.0256
      2 C          -1.9811    0.7433   -1.4644 C.3     1  UNL1       -0.0349
      3 C          -3.0748   -0.2209   -1.1832 C.3     1  UNL1        0.0242
      4 C          -2.6871   -1.3360   -0.2951 C.2     1  UNL1        0.0466
      5 C          -3.6365   -2.1114    0.4951 C.2     1  UNL1        0.1967
      6 O          -3.3746   -3.2698    0.9532 O.2     1  UNL1       -0.2867
      7 C          -4.9697   -1.5464    0.7899 C.ar    1  UNL1        0.0693
      8 C          -5.9423   -2.1841    1.5190 C.ar    1  UNL1        0.1280
      9 O          -5.6048   -3.4462    1.9958 O.3     1  UNL1       -0.5060
     10 C          -7.1614   -1.5588    1.7320 C.ar    1  UNL1       -0.0194
     11 C          -7.3612   -0.2966    1.1965 C.ar    1  UNL1       -0.0579
     12 C          -6.3540    0.3318    0.4572 C.ar    1  UNL1       -0.0549
     13 C          -5.1296   -0.2940    0.2422 C.ar    1  UNL1       -0.0015
     14 C          -4.2229    0.5354   -0.5493 C.3     1  UNL1        0.0959
     15 C          -4.9237    1.2491   -1.7093 C.3     1  UNL1       -0.0313
     16 O          -3.6315    1.5314    0.2411 O.3     1  UNL1       -0.3836
     17 C          -1.4389   -1.7436   -0.1322 C.2     1  UNL1        0.1407
     18 O          -1.0400   -2.8001    0.7048 O.2     1  UNL1       -0.5073
     19 C          -0.3138   -1.0670   -0.8702 C.3     1  UNL1        0.1898
     20 O          -0.1820   -1.6347   -2.1220 O.3     1  UNL1       -0.3732
     21 C           0.9598   -1.2212   -0.1377 C.2     1  UNL1        0.2105
     22 O           1.2384   -2.4371   -0.1016 O.2     1  UNL1       -0.2882
     23 C           1.7788   -0.1399    0.4574 C.2     1  UNL1        0.1210
     24 C           3.1369   -0.5635    0.6877 C.2     1  UNL1        0.2518
     25 O           3.6137   -1.7293    0.4454 O.2     1  UNL1       -0.2699
     26 N           4.2137    0.1726    1.2100 N.am    1  UNL1       -0.2984
     27 C           5.4225   -0.6422    1.2777 C.3     1  UNL1        0.0653
     28 N           5.7829   -1.1013   -0.0393 N.3     1  UNL1       -0.2870
     29 C           6.0107    0.0741   -0.8434 C.3     1  UNL1        0.0003
     30 C           7.1232   -0.3602   -1.7627 C.3     1  UNL1       -0.0390
     31 C           8.0047   -1.1739   -0.8562 C.3     1  UNL1       -0.0390
     32 C           7.0199   -1.8238    0.0668 C.3     1  UNL1        0.0003
     33 C           1.1305    0.9941    0.6500 C.2     1  UNL1        0.1270
     34 O           1.9513    1.9580    1.2086 O.2     1  UNL1       -0.5086
     35 C          -0.3047    1.1463    0.2863 C.3     1  UNL1        0.0746
     36 N          -0.6355    2.5442    0.1255 N.3     1  UNL1       -0.2985
     37 C          -0.3864    3.2197    1.3775 C.3     1  UNL1       -0.0124
     38 C           0.1531    3.1812   -0.9035 C.3     1  UNL1       -0.0124
     39 H           0.1152    0.7958   -1.7393 H       1  UNL1        0.0357
     40 H          -2.2454    1.7769   -1.0775 H       1  UNL1        0.0276
     41 H          -1.9687    0.9219   -2.5844 H       1  UNL1        0.0276
     42 H          -3.4177   -0.7085   -2.1369 H       1  UNL1        0.0382
     43 H          -5.6341   -4.2291    1.3545 H       1  UNL1        0.2922
     44 H          -7.9043   -2.0926    2.3120 H       1  UNL1        0.0654
     45 H          -8.3311    0.1284    1.4015 H       1  UNL1        0.0619
     46 H          -6.6877    1.3145    0.1163 H       1  UNL1        0.0621
     47 H          -4.1205    1.5700   -2.4295 H       1  UNL1        0.0261
     48 H          -5.5360    2.0950   -1.3744 H       1  UNL1        0.0261
     49 H          -5.4944    0.4786   -2.2677 H       1  UNL1        0.0261
     50 H          -4.2796    1.8897    0.9105 H       1  UNL1        0.2106
     51 H          -0.8107   -2.6454    1.6867 H       1  UNL1        0.2918
     52 H           0.0369   -0.9449   -2.7914 H       1  UNL1        0.2113
     53 H           4.0487    1.1550    1.4731 H       1  UNL1        0.1503
     54 H           6.2564   -0.0836    1.7684 H       1  UNL1        0.0632
     55 H           5.1918   -1.4805    1.9720 H       1  UNL1        0.0632
     56 H           5.0731    0.3023   -1.3796 H       1  UNL1        0.0427
     57 H           6.2748    0.9578   -0.2265 H       1  UNL1        0.0427
     58 H           7.6590    0.4902   -2.2322 H       1  UNL1        0.0278
     59 H           6.6540   -1.0269   -2.5177 H       1  UNL1        0.0278
     60 H           8.6513   -0.4759   -0.3058 H       1  UNL1        0.0278
     61 H           8.5539   -1.9777   -1.3873 H       1  UNL1        0.0278
     62 H           7.4261   -1.8173    1.1171 H       1  UNL1        0.0427
     63 H           6.8080   -2.8869   -0.1921 H       1  UNL1        0.0427
     64 H           2.0047    2.1093    2.2094 H       1  UNL1        0.2918
     65 H          -0.9035    0.7513    1.1249 H       1  UNL1        0.0547
     66 H          -1.2314    3.9302    1.5342 H       1  UNL1        0.0391
     67 H          -0.3438    2.5031    2.2361 H       1  UNL1        0.0391
     68 H           0.5503    3.8087    1.3642 H       1  UNL1        0.0391
     69 H          -0.4975    3.2511   -1.8174 H       1  UNL1        0.0391
     70 H           0.5057    4.1871   -0.6510 H       1  UNL1        0.0391
     71 H           1.0349    2.5916   -1.2202 H       1  UNL1        0.0391
@<TRIPOS>BOND
     1     1     2    1
     2     2     3    1
     3     3     4    1
     4     4     5    1
     5     5     6    2
     6     5     7    1
     7     7     8   ar
     8     8     9    1
     9     8    10   ar
    10    10    11   ar
    11    11    12   ar
    12    12    13   ar
    13    13    14    1
    14    14    15    1
    15    14    16    1
    16     4    17    2
    17    17    18    1
    18    17    19    1
    19    19    20    1
    20    19    21    1
    21    21    22    2
    22    21    23    1
    23    23    24    1
    24    24    25    2
    25    24    26   am
    26    26    27    1
    27    27    28    1
    28    28    29    1
    29    29    30    1
    30    30    31    1
    31    31    32    1
    32    23    33    2
    33    33    34    1
    34    33    35    1
    35    35    36    1
    36    36    37    1
    37    36    38    1
    38    19     1    1
    39    32    28    1
    40    35     1    1
    41    14     3    1
    42    13     7   ar
    43     1    39    1
    44     2    40    1
    45     2    41    1
    46     3    42    1
    47     9    43    1
    48    10    44    1
    49    11    45    1
    50    12    46    1
    51    15    47    1
    52    15    48    1
    53    15    49    1
    54    16    50    1
    55    18    51    1
    56    20    52    1
    57    26    53    1
    58    27    54    1
    59    27    55    1
    60    29    56    1
    61    29    57    1
    62    30    58    1
    63    30    59    1
    64    31    60    1
    65    31    61    1
    66    32    62    1
    67    32    63    1
    68    34    64    1
    69    35    65    1
    70    37    66    1
    71    37    67    1
    72    37    68    1
    73    38    69    1
    74    38    70    1
    75    38    71    1
