@<TRIPOS>MOLECULE
*****
 44 45 0 0 0
SMALL
GASTEIGER

@<TRIPOS>ATOM
      1 C           4.5925   -1.6701    0.7214 C.3     1  UNL1       -0.0601
      2 C           4.0625   -0.3154    0.2863 C.3     1  UNL1       -0.0374
      3 C           4.7176    0.0691   -1.0091 C.3     1  UNL1       -0.0601
      4 C           4.4635    0.6811    1.3324 C.3     1  UNL1       -0.0601
      5 C           2.5684   -0.4418    0.1430 C.3     1  UNL1       -0.0427
      6 C           1.9278    0.8586   -0.2904 C.3     1  UNL1       -0.0085
      7 C           0.4460    0.6416   -0.4075 C.ar    1  UNL1        0.0595
      8 C          -0.4814    0.8169    0.5949 C.ar    1  UNL1        0.0280
      9 N          -1.7092    0.5197    0.0920 N.ar    1  UNL1       -0.3241
     10 C          -1.5459    0.1747   -1.1707 C.ar    1  UNL1        0.1417
     11 N          -0.2456    0.2449   -1.4835 N.ar    1  UNL1       -0.2345
     12 C          -2.6824   -0.2261   -2.0689 C.3     1  UNL1        0.1409
     13 O          -3.0763    0.8428   -2.8719 O.3     1  UNL1       -0.3814
     14 C          -3.7922   -0.6762   -1.1398 C.3     1  UNL1        0.1158
     15 O          -4.9311   -1.0555   -1.8423 O.3     1  UNL1       -0.3861
     16 C          -4.0829    0.4798   -0.2142 C.3     1  UNL1        0.1067
     17 O          -5.3388    0.3854    0.3678 O.3     1  UNL1       -0.3870
     18 C          -2.9750    0.5664    0.7926 C.3     1  UNL1        0.0871
     19 C          -3.0514   -0.5368    1.8283 C.3     1  UNL1        0.0675
     20 O          -4.2336   -0.5380    2.5213 O.3     1  UNL1       -0.3929
     21 H           5.6835   -1.6872    0.5167 H       1  UNL1        0.0235
     22 H           4.0497   -2.4780    0.1803 H       1  UNL1        0.0235
     23 H           4.4738   -1.7927    1.8223 H       1  UNL1        0.0235
     24 H           5.8111    0.1305   -0.8359 H       1  UNL1        0.0235
     25 H           4.4507   -0.6272   -1.8364 H       1  UNL1        0.0235
     26 H           4.3889    1.0975   -1.2659 H       1  UNL1        0.0235
     27 H           3.7787    0.6489    2.2011 H       1  UNL1        0.0235
     28 H           5.4689    0.3969    1.7066 H       1  UNL1        0.0235
     29 H           4.4413    1.6859    0.8667 H       1  UNL1        0.0235
     30 H           2.1145   -0.7523    1.0848 H       1  UNL1        0.0274
     31 H           2.3312   -1.2005   -0.6279 H       1  UNL1        0.0274
     32 H           2.1419    1.6975    0.3742 H       1  UNL1        0.0329
     33 H           2.3355    1.0928   -1.2980 H       1  UNL1        0.0329
     34 H          -0.2185    1.1384    1.5942 H       1  UNL1        0.0828
     35 H          -2.4002   -1.1187   -2.6832 H       1  UNL1        0.0702
     36 H          -2.8291    1.6971   -2.4415 H       1  UNL1        0.2105
     37 H          -3.4174   -1.5735   -0.6088 H       1  UNL1        0.0650
     38 H          -4.6905   -1.8644   -2.3736 H       1  UNL1        0.2100
     39 H          -4.0485    1.4358   -0.8068 H       1  UNL1        0.0642
     40 H          -5.7183    1.2839    0.5430 H       1  UNL1        0.2100
     41 H          -3.0457    1.5244    1.3905 H       1  UNL1        0.0577
     42 H          -2.8659   -1.5012    1.3438 H       1  UNL1        0.0579
     43 H          -2.2329   -0.4125    2.5827 H       1  UNL1        0.0579
     44 H          -4.6349    0.3574    2.6559 H       1  UNL1        0.2095
@<TRIPOS>BOND
     1     1     2    1
     2     2     3    1
     3     2     4    1
     4     2     5    1
     5     5     6    1
     6     6     7    1
     7     7     8   ar
     8     8     9   ar
     9     9    10   ar
    10    10    11   ar
    11    10    12    1
    12    12    13    1
    13    12    14    1
    14    14    15    1
    15    14    16    1
    16    16    17    1
    17    16    18    1
    18    18    19    1
    19    19    20    1
    20    11     7   ar
    21    18     9    1
    22     1    21    1
    23     1    22    1
    24     1    23    1
    25     3    24    1
    26     3    25    1
    27     3    26    1
    28     4    27    1
    29     4    28    1
    30     4    29    1
    31     5    30    1
    32     5    31    1
    33     6    32    1
    34     6    33    1
    35     8    34    1
    36    12    35    1
    37    13    36    1
    38    14    37    1
    39    15    38    1
    40    16    39    1
    41    17    40    1
    42    18    41    1
    43    19    42    1
    44    19    43    1
    45    20    44    1
