
     RDKit          3D

 80 85  0  0  0  0  0  0  0  0999 V2000
    4.2797    2.4421   -0.4066 C   0  0  0  0  0  0  0  0  0  0  0  0
    4.0710    1.1786    0.3766 C   0  0  0  0  0  0  0  0  0  0  0  0
    4.9775    0.1962    0.3878 N   0  0  0  0  0  0  0  0  0  0  0  0
    4.8714   -0.9596    1.0542 C   0  0  0  0  0  0  0  0  0  0  0  0
    5.7968   -1.9735    1.0713 O   0  0  0  0  0  0  0  0  0  0  0  0
    6.9962   -2.0816    0.4598 C   0  0  0  0  0  0  0  0  0  0  0  0
    7.5393   -1.1401   -0.3561 C   0  0  0  0  0  0  0  0  0  0  0  0
    8.7750   -1.2840   -0.9684 C   0  0  0  0  0  0  0  0  0  0  0  0
    9.4912   -2.4457   -0.7364 C   0  0  0  0  0  0  0  0  0  0  0  0
   10.7898   -2.6189   -1.3674 C   0  0  0  0  0  0  0  0  0  0  0  0
   11.4478   -3.6601   -1.1688 O   0  0  0  0  0  0  0  0  0  0  0  0
   11.3094   -1.6416   -2.1890 O   0  0  0  0  0  0  0  0  0  0  0  0
    8.9637   -3.4183    0.0874 C   0  0  0  0  0  0  0  0  0  0  0  0
    7.7354   -3.2457    0.6799 C   0  0  0  0  0  0  0  0  0  0  0  0
    3.6759   -1.0933    1.7905 C   0  0  0  0  0  0  0  0  0  0  0  0
    2.7197   -0.1083    1.8056 C   0  0  0  0  0  0  0  0  0  0  0  0
    2.9024    1.0589    1.0904 C   0  0  0  0  0  0  0  0  0  0  0  0
    1.9146    2.1617    1.0693 C   0  0  0  0  0  0  0  0  0  0  0  0
    1.1892    2.1885   -0.1620 N   0  0  0  0  0  0  0  0  0  0  0  0
    0.2265    3.2272   -0.2701 C   0  0  0  0  0  0  0  0  0  0  0  0
   -1.1814    2.8100    0.0508 C   0  0  0  0  0  0  0  0  0  0  0  0
   -1.5965    1.5618   -0.6983 C   0  0  0  0  0  0  0  0  0  0  0  0
   -2.8867    1.1600   -0.1910 N   0  0  0  0  0  0  0  0  0  0  0  0
   -4.0603    1.0427   -0.9910 C   0  0  0  0  0  0  0  0  0  0  0  0
   -4.0924    1.0804   -2.2494 O   0  0  0  0  0  0  0  0  0  0  0  0
   -5.1927    0.8763   -0.1541 N   0  0  0  0  0  0  0  0  0  0  0  0
   -6.5460    0.5318   -0.5245 C   0  0  0  0  0  0  0  0  0  0  0  0
   -7.1523    1.6168   -1.4228 C   0  0  0  0  0  0  0  0  0  0  0  0
   -8.6268    1.2911   -1.5449 C   0  0  0  0  0  0  0  0  0  0  0  0
   -8.7318    0.0714   -2.2136 O   0  0  0  0  0  0  0  0  0  0  0  0
   -8.1832   -0.9796   -1.4652 C   0  0  0  0  0  0  0  0  0  0  0  0
   -6.6786   -0.7603   -1.2611 C   0  0  0  0  0  0  0  0  0  0  0  0
   -4.7449    1.1249    1.1927 C   0  0  0  0  0  0  0  0  0  0  0  0
   -3.2798    0.8063    1.1527 C   0  0  1  0  0  0  0  0  0  0  0  0
   -3.0183   -0.6552    1.3555 C   0  0  0  0  0  0  0  0  0  0  0  0
   -3.3349   -1.6232    0.4342 C   0  0  0  0  0  0  0  0  0  0  0  0
   -3.0859   -2.9655    0.6455 C   0  0  0  0  0  0  0  0  0  0  0  0
   -2.5009   -3.3376    1.8217 C   0  0  0  0  0  0  0  0  0  0  0  0
   -2.1575   -2.4199    2.7893 C   0  0  0  0  0  0  0  0  0  0  0  0
   -2.4201   -1.0945    2.5440 C   0  0  0  0  0  0  0  0  0  0  0  0
   -0.5866    0.5040   -0.4002 C   0  0  0  0  0  0  0  0  0  0  0  0
    0.8257    0.9312   -0.7151 C   0  0  0  0  0  0  0  0  0  0  0  0
    5.1477    2.3564   -1.0825 H   0  0  0  0  0  0  0  0  0  0  0  0
    4.5307    3.2575    0.3069 H   0  0  0  0  0  0  0  0  0  0  0  0
    3.3942    2.6776   -1.0104 H   0  0  0  0  0  0  0  0  0  0  0  0
    7.0246   -0.2262   -0.5661 H   0  0  0  0  0  0  0  0  0  0  0  0
    9.1466   -0.4922   -1.6061 H   0  0  0  0  0  0  0  0  0  0  0  0
   12.3144   -1.5213   -2.3511 H   0  0  0  0  0  0  0  0  0  0  0  0
    9.4977   -4.3386    0.2889 H   0  0  0  0  0  0  0  0  0  0  0  0
    7.2931   -3.9963    1.3363 H   0  0  0  0  0  0  0  0  0  0  0  0
    3.5448   -2.0132    2.3470 H   0  0  0  0  0  0  0  0  0  0  0  0
    1.7937   -0.1990    2.3687 H   0  0  0  0  0  0  0  0  0  0  0  0
    1.2624    2.0252    1.9594 H   0  0  0  0  0  0  0  0  0  0  0  0
    2.4240    3.1474    1.1879 H   0  0  0  0  0  0  0  0  0  0  0  0
    0.4983    4.0402    0.4411 H   0  0  0  0  0  0  0  0  0  0  0  0
    0.2663    3.6748   -1.2846 H   0  0  0  0  0  0  0  0  0  0  0  0
   -1.8509    3.6265   -0.2900 H   0  0  0  0  0  0  0  0  0  0  0  0
   -1.2866    2.6195    1.1322 H   0  0  0  0  0  0  0  0  0  0  0  0
   -1.6789    1.7486   -1.7876 H   0  0  0  0  0  0  0  0  0  0  0  0
   -7.1948    0.4811    0.3699 H   0  0  0  0  0  0  0  0  0  0  0  0
   -6.6632    1.4938   -2.4113 H   0  0  0  0  0  0  0  0  0  0  0  0
   -6.9713    2.6287   -1.0124 H   0  0  0  0  0  0  0  0  0  0  0  0
   -9.1549    2.0397   -2.1585 H   0  0  0  0  0  0  0  0  0  0  0  0
   -9.0439    1.2108   -0.5184 H   0  0  0  0  0  0  0  0  0  0  0  0
   -8.4045   -1.9125   -1.9855 H   0  0  0  0  0  0  0  0  0  0  0  0
   -8.6718   -0.9155   -0.4481 H   0  0  0  0  0  0  0  0  0  0  0  0
   -6.3095   -1.6331   -0.6895 H   0  0  0  0  0  0  0  0  0  0  0  0
   -6.2230   -0.6957   -2.2757 H   0  0  0  0  0  0  0  0  0  0  0  0
   -5.2973    0.5196    1.9424 H   0  0  0  0  0  0  0  0  0  0  0  0
   -4.8437    2.2143    1.3860 H   0  0  0  0  0  0  0  0  0  0  0  0
   -2.7071    1.3993    1.9127 H   0  0  0  0  0  0  0  0  0  0  0  0
   -3.8056   -1.3131   -0.5051 H   0  0  0  0  0  0  0  0  0  0  0  0
   -3.3704   -3.6500   -0.1371 H   0  0  0  0  0  0  0  0  0  0  0  0
   -2.3090   -4.3915    1.9798 H   0  0  0  0  0  0  0  0  0  0  0  0
   -1.6905   -2.7609    3.7193 H   0  0  0  0  0  0  0  0  0  0  0  0
   -2.1567   -0.3609    3.2946 H   0  0  0  0  0  0  0  0  0  0  0  0
   -0.7922   -0.4117   -0.9934 H   0  0  0  0  0  0  0  0  0  0  0  0
   -0.6503    0.2077    0.6745 H   0  0  0  0  0  0  0  0  0  0  0  0
    0.9929    0.9568   -1.8124 H   0  0  0  0  0  0  0  0  0  0  0  0
    1.5039    0.1506   -0.3155 H   0  0  0  0  0  0  0  0  0  0  0  0
  1  2  1  0
  2  3  2  0
  3  4  1  0
  4  5  1  0
  5  6  1  0
  6  7  2  0
  7  8  1  0
  8  9  2  0
  9 10  1  0
 10 11  2  0
 10 12  1  0
  9 13  1  0
 13 14  2  0
  4 15  2  0
 15 16  1  0
 16 17  2  0
 17 18  1  0
 18 19  1  0
 19 20  1  0
 20 21  1  0
 21 22  1  0
 22 23  1  0
 23 24  1  0
 24 25  2  0
 24 26  1  0
 26 27  1  0
 27 28  1  0
 28 29  1  0
 29 30  1  0
 30 31  1  0
 31 32  1  0
 26 33  1  0
 33 34  1  0
 34 35  1  0
 35 36  2  0
 36 37  1  0
 37 38  2  0
 38 39  1  0
 39 40  2  0
 22 41  1  0
 41 42  1  0
 17  2  1  0
 42 19  1  0
 14  6  1  0
 34 23  1  0
 40 35  1  0
 32 27  1  0
  1 43  1  0
  1 44  1  0
  1 45  1  0
  7 46  1  0
  8 47  1  0
 12 48  1  0
 13 49  1  0
 14 50  1  0
 15 51  1  0
 16 52  1  0
 18 53  1  0
 18 54  1  0
 20 55  1  0
 20 56  1  0
 21 57  1  0
 21 58  1  0
 22 59  1  0
 27 60  1  0
 28 61  1  0
 28 62  1  0
 29 63  1  0
 29 64  1  0
 31 65  1  0
 31 66  1  0
 32 67  1  0
 32 68  1  0
 33 69  1  0
 33 70  1  0
 34 71  1  1
 36 72  1  0
 37 73  1  0
 38 74  1  0
 39 75  1  0
 40 76  1  0
 41 77  1  0
 41 78  1  0
 42 79  1  0
 42 80  1  0
M  END
$$$$
