@<TRIPOS>MOLECULE
*****
 80 85 0 0 0
SMALL
GASTEIGER

@<TRIPOS>ATOM
      1 C           4.2797    2.4421   -0.4066 C.3     1  UNL1       -0.0219
      2 C           4.0710    1.1786    0.3766 C.ar    1  UNL1        0.0464
      3 N           4.9775    0.1962    0.3878 N.ar    1  UNL1       -0.2175
      4 C           4.8714   -0.9596    1.0542 C.ar    1  UNL1        0.2207
      5 O           5.7968   -1.9735    1.0713 O.3     1  UNL1       -0.4380
      6 C           6.9962   -2.0816    0.4598 C.ar    1  UNL1        0.1304
      7 C           7.5393   -1.1401   -0.3561 C.ar    1  UNL1       -0.0185
      8 C           8.7750   -1.2840   -0.9684 C.ar    1  UNL1       -0.0443
      9 C           9.4912   -2.4457   -0.7364 C.ar    1  UNL1        0.0591
     10 C          10.7898   -2.6189   -1.3674 C.2     1  UNL1        0.3368
     11 O          11.4478   -3.6601   -1.1688 O.2     1  UNL1       -0.2451
     12 O          11.3094   -1.6416   -2.1890 O.3     1  UNL1       -0.4771
     13 C           8.9637   -3.4183    0.0874 C.ar    1  UNL1       -0.0443
     14 C           7.7354   -3.2457    0.6799 C.ar    1  UNL1       -0.0185
     15 C           3.6759   -1.0933    1.7905 C.ar    1  UNL1        0.0007
     16 C           2.7197   -0.1083    1.8056 C.ar    1  UNL1       -0.0506
     17 C           2.9024    1.0589    1.0904 C.ar    1  UNL1       -0.0121
     18 C           1.9146    2.1617    1.0693 C.3     1  UNL1        0.0257
     19 N           1.1892    2.1885   -0.1620 N.3     1  UNL1       -0.2980
     20 C           0.2265    3.2272   -0.2701 C.3     1  UNL1        0.0009
     21 C          -1.1814    2.8100    0.0508 C.3     1  UNL1       -0.0213
     22 C          -1.5965    1.5618   -0.6983 C.3     1  UNL1        0.0305
     23 N          -2.8867    1.1600   -0.1910 N.am    1  UNL1       -0.2738
     24 C          -4.0603    1.0427   -0.9910 C.2     1  UNL1        0.3059
     25 O          -4.0924    1.0804   -2.2494 O.2     1  UNL1       -0.2524
     26 N          -5.1927    0.8763   -0.1541 N.am    1  UNL1       -0.2802
     27 C          -6.5460    0.5318   -0.5245 C.3     1  UNL1        0.0317
     28 C          -7.1523    1.6168   -1.4228 C.3     1  UNL1       -0.0106
     29 C          -8.6268    1.2911   -1.5449 C.3     1  UNL1        0.0493
     30 O          -8.7318    0.0714   -2.2136 O.3     1  UNL1       -0.3796
     31 C          -8.1832   -0.9796   -1.4652 C.3     1  UNL1        0.0493
     32 C          -6.6786   -0.7603   -1.2611 C.3     1  UNL1       -0.0106
     33 C          -4.7449    1.1249    1.1927 C.3     1  UNL1        0.0393
     34 C          -3.2798    0.8063    1.1527 C.3     1  UNL1        0.0687
     35 C          -3.0183   -0.6552    1.3555 C.ar    1  UNL1       -0.0255
     36 C          -3.3349   -1.6232    0.4342 C.ar    1  UNL1       -0.0567
     37 C          -3.0859   -2.9655    0.6455 C.ar    1  UNL1       -0.0614
     38 C          -2.5009   -3.3376    1.8217 C.ar    1  UNL1       -0.0617
     39 C          -2.1575   -2.4199    2.7893 C.ar    1  UNL1       -0.0614
     40 C          -2.4201   -1.0945    2.5440 C.ar    1  UNL1       -0.0567
     41 C          -0.5866    0.5040   -0.4002 C.3     1  UNL1       -0.0213
     42 C           0.8257    0.9312   -0.7151 C.3     1  UNL1        0.0009
     43 H           5.1477    2.3564   -1.0825 H       1  UNL1        0.0293
     44 H           4.5307    3.2575    0.3069 H       1  UNL1        0.0293
     45 H           3.3942    2.6776   -1.0104 H       1  UNL1        0.0293
     46 H           7.0246   -0.2262   -0.5661 H       1  UNL1        0.0654
     47 H           9.1466   -0.4922   -1.6061 H       1  UNL1        0.0627
     48 H          12.3144   -1.5213   -2.3511 H       1  UNL1        0.2954
     49 H           9.4977   -4.3386    0.2889 H       1  UNL1        0.0627
     50 H           7.2931   -3.9963    1.3363 H       1  UNL1        0.0654
     51 H           3.5448   -2.0132    2.3470 H       1  UNL1        0.0671
     52 H           1.7937   -0.1990    2.3687 H       1  UNL1        0.0623
     53 H           1.2624    2.0252    1.9594 H       1  UNL1        0.0476
     54 H           2.4240    3.1474    1.1879 H       1  UNL1        0.0476
     55 H           0.4983    4.0402    0.4411 H       1  UNL1        0.0427
     56 H           0.2663    3.6748   -1.2846 H       1  UNL1        0.0427
     57 H          -1.8509    3.6265   -0.2900 H       1  UNL1        0.0295
     58 H          -1.2866    2.6195    1.1322 H       1  UNL1        0.0295
     59 H          -1.6789    1.7486   -1.7876 H       1  UNL1        0.0502
     60 H          -7.1948    0.4811    0.3699 H       1  UNL1        0.0502
     61 H          -6.6632    1.4938   -2.4113 H       1  UNL1        0.0305
     62 H          -6.9713    2.6287   -1.0124 H       1  UNL1        0.0305
     63 H          -9.1549    2.0397   -2.1585 H       1  UNL1        0.0560
     64 H          -9.0439    1.2108   -0.5184 H       1  UNL1        0.0560
     65 H          -8.4045   -1.9125   -1.9855 H       1  UNL1        0.0560
     66 H          -8.6718   -0.9155   -0.4481 H       1  UNL1        0.0560
     67 H          -6.3095   -1.6331   -0.6895 H       1  UNL1        0.0305
     68 H          -6.2230   -0.6957   -2.2757 H       1  UNL1        0.0305
     69 H          -5.2973    0.5196    1.9424 H       1  UNL1        0.0487
     70 H          -4.8437    2.2143    1.3860 H       1  UNL1        0.0487
     71 H          -2.7071    1.3993    1.9127 H       1  UNL1        0.0567
     72 H          -3.8056   -1.3131   -0.5051 H       1  UNL1        0.0621
     73 H          -3.3704   -3.6500   -0.1371 H       1  UNL1        0.0618
     74 H          -2.3090   -4.3915    1.9798 H       1  UNL1        0.0618
     75 H          -1.6905   -2.7609    3.7193 H       1  UNL1        0.0618
     76 H          -2.1567   -0.3609    3.2946 H       1  UNL1        0.0621
     77 H          -0.7922   -0.4117   -0.9934 H       1  UNL1        0.0295
     78 H          -0.6503    0.2077    0.6745 H       1  UNL1        0.0295
     79 H           0.9929    0.9568   -1.8124 H       1  UNL1        0.0427
     80 H           1.5039    0.1506   -0.3155 H       1  UNL1        0.0427
@<TRIPOS>BOND
     1     1     2    1
     2     2     3   ar
     3     3     4   ar
     4     4     5    1
     5     5     6    1
     6     6     7   ar
     7     7     8   ar
     8     8     9   ar
     9     9    10    1
    10    10    11    2
    11    10    12    1
    12     9    13   ar
    13    13    14   ar
    14     4    15   ar
    15    15    16   ar
    16    16    17   ar
    17    17    18    1
    18    18    19    1
    19    19    20    1
    20    20    21    1
    21    21    22    1
    22    22    23    1
    23    23    24   am
    24    24    25    2
    25    24    26   am
    26    26    27    1
    27    27    28    1
    28    28    29    1
    29    29    30    1
    30    30    31    1
    31    31    32    1
    32    26    33    1
    33    33    34    1
    34    34    35    1
    35    35    36   ar
    36    36    37   ar
    37    37    38   ar
    38    38    39   ar
    39    39    40   ar
    40    22    41    1
    41    41    42    1
    42    17     2   ar
    43    42    19    1
    44    14     6   ar
    45    34    23    1
    46    40    35   ar
    47    32    27    1
    48     1    43    1
    49     1    44    1
    50     1    45    1
    51     7    46    1
    52     8    47    1
    53    12    48    1
    54    13    49    1
    55    14    50    1
    56    15    51    1
    57    16    52    1
    58    18    53    1
    59    18    54    1
    60    20    55    1
    61    20    56    1
    62    21    57    1
    63    21    58    1
    64    22    59    1
    65    27    60    1
    66    28    61    1
    67    28    62    1
    68    29    63    1
    69    29    64    1
    70    31    65    1
    71    31    66    1
    72    32    67    1
    73    32    68    1
    74    33    69    1
    75    33    70    1
    76    34    71    1
    77    36    72    1
    78    37    73    1
    79    38    74    1
    80    39    75    1
    81    40    76    1
    82    41    77    1
    83    41    78    1
    84    42    79    1
    85    42    80    1
