@<TRIPOS>MOLECULE
*****
 52 55 0 0 0
SMALL
GASTEIGER

@<TRIPOS>ATOM
      1 C           1.0946   -5.1221    0.5446 C.3     1  UNL1       -0.0307
      2 C           0.1935   -4.3977    1.4874 C.3     1  UNL1        0.0868
      3 O          -0.2659   -3.2012    0.9434 O.3     1  UNL1       -0.4915
      4 C           0.5642   -2.1624    0.6136 C.ar    1  UNL1        0.1311
      5 C           1.9391   -2.2849    0.8503 C.ar    1  UNL1       -0.0190
      6 C           2.7725   -1.2423    0.5214 C.ar    1  UNL1       -0.0548
      7 C           2.2625   -0.0940   -0.0319 C.ar    1  UNL1       -0.0426
      8 C           3.1807    1.0422   -0.3885 C.3     1  UNL1       -0.0040
      9 C           4.6101    0.6850   -0.7850 C.3     1  UNL1       -0.0338
     10 C           4.3304    1.3384    0.5196 C.3     1  UNL1        0.0449
     11 C           4.7250    2.7542    0.7107 C.2     1  UNL1        0.2391
     12 O           4.6117    3.5965   -0.2424 O.2     1  UNL1       -0.2734
     13 N           5.2305    3.1600    1.9677 N.am    1  UNL1       -0.1973
     14 O           5.6052    4.4535    2.1855 O.3     1  UNL1       -0.2952
     15 C           0.9115   -0.0115   -0.2476 C.ar    1  UNL1       -0.0441
     16 C           0.0090   -1.0317    0.0621 C.ar    1  UNL1        0.0592
     17 C          -1.3972   -0.8152   -0.2176 C.ar    1  UNL1        0.1451
     18 N          -1.7607    0.3810   -0.7703 N.ar    1  UNL1       -0.2254
     19 C          -3.0153    0.7137   -1.0784 C.ar    1  UNL1        0.1192
     20 C          -3.5804    1.8593   -1.6369 C.ar    1  UNL1        0.0889
     21 C          -2.7710    3.0460   -2.0291 C.3     1  UNL1       -0.0094
     22 C          -2.3709    3.8293   -0.8236 C.3     1  UNL1       -0.0597
     23 N          -4.8830    1.6345   -1.7165 N.ar    1  UNL1       -0.1736
     24 N          -5.1630    0.4331   -1.2475 N.ar    1  UNL1       -0.2598
     25 C          -6.4695   -0.1524   -1.1754 C.3     1  UNL1        0.0311
     26 C          -4.0421   -0.1758   -0.8408 C.ar    1  UNL1        0.1513
     27 C          -3.7038   -1.3811   -0.2876 C.ar    1  UNL1        0.2775
     28 O          -4.6019   -2.2228   -0.0530 O.2     1  UNL1       -0.2655
     29 N          -2.3993   -1.6595    0.0042 N.ar    1  UNL1       -0.3051
     30 H           2.0119   -5.4916    1.0458 H       1  UNL1        0.0262
     31 H           1.3664   -4.5034   -0.3537 H       1  UNL1        0.0262
     32 H           0.5131   -5.9932    0.1198 H       1  UNL1        0.0262
     33 H          -0.6862   -5.0590    1.7255 H       1  UNL1        0.0694
     34 H           0.7223   -4.1285    2.4376 H       1  UNL1        0.0694
     35 H           2.3647   -3.1818    1.3044 H       1  UNL1        0.0654
     36 H           3.8581   -1.3030    0.6924 H       1  UNL1        0.0622
     37 H           2.6940    1.9149   -0.8247 H       1  UNL1        0.0356
     38 H           4.9185   -0.3678   -0.7885 H       1  UNL1        0.0279
     39 H           4.9866    1.2782   -1.6510 H       1  UNL1        0.0279
     40 H           4.4712    0.6966    1.4131 H       1  UNL1        0.0401
     41 H           5.3401    2.5067    2.7738 H       1  UNL1        0.1822
     42 H           6.1674    4.6936    1.3932 H       1  UNL1        0.2414
     43 H           0.5041    0.8980   -0.6861 H       1  UNL1        0.0629
     44 H          -3.4426    3.7138   -2.6441 H       1  UNL1        0.0327
     45 H          -1.8911    2.7368   -2.6170 H       1  UNL1        0.0327
     46 H          -2.2660    4.8973   -1.1284 H       1  UNL1        0.0233
     47 H          -3.1299    3.6987   -0.0449 H       1  UNL1        0.0233
     48 H          -1.3923    3.4234   -0.4705 H       1  UNL1        0.0233
     49 H          -6.5447   -0.9987   -0.4900 H       1  UNL1        0.0473
     50 H          -7.2228    0.6089   -0.8279 H       1  UNL1        0.0473
     51 H          -6.7655   -0.4293   -2.2196 H       1  UNL1        0.0473
     52 H          -2.1937   -2.5828    0.4206 H       1  UNL1        0.1704
@<TRIPOS>BOND
     1     1     2    1
     2     2     3    1
     3     3     4    1
     4     4     5   ar
     5     5     6   ar
     6     6     7   ar
     7     7     8    1
     8     8     9    1
     9     9    10    1
    10    10    11    1
    11    11    12    2
    12    11    13   am
    13    13    14    1
    14     7    15   ar
    15    15    16   ar
    16    16    17    1
    17    17    18   ar
    18    18    19   ar
    19    19    20   ar
    20    20    21    1
    21    21    22    1
    22    20    23   ar
    23    23    24   ar
    24    24    25    1
    25    24    26   ar
    26    26    27   ar
    27    27    28    2
    28    27    29   ar
    29    16     4   ar
    30    29    17   ar
    31    10     8    1
    32    26    19   ar
    33     1    30    1
    34     1    31    1
    35     1    32    1
    36     2    33    1
    37     2    34    1
    38     5    35    1
    39     6    36    1
    40     8    37    1
    41     9    38    1
    42     9    39    1
    43    10    40    1
    44    13    41    1
    45    14    42    1
    46    15    43    1
    47    21    44    1
    48    21    45    1
    49    22    46    1
    50    22    47    1
    51    22    48    1
    52    25    49    1
    53    25    50    1
    54    25    51    1
    55    29    52    1
