@<TRIPOS>MOLECULE
*****
 70 75 0 0 0
SMALL
GASTEIGER

@<TRIPOS>ATOM
      1 N          -6.0073    2.9901   -1.5931 N.am    1  UNL1       -0.3289
      2 C          -6.3643    2.0971   -0.5630 C.2     1  UNL1        0.2167
      3 O          -7.4937    2.2061   -0.0278 O.2     1  UNL1       -0.2754
      4 C          -5.4638    1.0241   -0.0743 C.3     1  UNL1        0.0476
      5 C          -6.1214    0.2328    1.0330 C.3     1  UNL1       -0.0362
      6 C          -5.1970   -0.8367    1.5248 C.3     1  UNL1       -0.0395
      7 C          -3.9268   -0.2384    2.0905 C.3     1  UNL1       -0.0456
      8 C          -3.3196    0.6306    1.0379 C.3     1  UNL1       -0.0211
      9 C          -4.2553    1.7055    0.5297 C.3     1  UNL1       -0.0345
     10 C          -2.9099   -0.1884   -0.1981 C.3     1  UNL1        0.0289
     11 N          -1.7600   -0.9937    0.0850 N.am    1  UNL1       -0.3106
     12 C          -0.5000   -0.7048   -0.5351 C.2     1  UNL1        0.2308
     13 O          -0.4794    0.2744   -1.3234 O.2     1  UNL1       -0.2741
     14 C           0.6392   -1.5650   -0.1940 C.3     1  UNL1        0.0901
     15 C           0.4630   -2.9050   -0.8156 C.3     1  UNL1       -0.0169
     16 C           0.3622   -3.1824   -2.2447 C.3     1  UNL1       -0.0480
     17 C          -0.8952   -3.2141   -1.4568 C.3     1  UNL1       -0.0480
     18 N           1.8869   -0.9617   -0.6301 N.3     1  UNL1       -0.2883
     19 C           3.0246   -1.7768   -0.3526 C.3     1  UNL1        0.0154
     20 C           4.3350   -1.0681   -0.6006 C.3     1  UNL1        0.0263
     21 N           4.4101    0.1844    0.1273 N.pl3   1  UNL1       -0.3127
     22 C           5.6559    0.8113    0.3533 C.ar    1  UNL1        0.1213
     23 C           5.7952    1.9691    1.0790 C.ar    1  UNL1       -0.0212
     24 C           7.0409    2.5624    1.2805 C.ar    1  UNL1       -0.0454
     25 C           8.1638    1.9744    0.7391 C.ar    1  UNL1        0.0730
     26 C           9.5195    2.5731    0.9280 C.3     1  UNL1        0.4188
     27 F          10.4187    2.0097    0.0600 F       1  UNL1       -0.1658
     28 F           9.3950    3.9293    0.6943 F       1  UNL1       -0.1658
     29 F           9.8630    2.4032    2.2468 F       1  UNL1       -0.1658
     30 C           7.9940    0.8169    0.0182 C.ar    1  UNL1        0.0413
     31 N           6.7757    0.2706   -0.1571 N.ar    1  UNL1       -0.2398
     32 C           3.1902    0.7525    0.6007 C.3     1  UNL1        0.0263
     33 C           2.0263    0.4102   -0.2763 C.3     1  UNL1        0.0154
     34 C          -4.1027   -0.9243   -0.7092 C.3     1  UNL1       -0.0211
     35 C          -4.8224   -1.7119    0.3632 C.3     1  UNL1       -0.0456
     36 C          -5.0977    0.1266   -1.2205 C.3     1  UNL1       -0.0345
     37 H          -5.0878    3.4937   -1.5922 H       1  UNL1        0.1449
     38 H          -6.6783    3.1466   -2.3678 H       1  UNL1        0.1449
     39 H          -6.3082    0.9572    1.8633 H       1  UNL1        0.0278
     40 H          -7.0635   -0.2399    0.6880 H       1  UNL1        0.0278
     41 H          -5.6913   -1.4211    2.3010 H       1  UNL1        0.0301
     42 H          -3.2356   -1.0624    2.3005 H       1  UNL1        0.0271
     43 H          -4.1511    0.3761    2.9627 H       1  UNL1        0.0271
     44 H          -2.3784    1.1271    1.4062 H       1  UNL1        0.0319
     45 H          -3.7164    2.2983   -0.2215 H       1  UNL1        0.0278
     46 H          -4.6240    2.2987    1.3902 H       1  UNL1        0.0278
     47 H          -2.6568    0.6112   -0.9555 H       1  UNL1        0.0504
     48 H          -1.8787   -1.7885    0.7531 H       1  UNL1        0.1490
     49 H           0.6885   -1.6479    0.9094 H       1  UNL1        0.0561
     50 H           0.8217   -3.7586   -0.1618 H       1  UNL1        0.0321
     51 H           0.4879   -2.4191   -3.0228 H       1  UNL1        0.0269
     52 H           0.7044   -4.1933   -2.6014 H       1  UNL1        0.0269
     53 H          -1.3778   -4.1841   -1.2248 H       1  UNL1        0.0269
     54 H          -1.6037   -2.4302   -1.7022 H       1  UNL1        0.0269
     55 H           2.9918   -2.6653   -1.0166 H       1  UNL1        0.0442
     56 H           3.0349   -2.0794    0.7200 H       1  UNL1        0.0442
     57 H           4.4027   -0.8299   -1.6816 H       1  UNL1        0.0477
     58 H           5.2054   -1.7009   -0.3512 H       1  UNL1        0.0477
     59 H           4.9459    2.4542    1.5163 H       1  UNL1        0.0652
     60 H           7.1369    3.4735    1.8534 H       1  UNL1        0.0625
     61 H           8.8956    0.3658   -0.4028 H       1  UNL1        0.0836
     62 H           3.2374    1.8821    0.6129 H       1  UNL1        0.0477
     63 H           2.9438    0.4568    1.6454 H       1  UNL1        0.0477
     64 H           1.1168    0.7183    0.3051 H       1  UNL1        0.0442
     65 H           2.1121    1.0112   -1.2053 H       1  UNL1        0.0442
     66 H          -3.8338   -1.6253   -1.5069 H       1  UNL1        0.0319
     67 H          -5.7812   -2.0602   -0.1071 H       1  UNL1        0.0271
     68 H          -4.2833   -2.6214    0.6511 H       1  UNL1        0.0271
     69 H          -6.0021   -0.3623   -1.5852 H       1  UNL1        0.0278
     70 H          -4.6156    0.7357   -1.9909 H       1  UNL1        0.0278
@<TRIPOS>BOND
     1     1     2   am
     2     2     3    2
     3     4     2    1
     4     4     5    1
     5     5     6    1
     6     6     7    1
     7     7     8    1
     8     8     9    1
     9     8    10    1
    10    10    11    1
    11    11    12   am
    12    12    13    2
    13    12    14    1
    14    14    15    1
    15    15    16    1
    16    16    17    1
    17    14    18    1
    18    18    19    1
    19    19    20    1
    20    20    21    1
    21    21    22    1
    22    22    23   ar
    23    23    24   ar
    24    24    25   ar
    25    25    26    1
    26    26    27    1
    27    26    28    1
    28    26    29    1
    29    25    30   ar
    30    30    31   ar
    31    21    32    1
    32    32    33    1
    33    10    34    1
    34    34    35    1
    35    34    36    1
    36     9     4    1
    37    17    15    1
    38    33    18    1
    39    36     4    1
    40    35     6    1
    41    31    22   ar
    42     1    37    1
    43     1    38    1
    44     5    39    1
    45     5    40    1
    46     6    41    1
    47     7    42    1
    48     7    43    1
    49     8    44    1
    50     9    45    1
    51     9    46    1
    52    10    47    1
    53    11    48    1
    54    14    49    1
    55    15    50    1
    56    16    51    1
    57    16    52    1
    58    17    53    1
    59    17    54    1
    60    19    55    1
    61    19    56    1
    62    20    57    1
    63    20    58    1
    64    23    59    1
    65    24    60    1
    66    30    61    1
    67    32    62    1
    68    32    63    1
    69    33    64    1
    70    33    65    1
    71    34    66    1
    72    35    67    1
    73    35    68    1
    74    36    69    1
    75    36    70    1
