
     RDKit          3D

 88 93  0  0  0  0  0  0  0  0999 V2000
   10.5684    4.7487    2.2878 C   0  0  0  0  0  0  0  0  0  0  0  0
   10.3311    3.4248    1.8873 O   0  0  0  0  0  0  0  0  0  0  0  0
    9.1786    3.0341    1.2072 C   0  0  0  0  0  0  0  0  0  0  0  0
    8.1750    3.8901    0.8704 C   0  0  0  0  0  0  0  0  0  0  0  0
    7.0477    3.4318    0.1892 C   0  0  0  0  0  0  0  0  0  0  0  0
    6.9009    2.1136   -0.1678 C   0  0  0  0  0  0  0  0  0  0  0  0
    5.7182    1.6454   -0.9070 C   0  0  0  0  0  0  0  0  0  0  0  0
    4.6148    1.2216   -0.1182 N   0  0  0  0  0  0  0  0  0  0  0  0
    3.9913    2.2676    0.6753 C   0  0  0  0  0  0  0  0  0  0  0  0
    2.5398    1.8872    1.0054 C   0  0  0  0  0  0  0  0  0  0  0  0
    2.5640    0.4363    1.1174 N   0  0  0  0  0  0  0  0  0  0  0  0
    1.4455   -0.3250    0.6986 C   0  0  0  0  0  0  0  0  0  0  0  0
    1.5059   -1.7058    0.5645 C   0  0  0  0  0  0  0  0  0  0  0  0
    0.4045   -2.4303    0.1604 C   0  0  0  0  0  0  0  0  0  0  0  0
   -0.8136   -1.8426   -0.1346 C   0  0  0  0  0  0  0  0  0  0  0  0
   -1.8953   -2.6379   -0.5273 N   0  0  0  0  0  0  0  0  0  0  0  0
   -3.1835   -2.2712   -0.9335 C   0  0  0  0  0  0  0  0  0  0  0  0
   -3.4461   -1.0392   -0.9668 O   0  0  0  0  0  0  0  0  0  0  0  0
   -4.2414   -3.2146   -1.3188 C   0  0  0  0  0  0  0  0  0  0  0  0
   -4.0212   -4.5717   -1.2852 C   0  0  0  0  0  0  0  0  0  0  0  0
   -5.0208   -5.4738   -1.6323 C   0  0  0  0  0  0  0  0  0  0  0  0
   -4.8169   -6.8475   -1.6052 O   0  0  0  0  0  0  0  0  0  0  0  0
   -3.5322   -7.3519   -1.2078 C   0  0  0  0  0  0  0  0  0  0  0  0
   -6.2599   -4.9740   -2.0174 C   0  0  0  0  0  0  0  0  0  0  0  0
   -7.2339   -5.9008   -2.3546 O   0  0  0  0  0  0  0  0  0  0  0  0
   -8.4992   -5.4655   -2.7475 C   0  0  0  0  0  0  0  0  0  0  0  0
   -6.4486   -3.6064   -2.0406 C   0  0  0  0  0  0  0  0  0  0  0  0
   -5.4830   -2.6988   -1.7051 C   0  0  0  0  0  0  0  0  0  0  0  0
   -5.6265   -1.2888   -1.7297 N   0  0  0  0  0  0  0  0  0  0  0  0
   -6.1353   -0.5537   -0.6370 C   0  0  0  0  0  0  0  0  0  0  0  0
   -6.4741   -1.2160    0.3850 O   0  0  0  0  0  0  0  0  0  0  0  0
   -6.2931    0.8943   -0.6053 C   0  0  0  0  0  0  0  0  0  0  0  0
   -5.8861    1.7051   -1.6331 C   0  0  0  0  0  0  0  0  0  0  0  0
   -6.0434    3.0628   -1.5780 N   0  0  0  0  0  0  0  0  0  0  0  0
   -6.6021    3.6817   -0.5200 C   0  0  0  0  0  0  0  0  0  0  0  0
   -6.7563    5.0600   -0.4648 C   0  0  0  0  0  0  0  0  0  0  0  0
   -7.3354    5.7030    0.6398 C   0  0  0  0  0  0  0  0  0  0  0  0
   -7.7500    4.9000    1.6793 C   0  0  0  0  0  0  0  0  0  0  0  0
   -7.5944    3.5264    1.6205 C   0  0  0  0  0  0  0  0  0  0  0  0
   -7.0227    2.8979    0.5300 C   0  0  0  0  0  0  0  0  0  0  0  0
   -6.8717    1.5119    0.4924 C   0  0  0  0  0  0  0  0  0  0  0  0
   -0.8773   -0.4817   -0.0049 C   0  0  0  0  0  0  0  0  0  0  0  0
    0.2355    0.2738    0.4067 C   0  0  0  0  0  0  0  0  0  0  0  0
    3.7703   -0.1248    1.6646 C   0  0  0  0  0  0  0  0  0  0  0  0
    4.9342    0.0627    0.7029 C   0  0  0  0  0  0  0  0  0  0  0  0
    7.9233    1.2645    0.1805 C   0  0  0  0  0  0  0  0  0  0  0  0
    9.0506    1.6834    0.8531 C   0  0  0  0  0  0  0  0  0  0  0  0
   10.0532    0.7872    1.1786 O   0  0  0  0  0  0  0  0  0  0  0  0
    9.8891   -0.5714    0.8054 C   0  0  0  0  0  0  0  0  0  0  0  0
   10.4647    5.4857    1.4411 H   0  0  0  0  0  0  0  0  0  0  0  0
   11.6209    4.8530    2.6750 H   0  0  0  0  0  0  0  0  0  0  0  0
    9.9018    5.0595    3.1275 H   0  0  0  0  0  0  0  0  0  0  0  0
    8.2535    4.9304    1.1372 H   0  0  0  0  0  0  0  0  0  0  0  0
    6.2999    4.1474   -0.0474 H   0  0  0  0  0  0  0  0  0  0  0  0
    5.9669    0.8034   -1.6042 H   0  0  0  0  0  0  0  0  0  0  0  0
    5.3133    2.4540   -1.5980 H   0  0  0  0  0  0  0  0  0  0  0  0
    4.5604    2.5287    1.5882 H   0  0  0  0  0  0  0  0  0  0  0  0
    3.9419    3.1772    0.0448 H   0  0  0  0  0  0  0  0  0  0  0  0
    2.2153    2.3449    1.9534 H   0  0  0  0  0  0  0  0  0  0  0  0
    1.9307    2.2187    0.1547 H   0  0  0  0  0  0  0  0  0  0  0  0
    2.4413   -2.2164    0.7757 H   0  0  0  0  0  0  0  0  0  0  0  0
    0.4671   -3.5099    0.0669 H   0  0  0  0  0  0  0  0  0  0  0  0
   -1.7223   -3.6987   -0.5223 H   0  0  0  0  0  0  0  0  0  0  0  0
   -3.0818   -5.0180   -0.9933 H   0  0  0  0  0  0  0  0  0  0  0  0
   -2.7161   -6.8660   -1.7670 H   0  0  0  0  0  0  0  0  0  0  0  0
   -3.4537   -8.4327   -1.3430 H   0  0  0  0  0  0  0  0  0  0  0  0
   -3.3930   -7.1392   -0.1128 H   0  0  0  0  0  0  0  0  0  0  0  0
   -8.9765   -4.9123   -1.9140 H   0  0  0  0  0  0  0  0  0  0  0  0
   -9.1546   -6.3183   -3.0083 H   0  0  0  0  0  0  0  0  0  0  0  0
   -8.3807   -4.7838   -3.6289 H   0  0  0  0  0  0  0  0  0  0  0  0
   -7.4072   -3.2206   -2.3377 H   0  0  0  0  0  0  0  0  0  0  0  0
   -5.3492   -0.7274   -2.5935 H   0  0  0  0  0  0  0  0  0  0  0  0
   -5.4256    1.2562   -2.5093 H   0  0  0  0  0  0  0  0  0  0  0  0
   -6.4238    5.6570   -1.2926 H   0  0  0  0  0  0  0  0  0  0  0  0
   -7.4238    6.7754    0.6174 H   0  0  0  0  0  0  0  0  0  0  0  0
   -8.1969    5.3986    2.5367 H   0  0  0  0  0  0  0  0  0  0  0  0
   -7.9130    2.9036    2.4290 H   0  0  0  0  0  0  0  0  0  0  0  0
   -7.2121    0.8942    1.3213 H   0  0  0  0  0  0  0  0  0  0  0  0
   -1.7530    0.0991   -0.2004 H   0  0  0  0  0  0  0  0  0  0  0  0
    0.1635    1.3459    0.5085 H   0  0  0  0  0  0  0  0  0  0  0  0
    4.0028    0.3945    2.6267 H   0  0  0  0  0  0  0  0  0  0  0  0
    3.6361   -1.1757    1.8731 H   0  0  0  0  0  0  0  0  0  0  0  0
    4.9418   -0.8170    0.0323 H   0  0  0  0  0  0  0  0  0  0  0  0
    5.8432    0.1607    1.2944 H   0  0  0  0  0  0  0  0  0  0  0  0
    7.8002    0.2057   -0.1047 H   0  0  0  0  0  0  0  0  0  0  0  0
    9.0333   -1.0301    1.3724 H   0  0  0  0  0  0  0  0  0  0  0  0
    9.6732   -0.6244   -0.2826 H   0  0  0  0  0  0  0  0  0  0  0  0
   10.8334   -1.1255    1.0490 H   0  0  0  0  0  0  0  0  0  0  0  0
  1  2  1  0
  2  3  1  0
  3  4  2  0
  4  5  1  0
  5  6  2  0
  6  7  1  0
  7  8  1  0
  8  9  1  0
  9 10  1  0
 10 11  1  0
 11 12  1  0
 12 13  2  0
 13 14  1  0
 14 15  2  0
 15 16  1  0
 16 17  1  0
 17 18  2  0
 17 19  1  0
 19 20  2  0
 20 21  1  0
 21 22  1  0
 22 23  1  0
 21 24  2  0
 24 25  1  0
 25 26  1  0
 24 27  1  0
 27 28  2  0
 28 29  1  0
 29 30  1  0
 30 31  2  0
 30 32  1  0
 32 33  2  0
 33 34  1  0
 34 35  2  0
 35 36  1  0
 36 37  2  0
 37 38  1  0
 38 39  2  0
 39 40  1  0
 40 41  2  0
 15 42  1  0
 42 43  2  0
 11 44  1  0
 44 45  1  0
  6 46  1  0
 46 47  2  0
 47 48  1  0
 48 49  1  0
 47  3  1  0
 45  8  1  0
 43 12  1  0
 28 19  1  0
 41 32  1  0
 40 35  1  0
  1 50  1  0
  1 51  1  0
  1 52  1  0
  4 53  1  0
  5 54  1  0
  7 55  1  0
  7 56  1  0
  9 57  1  0
  9 58  1  0
 10 59  1  0
 10 60  1  0
 13 61  1  0
 14 62  1  0
 16 63  1  0
 20 64  1  0
 23 65  1  0
 23 66  1  0
 23 67  1  0
 26 68  1  0
 26 69  1  0
 26 70  1  0
 27 71  1  0
 29 72  1  0
 33 73  1  0
 36 74  1  0
 37 75  1  0
 38 76  1  0
 39 77  1  0
 41 78  1  0
 42 79  1  0
 43 80  1  0
 44 81  1  0
 44 82  1  0
 45 83  1  0
 45 84  1  0
 46 85  1  0
 49 86  1  0
 49 87  1  0
 49 88  1  0
M  END
$$$$
