@<TRIPOS>MOLECULE
*****
 88 93 0 0 0
SMALL
GASTEIGER

@<TRIPOS>ATOM
      1 C          10.5684    4.7487    2.2878 C.3     1  UNL1        0.0790
      2 O          10.3311    3.4248    1.8873 O.3     1  UNL1       -0.4915
      3 C           9.1786    3.0341    1.2072 C.ar    1  UNL1        0.1615
      4 C           8.1750    3.8901    0.8704 C.ar    1  UNL1       -0.0160
      5 C           7.0477    3.4318    0.1892 C.ar    1  UNL1       -0.0537
      6 C           6.9009    2.1136   -0.1678 C.ar    1  UNL1       -0.0297
      7 C           5.7182    1.6454   -0.9070 C.3     1  UNL1        0.0243
      8 N           4.6148    1.2216   -0.1182 N.3     1  UNL1       -0.2952
      9 C           3.9913    2.2676    0.6753 C.3     1  UNL1        0.0150
     10 C           2.5398    1.8872    1.0054 C.3     1  UNL1        0.0250
     11 N           2.5640    0.4363    1.1174 N.pl3   1  UNL1       -0.3274
     12 C           1.4455   -0.3250    0.6986 C.ar    1  UNL1        0.0299
     13 C           1.5059   -1.7058    0.5645 C.ar    1  UNL1       -0.0389
     14 C           0.4045   -2.4303    0.1604 C.ar    1  UNL1       -0.0387
     15 C          -0.8136   -1.8426   -0.1346 C.ar    1  UNL1        0.0338
     16 N          -1.8953   -2.6379   -0.5273 N.am    1  UNL1       -0.2814
     17 C          -3.1835   -2.2712   -0.9335 C.2     1  UNL1        0.2502
     18 O          -3.4461   -1.0392   -0.9668 O.2     1  UNL1       -0.2698
     19 C          -4.2414   -3.2146   -1.3188 C.ar    1  UNL1        0.0619
     20 C          -4.0212   -4.5717   -1.2852 C.ar    1  UNL1       -0.0024
     21 C          -5.0208   -5.4738   -1.6323 C.ar    1  UNL1        0.1623
     22 O          -4.8169   -6.8475   -1.6052 O.3     1  UNL1       -0.4914
     23 C          -3.5322   -7.3519   -1.2078 C.3     1  UNL1        0.0790
     24 C          -6.2599   -4.9740   -2.0174 C.ar    1  UNL1        0.1633
     25 O          -7.2339   -5.9008   -2.3546 O.3     1  UNL1       -0.4914
     26 C          -8.4992   -5.4655   -2.7475 C.3     1  UNL1        0.0790
     27 C          -6.4486   -3.6064   -2.0406 C.ar    1  UNL1        0.0057
     28 C          -5.4830   -2.6988   -1.7051 C.ar    1  UNL1        0.0495
     29 N          -5.6265   -1.2888   -1.7297 N.am    1  UNL1       -0.2807
     30 C          -6.1353   -0.5537   -0.6370 C.2     1  UNL1        0.2498
     31 O          -6.4741   -1.2160    0.3850 O.2     1  UNL1       -0.2698
     32 C          -6.2931    0.8943   -0.6053 C.ar    1  UNL1        0.0557
     33 C          -5.8861    1.7051   -1.6331 C.ar    1  UNL1        0.0404
     34 N          -6.0434    3.0628   -1.5780 N.ar    1  UNL1       -0.2542
     35 C          -6.6021    3.6817   -0.5200 C.ar    1  UNL1        0.0710
     36 C          -6.7563    5.0600   -0.4648 C.ar    1  UNL1       -0.0357
     37 C          -7.3354    5.7030    0.6398 C.ar    1  UNL1       -0.0597
     38 C          -7.7500    4.9000    1.6793 C.ar    1  UNL1       -0.0611
     39 C          -7.5944    3.5264    1.6205 C.ar    1  UNL1       -0.0525
     40 C          -7.0227    2.8979    0.5300 C.ar    1  UNL1        0.0011
     41 C          -6.8717    1.5119    0.4924 C.ar    1  UNL1       -0.0390
     42 C          -0.8773   -0.4817   -0.0049 C.ar    1  UNL1       -0.0387
     43 C           0.2355    0.2738    0.4067 C.ar    1  UNL1       -0.0389
     44 C           3.7703   -0.1248    1.6646 C.3     1  UNL1        0.0250
     45 C           4.9342    0.0627    0.7029 C.3     1  UNL1        0.0150
     46 C           7.9233    1.2645    0.1805 C.ar    1  UNL1       -0.0119
     47 C           9.0506    1.6834    0.8531 C.ar    1  UNL1        0.1618
     48 O          10.0532    0.7872    1.1786 O.3     1  UNL1       -0.4914
     49 C           9.8891   -0.5714    0.8054 C.3     1  UNL1        0.0790
     50 H          10.4647    5.4857    1.4411 H       1  UNL1        0.0660
     51 H          11.6209    4.8530    2.6750 H       1  UNL1        0.0660
     52 H           9.9018    5.0595    3.1275 H       1  UNL1        0.0660
     53 H           8.2535    4.9304    1.1372 H       1  UNL1        0.0655
     54 H           6.2999    4.1474   -0.0474 H       1  UNL1        0.0622
     55 H           5.9669    0.8034   -1.6042 H       1  UNL1        0.0476
     56 H           5.3133    2.4540   -1.5980 H       1  UNL1        0.0476
     57 H           4.5604    2.5287    1.5882 H       1  UNL1        0.0442
     58 H           3.9419    3.1772    0.0448 H       1  UNL1        0.0442
     59 H           2.2153    2.3449    1.9534 H       1  UNL1        0.0476
     60 H           1.9307    2.2187    0.1547 H       1  UNL1        0.0476
     61 H           2.4413   -2.2164    0.7757 H       1  UNL1        0.0637
     62 H           0.4671   -3.5099    0.0669 H       1  UNL1        0.0637
     63 H          -1.7223   -3.6987   -0.5223 H       1  UNL1        0.1551
     64 H          -3.0818   -5.0180   -0.9933 H       1  UNL1        0.0663
     65 H          -2.7161   -6.8660   -1.7670 H       1  UNL1        0.0660
     66 H          -3.4537   -8.4327   -1.3430 H       1  UNL1        0.0660
     67 H          -3.3930   -7.1392   -0.1128 H       1  UNL1        0.0660
     68 H          -8.9765   -4.9123   -1.9140 H       1  UNL1        0.0660
     69 H          -9.1546   -6.3183   -3.0083 H       1  UNL1        0.0660
     70 H          -8.3807   -4.7838   -3.6289 H       1  UNL1        0.0660
     71 H          -7.4072   -3.2206   -2.3377 H       1  UNL1        0.0674
     72 H          -5.3492   -0.7274   -2.5935 H       1  UNL1        0.1552
     73 H          -5.4256    1.2562   -2.5093 H       1  UNL1        0.0837
     74 H          -6.4238    5.6570   -1.2926 H       1  UNL1        0.0639
     75 H          -7.4238    6.7754    0.6174 H       1  UNL1        0.0618
     76 H          -8.1969    5.3986    2.5367 H       1  UNL1        0.0618
     77 H          -7.9130    2.9036    2.4290 H       1  UNL1        0.0624
     78 H          -7.2121    0.8942    1.3213 H       1  UNL1        0.0632
     79 H          -1.7530    0.0991   -0.2004 H       1  UNL1        0.0637
     80 H           0.1635    1.3459    0.5085 H       1  UNL1        0.0637
     81 H           4.0028    0.3945    2.6267 H       1  UNL1        0.0476
     82 H           3.6361   -1.1757    1.8731 H       1  UNL1        0.0476
     83 H           4.9418   -0.8170    0.0323 H       1  UNL1        0.0442
     84 H           5.8432    0.1607    1.2944 H       1  UNL1        0.0442
     85 H           7.8002    0.2057   -0.1047 H       1  UNL1        0.0658
     86 H           9.0333   -1.0301    1.3724 H       1  UNL1        0.0660
     87 H           9.6732   -0.6244   -0.2826 H       1  UNL1        0.0660
     88 H          10.8334   -1.1255    1.0490 H       1  UNL1        0.0660
@<TRIPOS>BOND
     1     1     2    1
     2     2     3    1
     3     3     4   ar
     4     4     5   ar
     5     5     6   ar
     6     6     7    1
     7     7     8    1
     8     8     9    1
     9     9    10    1
    10    10    11    1
    11    11    12    1
    12    12    13   ar
    13    13    14   ar
    14    14    15   ar
    15    15    16    1
    16    16    17   am
    17    17    18    2
    18    17    19    1
    19    19    20   ar
    20    20    21   ar
    21    21    22    1
    22    22    23    1
    23    21    24   ar
    24    24    25    1
    25    25    26    1
    26    24    27   ar
    27    27    28   ar
    28    28    29    1
    29    29    30   am
    30    30    31    2
    31    30    32    1
    32    32    33   ar
    33    33    34   ar
    34    34    35   ar
    35    35    36   ar
    36    36    37   ar
    37    37    38   ar
    38    38    39   ar
    39    39    40   ar
    40    40    41   ar
    41    15    42   ar
    42    42    43   ar
    43    11    44    1
    44    44    45    1
    45     6    46   ar
    46    46    47   ar
    47    47    48    1
    48    48    49    1
    49    47     3   ar
    50    45     8    1
    51    43    12   ar
    52    28    19   ar
    53    41    32   ar
    54    40    35   ar
    55     1    50    1
    56     1    51    1
    57     1    52    1
    58     4    53    1
    59     5    54    1
    60     7    55    1
    61     7    56    1
    62     9    57    1
    63     9    58    1
    64    10    59    1
    65    10    60    1
    66    13    61    1
    67    14    62    1
    68    16    63    1
    69    20    64    1
    70    23    65    1
    71    23    66    1
    72    23    67    1
    73    26    68    1
    74    26    69    1
    75    26    70    1
    76    27    71    1
    77    29    72    1
    78    33    73    1
    79    36    74    1
    80    37    75    1
    81    38    76    1
    82    39    77    1
    83    41    78    1
    84    42    79    1
    85    43    80    1
    86    44    81    1
    87    44    82    1
    88    45    83    1
    89    45    84    1
    90    46    85    1
    91    49    86    1
    92    49    87    1
    93    49    88    1
