@<TRIPOS>MOLECULE
*****
 78 82 0 0 0
SMALL
GASTEIGER

@<TRIPOS>ATOM
      1 C          -2.8531   -5.6055    0.2070 C.3     1  UNL1        0.0833
      2 O          -3.4669   -4.3267    0.3968 O.3     1  UNL1       -0.4523
      3 C          -2.7219   -3.1698    0.5272 C.2     1  UNL1        0.4238
      4 O          -1.4728   -3.2372    0.4780 O.2     1  UNL1       -0.2242
      5 N          -3.3504   -1.9402    0.7114 N.am    1  UNL1       -0.1532
      6 N          -2.6722   -0.7132    0.8640 N.am    1  UNL1       -0.2206
      7 C          -2.3242    0.1062   -0.2305 C.2     1  UNL1        0.2617
      8 O          -2.6890   -0.3554   -1.3743 O.2     1  UNL1       -0.2686
      9 C          -1.6285    1.3733   -0.1850 C.ar    1  UNL1        0.0538
     10 C          -0.3911    1.5131    0.4117 C.ar    1  UNL1        0.0053
     11 C           0.3466    0.3432    0.8733 C.3     1  UNL1        0.0269
     12 N           0.8644   -0.4524   -0.2498 N.3     1  UNL1       -0.2957
     13 C           1.7281    0.2843   -1.1156 C.3     1  UNL1        0.0121
     14 C           3.1773    0.3289   -0.6438 C.3     1  UNL1        0.0122
     15 N           3.7780   -0.9521   -0.5526 N.3     1  UNL1       -0.2951
     16 C           4.9170   -1.1960   -1.3626 C.3     1  UNL1        0.0136
     17 C           4.6757   -1.0643   -2.8393 C.3     1  UNL1       -0.0471
     18 C           5.3516   -2.6459   -1.1072 C.3     1  UNL1       -0.0471
     19 C           6.1091   -0.3387   -1.0159 C.3     1  UNL1       -0.0471
     20 C           2.7829   -1.9754   -0.5535 C.3     1  UNL1        0.0122
     21 C           1.6733   -1.4992    0.3931 C.3     1  UNL1        0.0121
     22 C           0.1669    2.7569    0.4777 C.ar    1  UNL1        0.0769
     23 C           1.4612    2.9748    1.0990 C.ar    1  UNL1        0.0007
     24 C           2.4205    3.5949    0.2940 C.ar    1  UNL1       -0.0526
     25 C           3.6740    3.9155    0.7439 C.ar    1  UNL1       -0.0611
     26 C           3.9776    3.6022    2.0512 C.ar    1  UNL1       -0.0617
     27 C           3.0432    2.9917    2.8567 C.ar    1  UNL1       -0.0611
     28 C           1.7903    2.6772    2.3907 C.ar    1  UNL1       -0.0526
     29 N          -0.4879    3.8437   -0.0452 N.ar    1  UNL1       -0.2435
     30 C          -1.6862    3.6992   -0.6250 C.ar    1  UNL1        0.1075
     31 C          -2.3466    4.8158   -1.1494 C.ar    1  UNL1        0.1492
     32 F          -1.7005    6.0033   -1.0352 F       1  UNL1       -0.2032
     33 C          -3.5846    4.7046   -1.7471 C.ar    1  UNL1       -0.0243
     34 C          -4.2067    3.4820   -1.8433 C.ar    1  UNL1       -0.0583
     35 C          -3.5461    2.3653   -1.3190 C.ar    1  UNL1       -0.0517
     36 C          -2.3077    2.4798   -0.7225 C.ar    1  UNL1        0.0157
     37 C          -4.7673   -1.8709    0.7650 C.ar    1  UNL1        0.0593
     38 C          -5.3493   -1.9834    2.0008 C.ar    1  UNL1       -0.0385
     39 C          -6.7138   -1.9285    2.1294 C.ar    1  UNL1       -0.0599
     40 C          -7.5133   -1.7605    1.0251 C.ar    1  UNL1       -0.0616
     41 C          -6.9391   -1.6448   -0.2342 C.ar    1  UNL1       -0.0599
     42 C          -5.5738   -1.7032   -0.3333 C.ar    1  UNL1       -0.0385
     43 H          -1.7567   -5.4551    0.3811 H       1  UNL1        0.0661
     44 H          -3.0701   -5.9964   -0.7951 H       1  UNL1        0.0661
     45 H          -3.2204   -6.3227    0.9863 H       1  UNL1        0.0661
     46 H          -2.4491   -0.3926    1.8226 H       1  UNL1        0.1738
     47 H           1.2722    0.5673    1.4575 H       1  UNL1        0.0477
     48 H          -0.2607   -0.2866    1.5203 H       1  UNL1        0.0477
     49 H           1.7088   -0.1666   -2.1413 H       1  UNL1        0.0439
     50 H           1.4247    1.3393   -1.2731 H       1  UNL1        0.0439
     51 H           3.6958    1.0354   -1.3196 H       1  UNL1        0.0439
     52 H           3.1998    0.7884    0.3642 H       1  UNL1        0.0439
     53 H           4.1337   -1.9683   -3.2040 H       1  UNL1        0.0247
     54 H           5.6613   -1.0720   -3.3495 H       1  UNL1        0.0247
     55 H           4.0742   -0.1994   -3.1286 H       1  UNL1        0.0247
     56 H           6.4513   -2.7187   -1.2859 H       1  UNL1        0.0247
     57 H           5.1788   -2.9148   -0.0355 H       1  UNL1        0.0247
     58 H           4.7660   -3.3452   -1.7211 H       1  UNL1        0.0247
     59 H           6.1940   -0.1498    0.0716 H       1  UNL1        0.0247
     60 H           7.0161   -0.9046   -1.3139 H       1  UNL1        0.0247
     61 H           6.1341    0.6071   -1.6063 H       1  UNL1        0.0247
     62 H           2.3252   -2.1601   -1.5406 H       1  UNL1        0.0439
     63 H           3.1416   -2.9293   -0.1362 H       1  UNL1        0.0439
     64 H           2.2138   -1.0201    1.2542 H       1  UNL1        0.0439
     65 H           1.0856   -2.3154    0.8028 H       1  UNL1        0.0439
     66 H           2.1953    3.8502   -0.7450 H       1  UNL1        0.0624
     67 H           4.4171    4.4023    0.0999 H       1  UNL1        0.0618
     68 H           4.9626    3.8385    2.4513 H       1  UNL1        0.0618
     69 H           3.2740    2.7365    3.9033 H       1  UNL1        0.0618
     70 H           1.0368    2.2101    3.0314 H       1  UNL1        0.0624
     71 H          -4.0524    5.6110   -2.1387 H       1  UNL1        0.0647
     72 H          -5.1782    3.3867   -2.3107 H       1  UNL1        0.0619
     73 H          -4.0454    1.4288   -1.3956 H       1  UNL1        0.0624
     74 H          -4.7541   -2.1187    2.9159 H       1  UNL1        0.0637
     75 H          -7.1515   -2.0192    3.1102 H       1  UNL1        0.0618
     76 H          -8.5894   -1.7107    1.0706 H       1  UNL1        0.0618
     77 H          -7.5657   -1.5109   -1.1193 H       1  UNL1        0.0618
     78 H          -5.1139   -1.6171   -1.3002 H       1  UNL1        0.0637
@<TRIPOS>BOND
     1     1     2    1
     2     2     3    1
     3     3     4    2
     4     3     5   am
     5     5     6    1
     6     6     7   am
     7     7     8    2
     8     7     9    1
     9     9    10   ar
    10    10    11    1
    11    11    12    1
    12    12    13    1
    13    13    14    1
    14    14    15    1
    15    15    16    1
    16    16    17    1
    17    16    18    1
    18    16    19    1
    19    15    20    1
    20    20    21    1
    21    10    22   ar
    22    22    23    1
    23    23    24   ar
    24    24    25   ar
    25    25    26   ar
    26    26    27   ar
    27    27    28   ar
    28    22    29   ar
    29    29    30   ar
    30    30    31   ar
    31    31    32    1
    32    31    33   ar
    33    33    34   ar
    34    34    35   ar
    35    35    36   ar
    36     5    37    1
    37    37    38   ar
    38    38    39   ar
    39    39    40   ar
    40    40    41   ar
    41    41    42   ar
    42    36     9   ar
    43    42    37   ar
    44    21    12    1
    45    28    23   ar
    46    36    30   ar
    47     1    43    1
    48     1    44    1
    49     1    45    1
    50     6    46    1
    51    11    47    1
    52    11    48    1
    53    13    49    1
    54    13    50    1
    55    14    51    1
    56    14    52    1
    57    17    53    1
    58    17    54    1
    59    17    55    1
    60    18    56    1
    61    18    57    1
    62    18    58    1
    63    19    59    1
    64    19    60    1
    65    19    61    1
    66    20    62    1
    67    20    63    1
    68    21    64    1
    69    21    65    1
    70    24    66    1
    71    25    67    1
    72    26    68    1
    73    27    69    1
    74    28    70    1
    75    33    71    1
    76    34    72    1
    77    35    73    1
    78    38    74    1
    79    39    75    1
    80    40    76    1
    81    41    77    1
    82    42    78    1
