
     RDKit          3D

 78 82  0  0  0  0  0  0  0  0999 V2000
   -2.8531   -5.6055    0.2070 C   0  0  0  0  0  0  0  0  0  0  0  0
   -3.4669   -4.3267    0.3968 O   0  0  0  0  0  0  0  0  0  0  0  0
   -2.7219   -3.1698    0.5272 C   0  0  0  0  0  0  0  0  0  0  0  0
   -1.4728   -3.2372    0.4780 O   0  0  0  0  0  0  0  0  0  0  0  0
   -3.3504   -1.9402    0.7114 N   0  0  0  0  0  0  0  0  0  0  0  0
   -2.6722   -0.7132    0.8640 N   0  0  0  0  0  0  0  0  0  0  0  0
   -2.3242    0.1062   -0.2305 C   0  0  0  0  0  0  0  0  0  0  0  0
   -2.6890   -0.3554   -1.3743 O   0  0  0  0  0  0  0  0  0  0  0  0
   -1.6285    1.3733   -0.1850 C   0  0  0  0  0  0  0  0  0  0  0  0
   -0.3911    1.5131    0.4117 C   0  0  0  0  0  0  0  0  0  0  0  0
    0.3466    0.3432    0.8733 C   0  0  0  0  0  0  0  0  0  0  0  0
    0.8644   -0.4524   -0.2498 N   0  0  0  0  0  0  0  0  0  0  0  0
    1.7281    0.2843   -1.1156 C   0  0  0  0  0  0  0  0  0  0  0  0
    3.1773    0.3289   -0.6438 C   0  0  0  0  0  0  0  0  0  0  0  0
    3.7780   -0.9521   -0.5526 N   0  0  0  0  0  0  0  0  0  0  0  0
    4.9170   -1.1960   -1.3626 C   0  0  0  0  0  0  0  0  0  0  0  0
    4.6757   -1.0643   -2.8393 C   0  0  0  0  0  0  0  0  0  0  0  0
    5.3516   -2.6459   -1.1072 C   0  0  0  0  0  0  0  0  0  0  0  0
    6.1091   -0.3387   -1.0159 C   0  0  0  0  0  0  0  0  0  0  0  0
    2.7829   -1.9754   -0.5535 C   0  0  0  0  0  0  0  0  0  0  0  0
    1.6733   -1.4992    0.3931 C   0  0  0  0  0  0  0  0  0  0  0  0
    0.1669    2.7569    0.4777 C   0  0  0  0  0  0  0  0  0  0  0  0
    1.4612    2.9748    1.0990 C   0  0  0  0  0  0  0  0  0  0  0  0
    2.4205    3.5949    0.2940 C   0  0  0  0  0  0  0  0  0  0  0  0
    3.6740    3.9155    0.7439 C   0  0  0  0  0  0  0  0  0  0  0  0
    3.9776    3.6022    2.0512 C   0  0  0  0  0  0  0  0  0  0  0  0
    3.0432    2.9917    2.8567 C   0  0  0  0  0  0  0  0  0  0  0  0
    1.7903    2.6772    2.3907 C   0  0  0  0  0  0  0  0  0  0  0  0
   -0.4879    3.8437   -0.0452 N   0  0  0  0  0  0  0  0  0  0  0  0
   -1.6862    3.6992   -0.6250 C   0  0  0  0  0  0  0  0  0  0  0  0
   -2.3466    4.8158   -1.1494 C   0  0  0  0  0  0  0  0  0  0  0  0
   -1.7005    6.0033   -1.0352 F   0  0  0  0  0  0  0  0  0  0  0  0
   -3.5846    4.7046   -1.7471 C   0  0  0  0  0  0  0  0  0  0  0  0
   -4.2067    3.4820   -1.8433 C   0  0  0  0  0  0  0  0  0  0  0  0
   -3.5461    2.3653   -1.3190 C   0  0  0  0  0  0  0  0  0  0  0  0
   -2.3077    2.4798   -0.7225 C   0  0  0  0  0  0  0  0  0  0  0  0
   -4.7673   -1.8709    0.7650 C   0  0  0  0  0  0  0  0  0  0  0  0
   -5.3493   -1.9834    2.0008 C   0  0  0  0  0  0  0  0  0  0  0  0
   -6.7138   -1.9285    2.1294 C   0  0  0  0  0  0  0  0  0  0  0  0
   -7.5133   -1.7605    1.0251 C   0  0  0  0  0  0  0  0  0  0  0  0
   -6.9391   -1.6448   -0.2342 C   0  0  0  0  0  0  0  0  0  0  0  0
   -5.5738   -1.7032   -0.3333 C   0  0  0  0  0  0  0  0  0  0  0  0
   -1.7567   -5.4551    0.3811 H   0  0  0  0  0  0  0  0  0  0  0  0
   -3.0701   -5.9964   -0.7951 H   0  0  0  0  0  0  0  0  0  0  0  0
   -3.2204   -6.3227    0.9863 H   0  0  0  0  0  0  0  0  0  0  0  0
   -2.4491   -0.3926    1.8226 H   0  0  0  0  0  0  0  0  0  0  0  0
    1.2722    0.5673    1.4575 H   0  0  0  0  0  0  0  0  0  0  0  0
   -0.2607   -0.2866    1.5203 H   0  0  0  0  0  0  0  0  0  0  0  0
    1.7088   -0.1666   -2.1413 H   0  0  0  0  0  0  0  0  0  0  0  0
    1.4247    1.3393   -1.2731 H   0  0  0  0  0  0  0  0  0  0  0  0
    3.6958    1.0354   -1.3196 H   0  0  0  0  0  0  0  0  0  0  0  0
    3.1998    0.7884    0.3642 H   0  0  0  0  0  0  0  0  0  0  0  0
    4.1337   -1.9683   -3.2040 H   0  0  0  0  0  0  0  0  0  0  0  0
    5.6613   -1.0720   -3.3495 H   0  0  0  0  0  0  0  0  0  0  0  0
    4.0742   -0.1994   -3.1286 H   0  0  0  0  0  0  0  0  0  0  0  0
    6.4513   -2.7187   -1.2859 H   0  0  0  0  0  0  0  0  0  0  0  0
    5.1788   -2.9148   -0.0355 H   0  0  0  0  0  0  0  0  0  0  0  0
    4.7660   -3.3452   -1.7211 H   0  0  0  0  0  0  0  0  0  0  0  0
    6.1940   -0.1498    0.0716 H   0  0  0  0  0  0  0  0  0  0  0  0
    7.0161   -0.9046   -1.3139 H   0  0  0  0  0  0  0  0  0  0  0  0
    6.1341    0.6071   -1.6063 H   0  0  0  0  0  0  0  0  0  0  0  0
    2.3252   -2.1601   -1.5406 H   0  0  0  0  0  0  0  0  0  0  0  0
    3.1416   -2.9293   -0.1362 H   0  0  0  0  0  0  0  0  0  0  0  0
    2.2138   -1.0201    1.2542 H   0  0  0  0  0  0  0  0  0  0  0  0
    1.0856   -2.3154    0.8028 H   0  0  0  0  0  0  0  0  0  0  0  0
    2.1953    3.8502   -0.7450 H   0  0  0  0  0  0  0  0  0  0  0  0
    4.4171    4.4023    0.0999 H   0  0  0  0  0  0  0  0  0  0  0  0
    4.9626    3.8385    2.4513 H   0  0  0  0  0  0  0  0  0  0  0  0
    3.2740    2.7365    3.9033 H   0  0  0  0  0  0  0  0  0  0  0  0
    1.0368    2.2101    3.0314 H   0  0  0  0  0  0  0  0  0  0  0  0
   -4.0524    5.6110   -2.1387 H   0  0  0  0  0  0  0  0  0  0  0  0
   -5.1782    3.3867   -2.3107 H   0  0  0  0  0  0  0  0  0  0  0  0
   -4.0454    1.4288   -1.3956 H   0  0  0  0  0  0  0  0  0  0  0  0
   -4.7541   -2.1187    2.9159 H   0  0  0  0  0  0  0  0  0  0  0  0
   -7.1515   -2.0192    3.1102 H   0  0  0  0  0  0  0  0  0  0  0  0
   -8.5894   -1.7107    1.0706 H   0  0  0  0  0  0  0  0  0  0  0  0
   -7.5657   -1.5109   -1.1193 H   0  0  0  0  0  0  0  0  0  0  0  0
   -5.1139   -1.6171   -1.3002 H   0  0  0  0  0  0  0  0  0  0  0  0
  1  2  1  0
  2  3  1  0
  3  4  2  0
  3  5  1  0
  5  6  1  0
  6  7  1  0
  7  8  2  0
  7  9  1  0
  9 10  2  0
 10 11  1  0
 11 12  1  0
 12 13  1  0
 13 14  1  0
 14 15  1  0
 15 16  1  0
 16 17  1  0
 16 18  1  0
 16 19  1  0
 15 20  1  0
 20 21  1  0
 10 22  1  0
 22 23  1  0
 23 24  2  0
 24 25  1  0
 25 26  2  0
 26 27  1  0
 27 28  2  0
 22 29  2  0
 29 30  1  0
 30 31  2  0
 31 32  1  0
 31 33  1  0
 33 34  2  0
 34 35  1  0
 35 36  2  0
  5 37  1  0
 37 38  2  0
 38 39  1  0
 39 40  2  0
 40 41  1  0
 41 42  2  0
 36  9  1  0
 42 37  1  0
 21 12  1  0
 28 23  1  0
 36 30  1  0
  1 43  1  0
  1 44  1  0
  1 45  1  0
  6 46  1  0
 11 47  1  0
 11 48  1  0
 13 49  1  0
 13 50  1  0
 14 51  1  0
 14 52  1  0
 17 53  1  0
 17 54  1  0
 17 55  1  0
 18 56  1  0
 18 57  1  0
 18 58  1  0
 19 59  1  0
 19 60  1  0
 19 61  1  0
 20 62  1  0
 20 63  1  0
 21 64  1  0
 21 65  1  0
 24 66  1  0
 25 67  1  0
 26 68  1  0
 27 69  1  0
 28 70  1  0
 33 71  1  0
 34 72  1  0
 35 73  1  0
 38 74  1  0
 39 75  1  0
 40 76  1  0
 41 77  1  0
 42 78  1  0
M  END
$$$$
