
     RDKit          3D

 60 61  0  0  0  0  0  0  0  0999 V2000
   -5.6180   -0.0319   -0.3103 O   0  0  0  0  0  0  0  0  0  0  0  0
   -4.5377   -0.3735    0.1375 C   0  0  0  0  0  0  0  0  0  0  0  0
   -3.0949   -0.7337    0.4741 C   0  0  1  0  0  0  0  0  0  0  0  0
   -3.1686   -2.2104    0.7834 C   0  0  0  0  0  0  0  0  0  0  0  0
   -3.6801   -2.9958   -0.4166 C   0  0  0  0  0  0  0  0  0  0  0  0
   -4.2862   -2.3399    1.8307 C   0  0  0  0  0  0  0  0  0  0  0  0
   -2.3243   -0.3772   -0.7435 C   0  0  2  0  0  0  0  0  0  0  0  0
   -0.9246   -0.5778   -0.7521 N   0  0  0  0  0  0  0  0  0  0  0  0
   -0.7926   -0.1360   -2.1398 C   0  0  0  0  0  0  0  0  0  0  0  0
   -1.5488    1.2004   -2.2291 C   0  0  0  0  0  0  0  0  0  0  0  0
   -2.3813    1.1214   -0.9605 C   0  0  1  0  0  0  0  0  0  0  0  0
   -3.6585    1.6978   -1.0210 N   0  0  0  0  0  0  0  0  0  0  0  0
   -3.9895    3.0224   -0.0209 S   0  0  0  0  0  0  0  0  0  0  0  0
   -5.4351    3.4209   -0.2938 O   0  0  0  0  0  0  0  0  0  0  0  0
   -3.1783    4.2165   -0.4369 O   0  0  0  0  0  0  0  0  0  0  0  0
   -3.8741    2.7242    1.7033 C   0  0  0  0  0  0  0  0  0  0  0  0
    0.1374   -0.9897    0.0821 C   0  0  0  0  0  0  0  0  0  0  0  0
    0.0512   -1.3327    1.2857 O   0  0  0  0  0  0  0  0  0  0  0  0
    1.4961   -1.0449   -0.4456 C   0  0  0  0  0  0  0  0  0  0  0  0
    2.4993   -1.4291    0.3273 C   0  0  0  0  0  0  0  0  0  0  0  0
    3.9288   -1.5189   -0.1204 C   0  0  0  0  0  0  0  0  0  0  0  0
    4.7797   -0.6621    0.6543 N   0  0  0  0  0  0  0  0  0  0  0  0
    6.1563   -0.7343    0.2397 C   0  0  0  0  0  0  0  0  0  0  0  0
    6.9504    0.4805    0.6808 C   0  0  0  0  0  0  0  0  0  0  0  0
    6.4009    1.7592    0.0671 C   0  0  0  0  0  0  0  0  0  0  0  0
    4.9314    1.6357   -0.1881 C   0  0  0  0  0  0  0  0  0  0  0  0
    4.2585    0.6676    0.7526 C   0  0  0  0  0  0  0  0  0  0  0  0
   -5.4636   -0.4119    0.6559 H   0  0  0  0  0  0  0  0  0  0  0  0
   -2.8431   -0.1826    1.3684 H   0  0  0  0  0  0  0  0  0  0  0  0
   -2.2929   -2.6418    1.2599 H   0  0  0  0  0  0  0  0  0  0  0  0
   -4.0911   -2.3594   -1.2123 H   0  0  0  0  0  0  0  0  0  0  0  0
   -2.7879   -3.5694   -0.7907 H   0  0  0  0  0  0  0  0  0  0  0  0
   -4.4171   -3.7597   -0.1238 H   0  0  0  0  0  0  0  0  0  0  0  0
   -4.1163   -1.5215    2.5556 H   0  0  0  0  0  0  0  0  0  0  0  0
   -4.1239   -3.2959    2.3706 H   0  0  0  0  0  0  0  0  0  0  0  0
   -5.2815   -2.3193    1.3413 H   0  0  0  0  0  0  0  0  0  0  0  0
   -2.8362   -0.8143   -1.6593 H   0  0  0  0  0  0  0  0  0  0  0  0
   -1.2208   -0.8859   -2.8366 H   0  0  0  0  0  0  0  0  0  0  0  0
    0.2799    0.0439   -2.3226 H   0  0  0  0  0  0  0  0  0  0  0  0
   -2.1427    1.1478   -3.1448 H   0  0  0  0  0  0  0  0  0  0  0  0
   -0.8060    1.9956   -2.1969 H   0  0  0  0  0  0  0  0  0  0  0  0
   -1.7680    1.6568   -0.1885 H   0  0  0  0  0  0  0  0  0  0  0  0
   -4.1468    1.6873   -1.9185 H   0  0  0  0  0  0  0  0  0  0  0  0
   -4.4683    3.5034    2.2668 H   0  0  0  0  0  0  0  0  0  0  0  0
   -4.2907    1.7674    2.0433 H   0  0  0  0  0  0  0  0  0  0  0  0
   -2.8251    2.9086    2.0800 H   0  0  0  0  0  0  0  0  0  0  0  0
    1.8728   -0.8099   -1.4426 H   0  0  0  0  0  0  0  0  0  0  0  0
    2.3446   -1.7100    1.3600 H   0  0  0  0  0  0  0  0  0  0  0  0
    4.0003   -1.2049   -1.1778 H   0  0  0  0  0  0  0  0  0  0  0  0
    4.2606   -2.5570   -0.0137 H   0  0  0  0  0  0  0  0  0  0  0  0
    6.6772   -1.6258    0.6017 H   0  0  0  0  0  0  0  0  0  0  0  0
    6.1733   -0.7170   -0.8805 H   0  0  0  0  0  0  0  0  0  0  0  0
    7.9880    0.3103    0.3361 H   0  0  0  0  0  0  0  0  0  0  0  0
    7.0031    0.5631    1.7862 H   0  0  0  0  0  0  0  0  0  0  0  0
    6.6258    2.6141    0.7623 H   0  0  0  0  0  0  0  0  0  0  0  0
    6.9379    1.9925   -0.8829 H   0  0  0  0  0  0  0  0  0  0  0  0
    4.6884    1.3971   -1.2337 H   0  0  0  0  0  0  0  0  0  0  0  0
    4.4773    2.6374    0.0395 H   0  0  0  0  0  0  0  0  0  0  0  0
    3.1834    0.6601    0.4777 H   0  0  0  0  0  0  0  0  0  0  0  0
    4.3123    1.0418    1.7805 H   0  0  0  0  0  0  0  0  0  0  0  0
  1  2  2  0
  2  3  1  0
  3  4  1  0
  4  5  1  0
  4  6  1  0
  3  7  1  0
  7  8  1  0
  8  9  1  0
  9 10  1  0
 10 11  1  0
 11 12  1  0
 12 13  1  0
 13 14  2  0
 13 15  2  0
 13 16  1  0
  8 17  1  0
 17 18  2  0
 17 19  1  0
 19 20  2  0
 20 21  1  0
 21 22  1  0
 22 23  1  0
 23 24  1  0
 24 25  1  0
 25 26  1  0
 26 27  1  0
 11  7  1  0
 27 22  1  0
  2 28  1  0
  3 29  1  1
  4 30  1  0
  5 31  1  0
  5 32  1  0
  5 33  1  0
  6 34  1  0
  6 35  1  0
  6 36  1  0
  7 37  1  6
  9 38  1  0
  9 39  1  0
 10 40  1  0
 10 41  1  0
 11 42  1  1
 12 43  1  0
 16 44  1  0
 16 45  1  0
 16 46  1  0
 19 47  1  0
 20 48  1  0
 21 49  1  0
 21 50  1  0
 23 51  1  0
 23 52  1  0
 24 53  1  0
 24 54  1  0
 25 55  1  0
 25 56  1  0
 26 57  1  0
 26 58  1  0
 27 59  1  0
 27 60  1  0
M  END
$$$$
