@<TRIPOS>MOLECULE
*****
 41 44 0 0 0
SMALL
GASTEIGER

@<TRIPOS>ATOM
      1 N           7.2222    0.2890   -0.1365 N.am    1  UNL1       -0.3253
      2 C           5.8612    0.6341   -0.0613 C.2     1  UNL1        0.2416
      3 O           5.5900    1.8175   -0.2842 O.2     1  UNL1       -0.2704
      4 C           4.9229   -0.4165    0.2655 C.ar    1  UNL1        0.0382
      5 C           3.5760   -0.1452    0.3715 C.ar    1  UNL1       -0.0284
      6 C           2.5831   -1.0417    0.6756 C.ar    1  UNL1        0.0343
      7 N           1.2100   -0.7628    0.7801 N.pl3   1  UNL1       -0.2836
      8 C           0.5379    0.4545    0.5250 C.ar    1  UNL1        0.2212
      9 N          -0.7992    0.5663    0.7169 N.ar    1  UNL1       -0.1992
     10 C          -1.5051    1.6777    0.4900 C.ar    1  UNL1        0.1281
     11 N          -2.9036    1.5280    0.7825 N.pl3   1  UNL1       -0.2952
     12 C          -3.9396    1.0059   -0.0418 C.ar    1  UNL1        0.0970
     13 C          -4.7012    1.6958   -0.9649 C.ar    1  UNL1        0.0659
     14 CL         -4.3331    3.4062   -1.1305 Cl      1  UNL1       -0.0815
     15 C          -5.6819    1.0526   -1.6988 C.ar    1  UNL1       -0.0379
     16 C          -5.9089   -0.3120   -1.5074 C.ar    1  UNL1       -0.0146
     17 C          -5.1391   -0.9858   -0.5814 C.ar    1  UNL1        0.1682
     18 C          -4.1415   -0.3608    0.1741 C.ar    1  UNL1        0.1887
     19 O          -3.5897   -1.3573    0.9914 O.3     1  UNL1       -0.4507
     20 C          -4.5842   -2.3882    1.1083 C.3     1  UNL1        0.2333
     21 O          -5.1576   -2.3325   -0.1975 O.3     1  UNL1       -0.4525
     22 C          -0.8772    2.8068    0.0308 C.ar    1  UNL1       -0.0033
     23 C           0.4759    2.7313   -0.1753 C.ar    1  UNL1        0.0344
     24 N           1.1110    1.5796    0.0767 N.ar    1  UNL1       -0.2225
     25 C           3.0386   -2.3250    0.8854 C.ar    1  UNL1       -0.0404
     26 C           4.3653   -2.6767    0.7985 C.ar    1  UNL1       -0.0593
     27 C           5.3070   -1.7199    0.4879 C.ar    1  UNL1       -0.0495
     28 H           8.2143    0.0821   -0.0390 H       1  UNL1        0.1453
     29 H           7.8580    0.3847    0.7070 H       1  UNL1        0.1453
     30 H           3.3221    0.8843    0.1893 H       1  UNL1        0.0644
     31 H           0.5812   -1.5625    1.0885 H       1  UNL1        0.1550
     32 H          -2.9194    1.9081    1.7557 H       1  UNL1        0.1537
     33 H          -6.2572    1.6345   -2.4130 H       1  UNL1        0.0634
     34 H          -6.6750   -0.7879   -2.0882 H       1  UNL1        0.0656
     35 H          -5.3539   -2.0742    1.8354 H       1  UNL1        0.1166
     36 H          -4.1543   -3.3557    1.3657 H       1  UNL1        0.1166
     37 H          -1.5036    3.6616   -0.1295 H       1  UNL1        0.0667
     38 H           0.9821    3.6178   -0.5399 H       1  UNL1        0.0832
     39 H           2.3452   -3.1191    1.1313 H       1  UNL1        0.0636
     40 H           4.6644   -3.7124    0.9758 H       1  UNL1        0.0618
     41 H           6.3569   -1.9822    0.4178 H       1  UNL1        0.0625
@<TRIPOS>BOND
     1     1     2   am
     2     2     3    2
     3     2     4    1
     4     4     5   ar
     5     5     6   ar
     6     6     7    1
     7     7     8    1
     8     8     9   ar
     9     9    10   ar
    10    10    11    1
    11    11    12    1
    12    12    13   ar
    13    13    14    1
    14    13    15   ar
    15    15    16   ar
    16    16    17   ar
    17    17    18   ar
    18    18    19    1
    19    19    20    1
    20    20    21    1
    21    10    22   ar
    22    22    23   ar
    23    23    24   ar
    24     6    25   ar
    25    25    26   ar
    26    26    27   ar
    27    27     4   ar
    28    24     8   ar
    29    18    12   ar
    30    21    17    1
    31     1    28    1
    32     1    29    1
    33     5    30    1
    34     7    31    1
    35    11    32    1
    36    15    33    1
    37    16    34    1
    38    20    35    1
    39    20    36    1
    40    22    37    1
    41    23    38    1
    42    25    39    1
    43    26    40    1
    44    27    41    1
