@<TRIPOS>MOLECULE
*****
 44 47 0 0 0
SMALL
GASTEIGER

@<TRIPOS>ATOM
      1 C           6.5425    2.6032    1.5037 C.3     1  UNL1        0.0005
      2 N           5.8345    1.4892    0.9278 N.am    1  UNL1       -0.3118
      3 C           4.4193    1.4631    0.9948 C.2     1  UNL1        0.2828
      4 O           3.8367    2.4202    1.5580 O.2     1  UNL1       -0.2667
      5 C           3.6586    0.3477    0.4212 C.ar    1  UNL1        0.2368
      6 N           2.3432    0.2668    0.4524 N.ar    1  UNL1       -0.2010
      7 C           1.9845   -0.9082   -0.1744 C.ar    1  UNL1        0.1809
      8 C           0.5785   -1.2516   -0.3926 C.ar    1  UNL1        0.1476
      9 N          -0.3157   -0.2207   -0.1754 N.ar    1  UNL1       -0.2368
     10 C          -1.6103   -0.2444   -0.4336 C.ar    1  UNL1        0.1110
     11 C          -2.4370    0.9405   -0.1834 C.ar    1  UNL1        0.0932
     12 C          -2.1582    2.2156   -0.6908 C.ar    1  UNL1        0.0559
     13 N          -3.0797    3.0848   -0.2598 N.ar    1  UNL1       -0.2354
     14 C          -3.9461    2.3798    0.5196 C.ar    1  UNL1        0.1380
     15 C          -5.0619    2.8028    1.2082 C.ar    1  UNL1       -0.0188
     16 C          -5.7853    1.8951    1.9515 C.ar    1  UNL1       -0.0569
     17 C          -5.3777    0.5870    1.9902 C.ar    1  UNL1       -0.0450
     18 C          -4.2537    0.2158    1.2824 C.ar    1  UNL1        0.0118
     19 N          -3.5432    1.0903    0.5549 N.ar    1  UNL1       -0.2979
     20 C          -2.1337   -1.4022   -0.9722 C.ar    1  UNL1        0.0677
     21 C          -3.5589   -1.5503   -1.3441 C.3     1  UNL1       -0.0202
     22 N          -1.3171   -2.4402   -1.2032 N.ar    1  UNL1       -0.2332
     23 C           0.0365   -2.3563   -0.9081 C.ar    1  UNL1        0.1458
     24 N           0.7396   -3.5713   -1.0796 N.pl3   1  UNL1       -0.3414
     25 N           3.0788   -1.5089   -0.5732 N.ar    1  UNL1       -0.2461
     26 C           3.3461   -2.6954   -1.3375 C.3     1  UNL1        0.0326
     27 N           4.1184   -0.7155   -0.1932 N.ar    1  UNL1       -0.1446
     28 H           6.1225    3.5572    1.0896 H       1  UNL1        0.0426
     29 H           6.3721    2.6690    2.6088 H       1  UNL1        0.0426
     30 H           7.6216    2.5797    1.3050 H       1  UNL1        0.0426
     31 H           6.3115    0.6796    0.4523 H       1  UNL1        0.1488
     32 H          -1.3072    2.4171   -1.3350 H       1  UNL1        0.0852
     33 H          -5.3623    3.8601    1.1565 H       1  UNL1        0.0654
     34 H          -6.6661    2.2507    2.4892 H       1  UNL1        0.0619
     35 H          -5.9495   -0.1395    2.5807 H       1  UNL1        0.0632
     36 H          -3.9451   -0.8194    1.3430 H       1  UNL1        0.0813
     37 H          -4.0455   -2.2075   -0.5973 H       1  UNL1        0.0293
     38 H          -3.5907   -2.1319   -2.3118 H       1  UNL1        0.0293
     39 H          -4.0858   -0.5935   -1.4845 H       1  UNL1        0.0293
     40 H           1.1194   -4.1280   -0.2759 H       1  UNL1        0.1438
     41 H           0.8751   -3.9537   -2.0290 H       1  UNL1        0.1438
     42 H           4.4650   -2.6210   -1.6699 H       1  UNL1        0.0473
     43 H           3.3159   -3.6449   -0.8140 H       1  UNL1        0.0473
     44 H           2.8101   -2.7108   -2.2979 H       1  UNL1        0.0473
@<TRIPOS>BOND
     1     1     2    1
     2     2     3   am
     3     3     4    2
     4     3     5    1
     5     5     6   ar
     6     6     7   ar
     7     7     8    1
     8     8     9   ar
     9     9    10   ar
    10    10    11    1
    11    11    12   ar
    12    12    13   ar
    13    13    14   ar
    14    14    15   ar
    15    15    16   ar
    16    16    17   ar
    17    17    18   ar
    18    18    19   ar
    19    10    20   ar
    20    20    21    1
    21    20    22   ar
    22    22    23   ar
    23    23    24    1
    24     7    25   ar
    25    25    26    1
    26    25    27   ar
    27    27     5   ar
    28    23     8   ar
    29    19    11   ar
    30    19    14   ar
    31     1    28    1
    32     1    29    1
    33     1    30    1
    34     2    31    1
    35    12    32    1
    36    15    33    1
    37    16    34    1
    38    17    35    1
    39    18    36    1
    40    21    37    1
    41    21    38    1
    42    21    39    1
    43    24    40    1
    44    24    41    1
    45    26    42    1
    46    26    43    1
    47    26    44    1
