
     RDKit          3D

 49 53  0  0  0  0  0  0  0  0999 V2000
   -1.7894   -2.9642    0.3640 C   0  0  0  0  0  0  0  0  0  0  0  0
   -2.1035   -1.7225    1.1735 C   0  0  2  0  0  0  0  0  0  0  0  0
   -3.3315   -2.0526    1.9964 C   0  0  0  0  0  0  0  0  0  0  0  0
   -4.5720   -1.8486    1.2083 C   0  0  0  0  0  0  0  0  0  0  0  0
   -4.3885   -1.7319   -0.2611 C   0  0  0  0  0  0  0  0  0  0  0  0
   -3.3271   -0.9909   -0.6758 O   0  0  0  0  0  0  0  0  0  0  0  0
   -2.4719   -0.5362    0.3157 C   0  0  2  0  0  0  0  0  0  0  0  0
   -1.3265    0.1758   -0.3068 C   0  0  1  0  0  0  0  0  0  0  0  0
   -1.2682   -0.0270   -1.8093 C   0  0  0  0  0  0  0  0  0  0  0  0
   -1.8693    1.1450   -2.3053 O   0  0  0  0  0  0  0  0  0  0  0  0
   -1.8728    2.1204   -1.3305 C   0  0  0  0  0  0  0  0  0  0  0  0
   -2.1614    3.5117   -1.5002 N   0  0  0  0  0  0  0  0  0  0  0  0
   -1.5720    1.6235   -0.1818 N   0  0  0  0  0  0  0  0  0  0  0  0
   -0.0099   -0.0441    0.3240 C   0  0  0  0  0  0  0  0  0  0  0  0
    1.1255    0.5517   -0.2423 C   0  0  0  0  0  0  0  0  0  0  0  0
    2.3549    0.3448    0.3456 C   0  0  0  0  0  0  0  0  0  0  0  0
    3.5124    0.9993   -0.2959 C   0  0  0  0  0  0  0  0  0  0  0  0
    3.5904    1.2207   -1.6456 C   0  0  0  0  0  0  0  0  0  0  0  0
    4.6957    1.8354   -2.1915 C   0  0  0  0  0  0  0  0  0  0  0  0
    5.7681    2.2543   -1.4132 C   0  0  0  0  0  0  0  0  0  0  0  0
    5.6770    2.0256   -0.0561 C   0  0  0  0  0  0  0  0  0  0  0  0
    6.7663    2.4438    0.7796 C   0  0  0  0  0  0  0  0  0  0  0  0
    7.6579    2.7647    1.4557 N   0  0  0  0  0  0  0  0  0  0  0  0
    4.5690    1.4098    0.4881 C   0  0  0  0  0  0  0  0  0  0  0  0
    2.5060   -0.4280    1.4714 C   0  0  0  0  0  0  0  0  0  0  0  0
    1.3833   -1.0012    2.0094 C   0  0  0  0  0  0  0  0  0  0  0  0
    0.1092   -0.8157    1.4411 C   0  0  0  0  0  0  0  0  0  0  0  0
   -1.0018   -1.4013    2.0010 O   0  0  0  0  0  0  0  0  0  0  0  0
   -1.9812   -2.8563   -0.7029 H   0  0  0  0  0  0  0  0  0  0  0  0
   -0.6900   -3.1926    0.4722 H   0  0  0  0  0  0  0  0  0  0  0  0
   -2.2893   -3.8779    0.7989 H   0  0  0  0  0  0  0  0  0  0  0  0
   -3.3411   -1.3440    2.8540 H   0  0  0  0  0  0  0  0  0  0  0  0
   -3.2529   -3.0687    2.4529 H   0  0  0  0  0  0  0  0  0  0  0  0
   -5.2467   -2.7280    1.3957 H   0  0  0  0  0  0  0  0  0  0  0  0
   -5.1743   -0.9613    1.5591 H   0  0  0  0  0  0  0  0  0  0  0  0
   -5.3201   -1.2447   -0.6757 H   0  0  0  0  0  0  0  0  0  0  0  0
   -4.3763   -2.7376   -0.7777 H   0  0  0  0  0  0  0  0  0  0  0  0
   -3.0912    0.1676    0.9472 H   0  0  0  0  0  0  0  0  0  0  0  0
   -0.2077   -0.0656   -2.1076 H   0  0  0  0  0  0  0  0  0  0  0  0
   -1.8293   -0.9335   -2.1193 H   0  0  0  0  0  0  0  0  0  0  0  0
   -1.8298    4.0738   -2.3118 H   0  0  0  0  0  0  0  0  0  0  0  0
   -2.7336    3.9907   -0.7741 H   0  0  0  0  0  0  0  0  0  0  0  0
    1.0484    1.1710   -1.1283 H   0  0  0  0  0  0  0  0  0  0  0  0
    2.7654    0.8999   -2.2595 H   0  0  0  0  0  0  0  0  0  0  0  0
    4.7861    2.0244   -3.2610 H   0  0  0  0  0  0  0  0  0  0  0  0
    6.6357    2.7391   -1.8587 H   0  0  0  0  0  0  0  0  0  0  0  0
    4.5456    1.2527    1.5603 H   0  0  0  0  0  0  0  0  0  0  0  0
    3.4730   -0.5600    1.8903 H   0  0  0  0  0  0  0  0  0  0  0  0
    1.4597   -1.6111    2.8876 H   0  0  0  0  0  0  0  0  0  0  0  0
  2  1  1  6
  2  3  1  0
  3  4  1  0
  4  5  1  0
  5  6  1  0
  6  7  1  0
  7  8  1  0
  8  9  1  6
  9 10  1  0
 10 11  1  0
 11 12  1  0
 11 13  2  0
  8 14  1  0
 14 15  2  0
 15 16  1  0
 16 17  1  0
 17 18  2  0
 18 19  1  0
 19 20  2  0
 20 21  1  0
 21 22  1  0
 22 23  3  0
 21 24  2  0
 16 25  2  0
 25 26  1  0
 26 27  2  0
 27 28  1  0
  7  2  1  0
 13  8  1  0
 27 14  1  0
 28  2  1  0
 24 17  1  0
  1 29  1  0
  1 30  1  0
  1 31  1  0
  3 32  1  0
  3 33  1  0
  4 34  1  0
  4 35  1  0
  5 36  1  0
  5 37  1  0
  7 38  1  1
  9 39  1  0
  9 40  1  0
 12 41  1  0
 12 42  1  0
 15 43  1  0
 18 44  1  0
 19 45  1  0
 20 46  1  0
 24 47  1  0
 25 48  1  0
 26 49  1  0
M  END
$$$$
