@<TRIPOS>MOLECULE
*****
 49 53 0 0 0
SMALL
GASTEIGER

@<TRIPOS>ATOM
      1 C          -1.7894   -2.9642    0.3640 C.3     1  UNL1       -0.0223
      2 C          -2.1035   -1.7225    1.1735 C.3     1  UNL1        0.1365
      3 C          -3.3315   -2.0526    1.9964 C.3     1  UNL1       -0.0085
      4 C          -4.5720   -1.8486    1.2083 C.3     1  UNL1       -0.0258
      5 C          -4.3885   -1.7319   -0.2611 C.3     1  UNL1        0.0484
      6 O          -3.3271   -0.9909   -0.6758 O.3     1  UNL1       -0.3697
      7 C          -2.4719   -0.5362    0.3157 C.3     1  UNL1        0.1304
      8 C          -1.3265    0.1758   -0.3068 C.3     1  UNL1        0.1583
      9 C          -1.2682   -0.0270   -1.8093 C.3     1  UNL1        0.1244
     10 O          -1.8693    1.1450   -2.3053 O.2     1  UNL1       -0.4630
     11 C          -1.8728    2.1204   -1.3305 C.2     1  UNL1        0.2762
     12 N          -2.1614    3.5117   -1.5002 N.pl3   1  UNL1       -0.3134
     13 N          -1.5720    1.6235   -0.1818 N.2     1  UNL1       -0.2193
     14 C          -0.0099   -0.0441    0.3240 C.ar    1  UNL1        0.0282
     15 C           1.1255    0.5517   -0.2423 C.ar    1  UNL1       -0.0449
     16 C           2.3549    0.3448    0.3456 C.ar    1  UNL1       -0.0173
     17 C           3.5124    0.9993   -0.2959 C.ar    1  UNL1       -0.0167
     18 C           3.5904    1.2207   -1.6456 C.ar    1  UNL1       -0.0540
     19 C           4.6957    1.8354   -2.1915 C.ar    1  UNL1       -0.0600
     20 C           5.7681    2.2543   -1.4132 C.ar    1  UNL1       -0.0443
     21 C           5.6770    2.0256   -0.0561 C.ar    1  UNL1        0.0523
     22 C           6.7663    2.4438    0.7796 C.1     1  UNL1        0.0992
     23 N           7.6579    2.7647    1.4557 N.1     1  UNL1       -0.1909
     24 C           4.5690    1.4098    0.4881 C.ar    1  UNL1       -0.0366
     25 C           2.5060   -0.4280    1.4714 C.ar    1  UNL1       -0.0506
     26 C           1.3833   -1.0012    2.0094 C.ar    1  UNL1       -0.0190
     27 C           0.1092   -0.8157    1.4411 C.ar    1  UNL1        0.1271
     28 O          -1.0018   -1.4013    2.0010 O.3     1  UNL1       -0.4829
     29 H          -1.9812   -2.8563   -0.7029 H       1  UNL1        0.0269
     30 H          -0.6900   -3.1926    0.4722 H       1  UNL1        0.0269
     31 H          -2.2893   -3.8779    0.7989 H       1  UNL1        0.0269
     32 H          -3.3411   -1.3440    2.8540 H       1  UNL1        0.0305
     33 H          -3.2529   -3.0687    2.4529 H       1  UNL1        0.0305
     34 H          -5.2467   -2.7280    1.3957 H       1  UNL1        0.0289
     35 H          -5.1743   -0.9613    1.5591 H       1  UNL1        0.0289
     36 H          -5.3201   -1.2447   -0.6757 H       1  UNL1        0.0560
     37 H          -4.3763   -2.7376   -0.7777 H       1  UNL1        0.0560
     38 H          -3.0912    0.1676    0.9472 H       1  UNL1        0.0665
     39 H          -0.2077   -0.0656   -2.1076 H       1  UNL1        0.0726
     40 H          -1.8293   -0.9335   -2.1193 H       1  UNL1        0.0726
     41 H          -1.8298    4.0738   -2.3118 H       1  UNL1        0.1466
     42 H          -2.7336    3.9907   -0.7741 H       1  UNL1        0.1466
     43 H           1.0484    1.1710   -1.1283 H       1  UNL1        0.0628
     44 H           2.7654    0.8999   -2.2595 H       1  UNL1        0.0624
     45 H           4.7861    2.0244   -3.2610 H       1  UNL1        0.0618
     46 H           6.6357    2.7391   -1.8587 H       1  UNL1        0.0630
     47 H           4.5456    1.2527    1.5603 H       1  UNL1        0.0636
     48 H           3.4730   -0.5600    1.8903 H       1  UNL1        0.0625
     49 H           1.4597   -1.6111    2.8876 H       1  UNL1        0.0654
@<TRIPOS>BOND
     1     2     1    1
     2     2     3    1
     3     3     4    1
     4     4     5    1
     5     5     6    1
     6     6     7    1
     7     7     8    1
     8     8     9    1
     9     9    10    1
    10    10    11    1
    11    11    12    1
    12    11    13    2
    13     8    14    1
    14    14    15   ar
    15    15    16   ar
    16    16    17    1
    17    17    18   ar
    18    18    19   ar
    19    19    20   ar
    20    20    21   ar
    21    21    22    1
    22    22    23    3
    23    21    24   ar
    24    16    25   ar
    25    25    26   ar
    26    26    27   ar
    27    27    28    1
    28     7     2    1
    29    13     8    1
    30    27    14   ar
    31    28     2    1
    32    24    17   ar
    33     1    29    1
    34     1    30    1
    35     1    31    1
    36     3    32    1
    37     3    33    1
    38     4    34    1
    39     4    35    1
    40     5    36    1
    41     5    37    1
    42     7    38    1
    43     9    39    1
    44     9    40    1
    45    12    41    1
    46    12    42    1
    47    15    43    1
    48    18    44    1
    49    19    45    1
    50    20    46    1
    51    24    47    1
    52    25    48    1
    53    26    49    1
