@<TRIPOS>MOLECULE
*****
 48 52 0 0 0
SMALL
GASTEIGER

@<TRIPOS>ATOM
      1 C          -4.8539   -3.0059    1.6141 C.3     1  UNL1       -0.0223
      2 C          -4.0556   -2.3128    0.5624 C.ar    1  UNL1        0.0390
      3 C          -4.6167   -2.2414   -0.6928 C.ar    1  UNL1       -0.0406
      4 C          -3.9064   -1.6081   -1.6871 C.ar    1  UNL1       -0.0580
      5 C          -2.6733   -1.0822   -1.3660 C.ar    1  UNL1       -0.0342
      6 C          -2.1154   -1.1553   -0.1103 C.ar    1  UNL1        0.0895
      7 C          -0.8112   -0.5764    0.1477 C.ar    1  UNL1        0.0926
      8 N           0.3276   -1.1943    0.5298 N.ar    1  UNL1       -0.3389
      9 C           1.3080   -0.2860    0.6574 C.ar    1  UNL1        0.1254
     10 C           2.7244   -0.4503    1.0476 C.3     1  UNL1        0.0673
     11 N           3.5931   -0.6885   -0.0569 N.pl3   1  UNL1       -0.3345
     12 C           4.9826   -0.8651    0.1719 C.ar    1  UNL1        0.0631
     13 C           5.5233   -0.8110    1.4541 C.ar    1  UNL1       -0.0380
     14 C           6.8673   -0.9784    1.7058 C.ar    1  UNL1       -0.0598
     15 C           7.7174   -1.2092    0.6486 C.ar    1  UNL1       -0.0589
     16 C           7.2163   -1.2709   -0.6526 C.ar    1  UNL1       -0.0246
     17 C           5.8651   -1.0986   -0.8653 C.ar    1  UNL1        0.1441
     18 F           5.3786   -1.1567   -2.1107 F       1  UNL1       -0.2036
     19 N           0.7642    0.9060    0.3497 N.ar    1  UNL1       -0.2302
     20 C          -0.5282    0.7688    0.0333 C.ar    1  UNL1        0.0998
     21 C          -1.4152    1.8659   -0.3506 C.ar    1  UNL1        0.0208
     22 C          -1.1320    2.6109   -1.4766 C.ar    1  UNL1       -0.0475
     23 C          -1.9242    3.6538   -1.8915 C.ar    1  UNL1       -0.0167
     24 C          -3.0408    3.9385   -1.1250 C.ar    1  UNL1        0.1557
     25 N          -3.9584    4.8986   -1.3232 N.ar    1  UNL1       -0.2149
     26 C          -4.8413    4.7775   -0.3225 C.ar    1  UNL1        0.1390
     27 N          -4.4485    3.7589    0.4550 N.ar    1  UNL1       -0.1535
     28 N          -3.3354    3.2216   -0.0199 N.ar    1  UNL1       -0.2198
     29 C          -2.5386    2.1925    0.3747 C.ar    1  UNL1        0.0407
     30 N          -2.8487   -1.7850    0.8301 N.ar    1  UNL1       -0.2503
     31 H          -4.7199   -4.0974    1.6045 H       1  UNL1        0.0292
     32 H          -4.5831   -2.6453    2.6144 H       1  UNL1        0.0292
     33 H          -5.9296   -2.7534    1.4435 H       1  UNL1        0.0292
     34 H          -5.5987   -2.6665   -0.9257 H       1  UNL1        0.0635
     35 H          -4.2698   -1.5044   -2.7054 H       1  UNL1        0.0619
     36 H          -2.0702   -0.5672   -2.1294 H       1  UNL1        0.0639
     37 H           0.4441   -2.2320    0.7052 H       1  UNL1        0.1672
     38 H           3.0939    0.4318    1.6369 H       1  UNL1        0.0541
     39 H           2.7682   -1.3054    1.7563 H       1  UNL1        0.0541
     40 H           3.2310   -0.7351   -1.0228 H       1  UNL1        0.1466
     41 H           4.8385   -0.6296    2.2622 H       1  UNL1        0.0637
     42 H           7.2947   -0.9379    2.6985 H       1  UNL1        0.0618
     43 H           8.7839   -1.3453    0.8143 H       1  UNL1        0.0618
     44 H           7.8885   -1.4532   -1.4842 H       1  UNL1        0.0647
     45 H          -0.2491    2.3706   -2.0652 H       1  UNL1        0.0626
     46 H          -1.6540    4.1956   -2.7732 H       1  UNL1        0.0655
     47 H          -5.7077    5.4303   -0.2204 H       1  UNL1        0.1066
     48 H          -2.7843    1.6275    1.2591 H       1  UNL1        0.0837
@<TRIPOS>BOND
     1     1     2    1
     2     2     3   ar
     3     3     4   ar
     4     4     5   ar
     5     5     6   ar
     6     6     7    1
     7     7     8   ar
     8     8     9   ar
     9     9    10    1
    10    10    11    1
    11    11    12    1
    12    12    13   ar
    13    13    14   ar
    14    14    15   ar
    15    15    16   ar
    16    16    17   ar
    17    17    18    1
    18     9    19   ar
    19    19    20   ar
    20    20    21    1
    21    21    22   ar
    22    22    23   ar
    23    23    24   ar
    24    24    25   ar
    25    25    26   ar
    26    26    27   ar
    27    27    28   ar
    28    28    29   ar
    29     6    30   ar
    30    30     2   ar
    31    20     7   ar
    32    29    21   ar
    33    17    12   ar
    34    28    24   ar
    35     1    31    1
    36     1    32    1
    37     1    33    1
    38     3    34    1
    39     4    35    1
    40     5    36    1
    41     8    37    1
    42    10    38    1
    43    10    39    1
    44    11    40    1
    45    13    41    1
    46    14    42    1
    47    15    43    1
    48    16    44    1
    49    22    45    1
    50    23    46    1
    51    26    47    1
    52    29    48    1
