@<TRIPOS>MOLECULE
*****
 47 50 0 0 0
SMALL
GASTEIGER

@<TRIPOS>ATOM
      1 C           0.6642   -4.1718   -2.2518 C.3     1  UNL1       -0.0380
      2 C          -0.2910   -3.2553   -1.6147 C.ar    1  UNL1       -0.0291
      3 C          -1.6348   -3.2052   -1.9369 C.ar    1  UNL1       -0.0553
      4 C          -2.5382   -2.3475   -1.3434 C.ar    1  UNL1       -0.0401
      5 C          -2.1093   -1.4704   -0.3623 C.ar    1  UNL1        0.0354
      6 N          -3.0567   -0.6126    0.2191 N.am    1  UNL1       -0.2814
      7 C          -3.3627    0.6900   -0.2834 C.2     1  UNL1        0.2497
      8 O          -2.6817    0.9856   -1.3153 O.2     1  UNL1       -0.2698
      9 C          -4.3545    1.5764    0.3330 C.ar    1  UNL1        0.0551
     10 C          -5.1011    1.2695    1.4538 C.ar    1  UNL1       -0.0467
     11 C          -5.9958    2.2098    1.9148 C.ar    1  UNL1       -0.0429
     12 C          -6.1552    3.4334    1.2849 C.ar    1  UNL1        0.0276
     13 N          -5.4018    3.6927    0.1879 N.ar    1  UNL1       -0.2625
     14 C          -4.5223    2.7998   -0.2865 C.ar    1  UNL1        0.0397
     15 C          -0.7644   -1.5128   -0.0321 C.ar    1  UNL1       -0.0190
     16 C           0.1089   -2.3811   -0.6445 C.ar    1  UNL1        0.0383
     17 N           1.4700   -2.3683   -0.2564 N.pl3   1  UNL1       -0.2833
     18 C           2.2557   -1.6496    0.6689 C.ar    1  UNL1        0.2200
     19 N           2.4082   -2.1157    1.9209 N.ar    1  UNL1       -0.2226
     20 C           3.1526   -1.4421    2.8107 C.ar    1  UNL1        0.0332
     21 C           3.7427   -0.2777    2.3998 C.ar    1  UNL1       -0.0174
     22 C           3.6029    0.2228    1.1221 C.ar    1  UNL1        0.0775
     23 N           2.8476   -0.4879    0.2675 N.ar    1  UNL1       -0.2142
     24 C           4.2112    1.4545    0.6451 C.ar    1  UNL1        0.0186
     25 C           3.9687    1.8113   -0.6632 C.ar    1  UNL1       -0.0497
     26 C           4.5063    2.9758   -1.2186 C.ar    1  UNL1       -0.0430
     27 C           5.2982    3.7429   -0.3613 C.ar    1  UNL1        0.0276
     28 N           5.5424    3.3991    0.9288 N.ar    1  UNL1       -0.2626
     29 C           5.0028    2.2641    1.4266 C.ar    1  UNL1        0.0367
     30 H           1.3054   -3.6950   -3.0169 H       1  UNL1        0.0278
     31 H           1.2561   -4.6640   -1.4620 H       1  UNL1        0.0278
     32 H           0.0898   -4.9645   -2.7828 H       1  UNL1        0.0278
     33 H          -2.0087   -3.8829   -2.7067 H       1  UNL1        0.0621
     34 H          -3.5764   -2.3801   -1.6625 H       1  UNL1        0.0636
     35 H          -3.5707   -0.9528    1.0769 H       1  UNL1        0.1551
     36 H          -4.9424    0.3120    1.9053 H       1  UNL1        0.0626
     37 H          -6.5754    1.9763    2.7815 H       1  UNL1        0.0633
     38 H          -6.8811    4.1292    1.7041 H       1  UNL1        0.0829
     39 H          -3.9452    3.0754   -1.1786 H       1  UNL1        0.0837
     40 H          -0.4183   -0.8171    0.7478 H       1  UNL1        0.0655
     41 H           2.1791   -3.0023   -0.6859 H       1  UNL1        0.1550
     42 H           3.2783   -1.8110    3.8162 H       1  UNL1        0.0831
     43 H           4.3362    0.2644    3.1002 H       1  UNL1        0.0654
     44 H           3.3640    1.2489   -1.3592 H       1  UNL1        0.0625
     45 H           4.3360    3.2848   -2.2406 H       1  UNL1        0.0633
     46 H           5.7605    4.6555   -0.6818 H       1  UNL1        0.0829
     47 H           5.1996    1.9935    2.4544 H       1  UNL1        0.0836
@<TRIPOS>BOND
     1     1     2    1
     2     2     3   ar
     3     3     4   ar
     4     4     5   ar
     5     5     6    1
     6     6     7   am
     7     7     8    2
     8     7     9    1
     9     9    10   ar
    10    10    11   ar
    11    11    12   ar
    12    12    13   ar
    13    13    14   ar
    14     5    15   ar
    15    15    16   ar
    16    16    17    1
    17    17    18    1
    18    18    19   ar
    19    19    20   ar
    20    20    21   ar
    21    21    22   ar
    22    22    23   ar
    23    22    24    1
    24    24    25   ar
    25    25    26   ar
    26    26    27   ar
    27    27    28   ar
    28    28    29   ar
    29    16     2   ar
    30    23    18   ar
    31    29    24   ar
    32    14     9   ar
    33     1    30    1
    34     1    31    1
    35     1    32    1
    36     3    33    1
    37     4    34    1
    38     6    35    1
    39    10    36    1
    40    11    37    1
    41    12    38    1
    42    14    39    1
    43    15    40    1
    44    17    41    1
    45    20    42    1
    46    21    43    1
    47    25    44    1
    48    26    45    1
    49    27    46    1
    50    29    47    1
