
     RDKit          3D

 47 50  0  0  0  0  0  0  0  0999 V2000
    0.6642   -4.1718   -2.2518 C   0  0  0  0  0  0  0  0  0  0  0  0
   -0.2910   -3.2553   -1.6147 C   0  0  0  0  0  0  0  0  0  0  0  0
   -1.6348   -3.2052   -1.9369 C   0  0  0  0  0  0  0  0  0  0  0  0
   -2.5382   -2.3475   -1.3434 C   0  0  0  0  0  0  0  0  0  0  0  0
   -2.1093   -1.4704   -0.3623 C   0  0  0  0  0  0  0  0  0  0  0  0
   -3.0567   -0.6126    0.2191 N   0  0  0  0  0  0  0  0  0  0  0  0
   -3.3627    0.6900   -0.2834 C   0  0  0  0  0  0  0  0  0  0  0  0
   -2.6817    0.9856   -1.3153 O   0  0  0  0  0  0  0  0  0  0  0  0
   -4.3545    1.5764    0.3330 C   0  0  0  0  0  0  0  0  0  0  0  0
   -5.1011    1.2695    1.4538 C   0  0  0  0  0  0  0  0  0  0  0  0
   -5.9958    2.2098    1.9148 C   0  0  0  0  0  0  0  0  0  0  0  0
   -6.1552    3.4334    1.2849 C   0  0  0  0  0  0  0  0  0  0  0  0
   -5.4018    3.6927    0.1879 N   0  0  0  0  0  0  0  0  0  0  0  0
   -4.5223    2.7998   -0.2865 C   0  0  0  0  0  0  0  0  0  0  0  0
   -0.7644   -1.5128   -0.0321 C   0  0  0  0  0  0  0  0  0  0  0  0
    0.1089   -2.3811   -0.6445 C   0  0  0  0  0  0  0  0  0  0  0  0
    1.4700   -2.3683   -0.2564 N   0  0  0  0  0  0  0  0  0  0  0  0
    2.2557   -1.6496    0.6689 C   0  0  0  0  0  0  0  0  0  0  0  0
    2.4082   -2.1157    1.9209 N   0  0  0  0  0  0  0  0  0  0  0  0
    3.1526   -1.4421    2.8107 C   0  0  0  0  0  0  0  0  0  0  0  0
    3.7427   -0.2777    2.3998 C   0  0  0  0  0  0  0  0  0  0  0  0
    3.6029    0.2228    1.1221 C   0  0  0  0  0  0  0  0  0  0  0  0
    2.8476   -0.4879    0.2675 N   0  0  0  0  0  0  0  0  0  0  0  0
    4.2112    1.4545    0.6451 C   0  0  0  0  0  0  0  0  0  0  0  0
    3.9687    1.8113   -0.6632 C   0  0  0  0  0  0  0  0  0  0  0  0
    4.5063    2.9758   -1.2186 C   0  0  0  0  0  0  0  0  0  0  0  0
    5.2982    3.7429   -0.3613 C   0  0  0  0  0  0  0  0  0  0  0  0
    5.5424    3.3991    0.9288 N   0  0  0  0  0  0  0  0  0  0  0  0
    5.0028    2.2641    1.4266 C   0  0  0  0  0  0  0  0  0  0  0  0
    1.3054   -3.6950   -3.0169 H   0  0  0  0  0  0  0  0  0  0  0  0
    1.2561   -4.6640   -1.4620 H   0  0  0  0  0  0  0  0  0  0  0  0
    0.0898   -4.9645   -2.7828 H   0  0  0  0  0  0  0  0  0  0  0  0
   -2.0087   -3.8829   -2.7067 H   0  0  0  0  0  0  0  0  0  0  0  0
   -3.5764   -2.3801   -1.6625 H   0  0  0  0  0  0  0  0  0  0  0  0
   -3.5707   -0.9528    1.0769 H   0  0  0  0  0  0  0  0  0  0  0  0
   -4.9424    0.3120    1.9053 H   0  0  0  0  0  0  0  0  0  0  0  0
   -6.5754    1.9763    2.7815 H   0  0  0  0  0  0  0  0  0  0  0  0
   -6.8811    4.1292    1.7041 H   0  0  0  0  0  0  0  0  0  0  0  0
   -3.9452    3.0754   -1.1786 H   0  0  0  0  0  0  0  0  0  0  0  0
   -0.4183   -0.8171    0.7478 H   0  0  0  0  0  0  0  0  0  0  0  0
    2.1791   -3.0023   -0.6859 H   0  0  0  0  0  0  0  0  0  0  0  0
    3.2783   -1.8110    3.8162 H   0  0  0  0  0  0  0  0  0  0  0  0
    4.3362    0.2644    3.1002 H   0  0  0  0  0  0  0  0  0  0  0  0
    3.3640    1.2489   -1.3592 H   0  0  0  0  0  0  0  0  0  0  0  0
    4.3360    3.2848   -2.2406 H   0  0  0  0  0  0  0  0  0  0  0  0
    5.7605    4.6555   -0.6818 H   0  0  0  0  0  0  0  0  0  0  0  0
    5.1996    1.9935    2.4544 H   0  0  0  0  0  0  0  0  0  0  0  0
  1  2  1  0
  2  3  2  0
  3  4  1  0
  4  5  2  0
  5  6  1  0
  6  7  1  0
  7  8  2  0
  7  9  1  0
  9 10  2  0
 10 11  1  0
 11 12  2  0
 12 13  1  0
 13 14  2  0
  5 15  1  0
 15 16  2  0
 16 17  1  0
 17 18  1  0
 18 19  2  0
 19 20  1  0
 20 21  2  0
 21 22  1  0
 22 23  2  0
 22 24  1  0
 24 25  2  0
 25 26  1  0
 26 27  2  0
 27 28  1  0
 28 29  2  0
 16  2  1  0
 23 18  1  0
 29 24  1  0
 14  9  1  0
  1 30  1  0
  1 31  1  0
  1 32  1  0
  3 33  1  0
  4 34  1  0
  6 35  1  0
 10 36  1  0
 11 37  1  0
 12 38  1  0
 14 39  1  0
 15 40  1  0
 17 41  1  0
 20 42  1  0
 21 43  1  0
 25 44  1  0
 26 45  1  0
 27 46  1  0
 29 47  1  0
M  END
$$$$
