
     RDKit          3D

 47 48  0  0  0  0  0  0  0  0999 V2000
   -6.0301    1.8000   -1.1494 C   0  0  0  0  0  0  0  0  0  0  0  0
   -4.9952    0.6927   -1.0572 C   0  0  0  0  0  0  0  0  0  0  0  0
   -4.5105    0.5859    0.3398 C   0  0  0  0  0  0  0  0  0  0  0  0
   -4.9649    1.3570    1.2222 O   0  0  0  0  0  0  0  0  0  0  0  0
   -3.5362   -0.3725    0.7173 N   0  0  0  0  0  0  0  0  0  0  0  0
   -3.0224   -1.2581   -0.3247 C   0  0  0  0  0  0  0  0  0  0  0  0
   -1.6400   -1.6700    0.1096 C   0  0  0  0  0  0  0  0  0  0  0  0
   -1.0349   -0.4376    0.7862 C   0  0  0  0  0  0  0  0  0  0  0  0
    0.4193   -0.4078    0.7400 C   0  0  0  0  0  0  0  0  0  0  0  0
    1.1694   -1.0506    1.7022 C   0  0  0  0  0  0  0  0  0  0  0  0
    2.5606   -1.0365    1.6629 C   0  0  0  0  0  0  0  0  0  0  0  0
    3.2194   -0.3683    0.6440 C   0  0  0  0  0  0  0  0  0  0  0  0
    4.6852   -0.3712    0.6289 C   0  0  0  0  0  0  0  0  0  0  0  0
    5.2952   -0.9839    1.5473 O   0  0  0  0  0  0  0  0  0  0  0  0
    5.4305    0.2834   -0.3708 N   0  0  0  0  0  0  0  0  0  0  0  0
    6.8571    0.2947   -0.4067 C   0  0  0  0  0  0  0  0  0  0  0  0
    7.5738   -0.2725    0.4414 N   0  0  0  0  0  0  0  0  0  0  0  0
    7.4841    1.0179   -1.5087 N   0  0  0  0  0  0  0  0  0  0  0  0
    2.4655    0.2570   -0.2915 C   0  0  0  0  0  0  0  0  0  0  0  0
    1.0629    0.2551   -0.2701 C   0  0  0  0  0  0  0  0  0  0  0  0
    0.3217    0.9552   -1.3014 C   0  0  0  0  0  0  0  0  0  0  0  0
    1.2402    1.5261   -2.1995 F   0  0  0  0  0  0  0  0  0  0  0  0
   -0.4032    2.0385   -0.8456 F   0  0  0  0  0  0  0  0  0  0  0  0
   -0.4480    0.1193   -2.0885 F   0  0  0  0  0  0  0  0  0  0  0  0
   -1.5934   -0.4975    2.2205 C   0  0  0  0  0  0  0  0  0  0  0  0
   -3.0781   -0.4592    2.0858 C   0  0  0  0  0  0  0  0  0  0  0  0
   -6.6591    1.7747   -0.2553 H   0  0  0  0  0  0  0  0  0  0  0  0
   -5.5673    2.7957   -1.2503 H   0  0  0  0  0  0  0  0  0  0  0  0
   -6.6617    1.6058   -2.0202 H   0  0  0  0  0  0  0  0  0  0  0  0
   -4.1764    0.8440   -1.7905 H   0  0  0  0  0  0  0  0  0  0  0  0
   -5.5152   -0.2413   -1.3572 H   0  0  0  0  0  0  0  0  0  0  0  0
   -3.7025   -2.1224   -0.4413 H   0  0  0  0  0  0  0  0  0  0  0  0
   -2.9165   -0.6568   -1.2346 H   0  0  0  0  0  0  0  0  0  0  0  0
   -1.0160   -2.0896   -0.6747 H   0  0  0  0  0  0  0  0  0  0  0  0
   -1.7838   -2.4835    0.8787 H   0  0  0  0  0  0  0  0  0  0  0  0
   -1.5267    0.4957    0.3805 H   0  0  0  0  0  0  0  0  0  0  0  0
    0.7312   -1.5887    2.5214 H   0  0  0  0  0  0  0  0  0  0  0  0
    3.1334   -1.5352    2.4095 H   0  0  0  0  0  0  0  0  0  0  0  0
    4.9264    0.8029   -1.1496 H   0  0  0  0  0  0  0  0  0  0  0  0
    7.4188   -0.8061    1.2505 H   0  0  0  0  0  0  0  0  0  0  0  0
    8.3213    0.6356   -1.9945 H   0  0  0  0  0  0  0  0  0  0  0  0
    7.0774    1.9220   -1.7980 H   0  0  0  0  0  0  0  0  0  0  0  0
    2.9495    0.7893   -1.1027 H   0  0  0  0  0  0  0  0  0  0  0  0
   -1.2945   -1.4876    2.6244 H   0  0  0  0  0  0  0  0  0  0  0  0
   -1.2472    0.3558    2.8108 H   0  0  0  0  0  0  0  0  0  0  0  0
   -3.4748    0.3780    2.6829 H   0  0  0  0  0  0  0  0  0  0  0  0
   -3.5440   -1.3854    2.5246 H   0  0  0  0  0  0  0  0  0  0  0  0
  1  2  1  0
  2  3  1  0
  3  4  2  0
  3  5  1  0
  5  6  1  0
  6  7  1  0
  7  8  1  0
  8  9  1  0
  9 10  2  0
 10 11  1  0
 11 12  2  0
 12 13  1  0
 13 14  2  0
 13 15  1  0
 15 16  1  0
 16 17  2  3
 16 18  1  0
 12 19  1  0
 19 20  2  0
 20 21  1  0
 21 22  1  0
 21 23  1  0
 21 24  1  0
  8 25  1  0
 25 26  1  0
 26  5  1  0
 20  9  1  0
  1 27  1  0
  1 28  1  0
  1 29  1  0
  2 30  1  0
  2 31  1  0
  6 32  1  0
  6 33  1  0
  7 34  1  0
  7 35  1  0
  8 36  1  0
 10 37  1  0
 11 38  1  0
 15 39  1  0
 17 40  1  0
 18 41  1  0
 18 42  1  0
 19 43  1  0
 25 44  1  0
 25 45  1  0
 26 46  1  0
 26 47  1  0
M  END
$$$$
