@<TRIPOS>MOLECULE
*****
 47 48 0 0 0
SMALL
GASTEIGER

@<TRIPOS>ATOM
      1 C          -6.0301    1.8000   -1.1494 C.3     1  UNL1       -0.0570
      2 C          -4.9952    0.6927   -1.0572 C.3     1  UNL1        0.0213
      3 C          -4.5105    0.5859    0.3398 C.2     1  UNL1        0.2153
      4 O          -4.9649    1.3570    1.2222 O.2     1  UNL1       -0.2756
      5 N          -3.5362   -0.3725    0.7173 N.am    1  UNL1       -0.3014
      6 C          -3.0224   -1.2581   -0.3247 C.3     1  UNL1        0.0152
      7 C          -1.6400   -1.6700    0.1096 C.3     1  UNL1       -0.0302
      8 C          -1.0349   -0.4376    0.7862 C.3     1  UNL1       -0.0125
      9 C           0.4193   -0.4078    0.7400 C.ar    1  UNL1       -0.0325
     10 C           1.1694   -1.0506    1.7022 C.ar    1  UNL1       -0.0570
     11 C           2.5606   -1.0365    1.6629 C.ar    1  UNL1       -0.0479
     12 C           3.2194   -0.3683    0.6440 C.ar    1  UNL1        0.0536
     13 C           4.6852   -0.3712    0.6289 C.2     1  UNL1        0.3066
     14 O           5.2952   -0.9839    1.5473 O.2     1  UNL1       -0.2516
     15 N           5.4305    0.2834   -0.3708 N.am    1  UNL1       -0.1709
     16 C           6.8571    0.2947   -0.4067 C.2     1  UNL1        0.3751
     17 N           7.5738   -0.2725    0.4414 N.pl3   1  UNL1       -0.1313
     18 N           7.4841    1.0179   -1.5087 N.pl3   1  UNL1       -0.2906
     19 C           2.4655    0.2570   -0.2915 C.ar    1  UNL1       -0.0363
     20 C           1.0629    0.2551   -0.2701 C.ar    1  UNL1        0.0590
     21 C           0.3217    0.9552   -1.3014 C.3     1  UNL1        0.4177
     22 F           1.2402    1.5261   -2.1995 F       1  UNL1       -0.1659
     23 F          -0.4032    2.0385   -0.8456 F       1  UNL1       -0.1659
     24 F          -0.4480    0.1193   -2.0885 F       1  UNL1       -0.1659
     25 C          -1.5934   -0.4975    2.2205 C.3     1  UNL1       -0.0302
     26 C          -3.0781   -0.4592    2.0858 C.3     1  UNL1        0.0152
     27 H          -6.6591    1.7747   -0.2553 H       1  UNL1        0.0234
     28 H          -5.5673    2.7957   -1.2503 H       1  UNL1        0.0234
     29 H          -6.6617    1.6058   -2.0202 H       1  UNL1        0.0234
     30 H          -4.1764    0.8440   -1.7905 H       1  UNL1        0.0356
     31 H          -5.5152   -0.2413   -1.3572 H       1  UNL1        0.0356
     32 H          -3.7025   -2.1224   -0.4413 H       1  UNL1        0.0465
     33 H          -2.9165   -0.6568   -1.2346 H       1  UNL1        0.0465
     34 H          -1.0160   -2.0896   -0.6747 H       1  UNL1        0.0286
     35 H          -1.7838   -2.4835    0.8787 H       1  UNL1        0.0286
     36 H          -1.5267    0.4957    0.3805 H       1  UNL1        0.0350
     37 H           0.7312   -1.5887    2.5214 H       1  UNL1        0.0621
     38 H           3.1334   -1.5352    2.4095 H       1  UNL1        0.0626
     39 H           4.9264    0.8029   -1.1496 H       1  UNL1        0.2545
     40 H           7.4188   -0.8061    1.2505 H       1  UNL1        0.3060
     41 H           8.3213    0.6356   -1.9945 H       1  UNL1        0.2545
     42 H           7.0774    1.9220   -1.7980 H       1  UNL1        0.2545
     43 H           2.9495    0.7893   -1.1027 H       1  UNL1        0.0631
     44 H          -1.2945   -1.4876    2.6244 H       1  UNL1        0.0286
     45 H          -1.2472    0.3558    2.8108 H       1  UNL1        0.0286
     46 H          -3.4748    0.3780    2.6829 H       1  UNL1        0.0465
     47 H          -3.5440   -1.3854    2.5246 H       1  UNL1        0.0465
@<TRIPOS>BOND
     1     1     2    1
     2     2     3    1
     3     3     4    2
     4     3     5   am
     5     5     6    1
     6     6     7    1
     7     7     8    1
     8     8     9    1
     9     9    10   ar
    10    10    11   ar
    11    11    12   ar
    12    12    13    1
    13    13    14    2
    14    13    15   am
    15    15    16    1
    16    16    17    2
    17    16    18    1
    18    12    19   ar
    19    19    20   ar
    20    20    21    1
    21    21    22    1
    22    21    23    1
    23    21    24    1
    24     8    25    1
    25    25    26    1
    26    26     5    1
    27    20     9   ar
    28     1    27    1
    29     1    28    1
    30     1    29    1
    31     2    30    1
    32     2    31    1
    33     6    32    1
    34     6    33    1
    35     7    34    1
    36     7    35    1
    37     8    36    1
    38    10    37    1
    39    11    38    1
    40    15    39    1
    41    17    40    1
    42    18    41    1
    43    18    42    1
    44    19    43    1
    45    25    44    1
    46    25    45    1
    47    26    46    1
    48    26    47    1
