
     RDKit          3D

 63 67  0  0  0  0  0  0  0  0999 V2000
   -6.4565    2.4767   -1.9695 C   0  0  0  0  0  0  0  0  0  0  0  0
   -5.0133    2.2254   -1.7555 C   0  0  0  0  0  0  0  0  0  0  0  0
   -4.0926    2.7957   -2.6485 C   0  0  0  0  0  0  0  0  0  0  0  0
   -2.7521    2.5813   -2.4923 C   0  0  0  0  0  0  0  0  0  0  0  0
   -2.3207    1.7980   -1.4463 C   0  0  0  0  0  0  0  0  0  0  0  0
   -0.9151    1.5370   -1.2326 N   0  0  0  0  0  0  0  0  0  0  0  0
   -0.2761    0.4263   -1.8261 C   0  0  0  0  0  0  0  0  0  0  0  0
   -0.9947   -0.3210   -2.5488 O   0  0  0  0  0  0  0  0  0  0  0  0
    1.1418    0.0975   -1.6559 C   0  0  0  0  0  0  0  0  0  0  0  0
    1.6872   -1.0203   -2.2813 C   0  0  0  0  0  0  0  0  0  0  0  0
    3.0198   -1.3359   -2.1254 C   0  0  0  0  0  0  0  0  0  0  0  0
    3.8768   -0.5789   -1.3559 C   0  0  0  0  0  0  0  0  0  0  0  0
    5.3000   -0.9417   -1.2108 C   0  0  0  0  0  0  0  0  0  0  0  0
    5.5918   -1.8233   -0.1399 N   0  0  0  0  0  0  0  0  0  0  0  0
    5.2553   -1.3663    1.1655 C   0  0  0  0  0  0  0  0  0  0  0  0
    6.3143   -0.3636    1.5985 C   0  0  0  0  0  0  0  0  0  0  0  0
    7.6320   -0.7616    1.1428 N   0  0  0  0  0  0  0  0  0  0  0  0
    8.6754   -0.3309    2.0544 C   0  0  0  0  0  0  0  0  0  0  0  0
    7.6570   -2.2022    0.9794 C   0  0  0  0  0  0  0  0  0  0  0  0
    6.8225   -2.5292   -0.2437 C   0  0  0  0  0  0  0  0  0  0  0  0
    3.3371    0.5265   -0.7377 C   0  0  0  0  0  0  0  0  0  0  0  0
    1.9858    0.8617   -0.8851 C   0  0  0  0  0  0  0  0  0  0  0  0
   -3.2457    1.2424   -0.5732 C   0  0  0  0  0  0  0  0  0  0  0  0
   -4.5986    1.4472   -0.7144 C   0  0  0  0  0  0  0  0  0  0  0  0
   -5.5749    0.8720    0.2073 C   0  0  0  0  0  0  0  0  0  0  0  0
   -5.4729   -0.4863    0.5138 C   0  0  0  0  0  0  0  0  0  0  0  0
   -6.3501   -1.0851    1.3781 C   0  0  0  0  0  0  0  0  0  0  0  0
   -7.3497   -0.3492    1.9590 C   0  0  0  0  0  0  0  0  0  0  0  0
   -8.3517   -0.6689    2.8425 C   0  0  0  0  0  0  0  0  0  0  0  0
   -8.5674   -1.9422    3.3762 N   0  0  0  0  0  0  0  0  0  0  0  0
   -9.0220    0.4892    3.0425 N   0  0  0  0  0  0  0  0  0  0  0  0
   -8.4751    1.4360    2.3402 O   0  0  0  0  0  0  0  0  0  0  0  0
   -7.4488    0.9934    1.6548 C   0  0  0  0  0  0  0  0  0  0  0  0
   -6.5687    1.5905    0.7886 C   0  0  0  0  0  0  0  0  0  0  0  0
   -6.7255    3.5174   -1.6695 H   0  0  0  0  0  0  0  0  0  0  0  0
   -7.1241    1.7003   -1.5908 H   0  0  0  0  0  0  0  0  0  0  0  0
   -6.6360    2.4802   -3.0901 H   0  0  0  0  0  0  0  0  0  0  0  0
   -4.4513    3.4132   -3.4709 H   0  0  0  0  0  0  0  0  0  0  0  0
   -1.9985    3.0057   -3.1644 H   0  0  0  0  0  0  0  0  0  0  0  0
   -0.3598    2.1801   -0.6287 H   0  0  0  0  0  0  0  0  0  0  0  0
    1.0060   -1.6069   -2.8823 H   0  0  0  0  0  0  0  0  0  0  0  0
    3.4305   -2.2036   -2.6146 H   0  0  0  0  0  0  0  0  0  0  0  0
    5.7063   -1.4116   -2.1495 H   0  0  0  0  0  0  0  0  0  0  0  0
    5.9358   -0.0173   -1.0793 H   0  0  0  0  0  0  0  0  0  0  0  0
    5.1987   -2.1770    1.9215 H   0  0  0  0  0  0  0  0  0  0  0  0
    4.2901   -0.8421    1.1350 H   0  0  0  0  0  0  0  0  0  0  0  0
    6.3761   -0.3024    2.7100 H   0  0  0  0  0  0  0  0  0  0  0  0
    6.1194    0.6491    1.1963 H   0  0  0  0  0  0  0  0  0  0  0  0
    8.6919   -1.0533    2.9231 H   0  0  0  0  0  0  0  0  0  0  0  0
    9.6420   -0.4829    1.5313 H   0  0  0  0  0  0  0  0  0  0  0  0
    8.5486    0.6934    2.3995 H   0  0  0  0  0  0  0  0  0  0  0  0
    7.2391   -2.6672    1.8957 H   0  0  0  0  0  0  0  0  0  0  0  0
    8.6894   -2.5741    0.8149 H   0  0  0  0  0  0  0  0  0  0  0  0
    7.3820   -2.1187   -1.1183 H   0  0  0  0  0  0  0  0  0  0  0  0
    6.7295   -3.6143   -0.4209 H   0  0  0  0  0  0  0  0  0  0  0  0
    3.9603    1.1639   -0.1201 H   0  0  0  0  0  0  0  0  0  0  0  0
    1.5969    1.7513   -0.3745 H   0  0  0  0  0  0  0  0  0  0  0  0
   -2.8696    0.6261    0.2458 H   0  0  0  0  0  0  0  0  0  0  0  0
   -4.6645   -1.0665    0.0397 H   0  0  0  0  0  0  0  0  0  0  0  0
   -6.2236   -2.1420    1.5794 H   0  0  0  0  0  0  0  0  0  0  0  0
   -8.9378   -2.7293    2.8086 H   0  0  0  0  0  0  0  0  0  0  0  0
   -8.3545   -2.1243    4.3764 H   0  0  0  0  0  0  0  0  0  0  0  0
   -6.6478    2.6623    0.5503 H   0  0  0  0  0  0  0  0  0  0  0  0
  1  2  1  0
  2  3  2  0
  3  4  1  0
  4  5  2  0
  5  6  1  0
  6  7  1  0
  7  8  2  0
  7  9  1  0
  9 10  2  0
 10 11  1  0
 11 12  2  0
 12 13  1  0
 13 14  1  0
 14 15  1  0
 15 16  1  0
 16 17  1  0
 17 18  1  0
 17 19  1  0
 19 20  1  0
 12 21  1  0
 21 22  2  0
  5 23  1  0
 23 24  2  0
 24 25  1  0
 25 26  2  0
 26 27  1  0
 27 28  2  0
 28 29  1  0
 29 30  1  0
 29 31  2  0
 31 32  1  0
 32 33  1  0
 33 34  2  0
 24  2  1  0
 34 25  1  0
 22  9  1  0
 33 28  1  0
 20 14  1  0
  1 35  1  0
  1 36  1  0
  1 37  1  0
  3 38  1  0
  4 39  1  0
  6 40  1  0
 10 41  1  0
 11 42  1  0
 13 43  1  0
 13 44  1  0
 15 45  1  0
 15 46  1  0
 16 47  1  0
 16 48  1  0
 18 49  1  0
 18 50  1  0
 18 51  1  0
 19 52  1  0
 19 53  1  0
 20 54  1  0
 20 55  1  0
 21 56  1  0
 22 57  1  0
 23 58  1  0
 26 59  1  0
 27 60  1  0
 30 61  1  0
 30 62  1  0
 34 63  1  0
M  END
$$$$
