@<TRIPOS>MOLECULE
*****
 63 67 0 0 0
SMALL
GASTEIGER

@<TRIPOS>ATOM
      1 C          -6.4565    2.4767   -1.9695 C.3     1  UNL1       -0.0391
      2 C          -5.0133    2.2254   -1.7555 C.ar    1  UNL1       -0.0426
      3 C          -4.0926    2.7957   -2.6485 C.ar    1  UNL1       -0.0565
      4 C          -2.7521    2.5813   -2.4923 C.ar    1  UNL1       -0.0402
      5 C          -2.3207    1.7980   -1.4463 C.ar    1  UNL1        0.0343
      6 N          -0.9151    1.5370   -1.2326 N.am    1  UNL1       -0.2815
      7 C          -0.2761    0.4263   -1.8261 C.2     1  UNL1        0.2483
      8 O          -0.9947   -0.3210   -2.5488 O.2     1  UNL1       -0.2699
      9 C           1.1418    0.0975   -1.6559 C.ar    1  UNL1        0.0370
     10 C           1.6872   -1.0203   -2.2813 C.ar    1  UNL1       -0.0493
     11 C           3.0198   -1.3359   -2.1254 C.ar    1  UNL1       -0.0566
     12 C           3.8768   -0.5789   -1.3559 C.ar    1  UNL1       -0.0333
     13 C           5.3000   -0.9417   -1.2108 C.3     1  UNL1        0.0241
     14 N           5.5918   -1.8233   -0.1399 N.3     1  UNL1       -0.2957
     15 C           5.2553   -1.3663    1.1655 C.3     1  UNL1        0.0120
     16 C           6.3143   -0.3636    1.5985 C.3     1  UNL1        0.0114
     17 N           7.6320   -0.7616    1.1428 N.3     1  UNL1       -0.3029
     18 C           8.6754   -0.3309    2.0544 C.3     1  UNL1       -0.0127
     19 C           7.6570   -2.2022    0.9794 C.3     1  UNL1        0.0114
     20 C           6.8225   -2.5292   -0.2437 C.3     1  UNL1        0.0120
     21 C           3.3371    0.5265   -0.7377 C.ar    1  UNL1       -0.0566
     22 C           1.9858    0.8617   -0.8851 C.ar    1  UNL1       -0.0493
     23 C          -3.2457    1.2424   -0.5732 C.ar    1  UNL1       -0.0325
     24 C          -4.5986    1.4472   -0.7144 C.ar    1  UNL1       -0.0131
     25 C          -5.5749    0.8720    0.2073 C.ar    1  UNL1       -0.0140
     26 C          -5.4729   -0.4863    0.5138 C.ar    1  UNL1       -0.0531
     27 C          -6.3501   -1.0851    1.3781 C.ar    1  UNL1       -0.0470
     28 C          -7.3497   -0.3492    1.9590 C.ar    1  UNL1        0.0626
     29 C          -8.3517   -0.6689    2.8425 C.ar    1  UNL1        0.1667
     30 N          -8.5674   -1.9422    3.3762 N.pl3   1  UNL1       -0.3400
     31 N          -9.0220    0.4892    3.0425 N.ar    1  UNL1       -0.0624
     32 O          -8.4751    1.4360    2.3402 O.2     1  UNL1       -0.3528
     33 C          -7.4488    0.9934    1.6548 C.ar    1  UNL1        0.1697
     34 C          -6.5687    1.5905    0.7886 C.ar    1  UNL1       -0.0083
     35 H          -6.7255    3.5174   -1.6695 H       1  UNL1        0.0278
     36 H          -7.1241    1.7003   -1.5908 H       1  UNL1        0.0278
     37 H          -6.6360    2.4802   -3.0901 H       1  UNL1        0.0278
     38 H          -4.4513    3.4132   -3.4709 H       1  UNL1        0.0621
     39 H          -1.9985    3.0057   -3.1644 H       1  UNL1        0.0636
     40 H          -0.3598    2.1801   -0.6287 H       1  UNL1        0.1551
     41 H           1.0060   -1.6069   -2.8823 H       1  UNL1        0.0625
     42 H           3.4305   -2.2036   -2.6146 H       1  UNL1        0.0621
     43 H           5.7063   -1.4116   -2.1495 H       1  UNL1        0.0476
     44 H           5.9358   -0.0173   -1.0793 H       1  UNL1        0.0476
     45 H           5.1987   -2.1770    1.9215 H       1  UNL1        0.0439
     46 H           4.2901   -0.8421    1.1350 H       1  UNL1        0.0439
     47 H           6.3761   -0.3024    2.7100 H       1  UNL1        0.0439
     48 H           6.1194    0.6491    1.1963 H       1  UNL1        0.0439
     49 H           8.6919   -1.0533    2.9231 H       1  UNL1        0.0391
     50 H           9.6420   -0.4829    1.5313 H       1  UNL1        0.0391
     51 H           8.5486    0.6934    2.3995 H       1  UNL1        0.0391
     52 H           7.2391   -2.6672    1.8957 H       1  UNL1        0.0439
     53 H           8.6894   -2.5741    0.8149 H       1  UNL1        0.0439
     54 H           7.3820   -2.1187   -1.1183 H       1  UNL1        0.0439
     55 H           6.7295   -3.6143   -0.4209 H       1  UNL1        0.0439
     56 H           3.9603    1.1639   -0.1201 H       1  UNL1        0.0621
     57 H           1.5969    1.7513   -0.3745 H       1  UNL1        0.0625
     58 H          -2.8696    0.6261    0.2458 H       1  UNL1        0.0642
     59 H          -4.6645   -1.0665    0.0397 H       1  UNL1        0.0624
     60 H          -6.2236   -2.1420    1.5794 H       1  UNL1        0.0626
     61 H          -8.9378   -2.7293    2.8086 H       1  UNL1        0.1438
     62 H          -8.3545   -2.1243    4.3764 H       1  UNL1        0.1438
     63 H          -6.6478    2.6623    0.5503 H       1  UNL1        0.0661
@<TRIPOS>BOND
     1     1     2    1
     2     2     3   ar
     3     3     4   ar
     4     4     5   ar
     5     5     6    1
     6     6     7   am
     7     7     8    2
     8     7     9    1
     9     9    10   ar
    10    10    11   ar
    11    11    12   ar
    12    12    13    1
    13    13    14    1
    14    14    15    1
    15    15    16    1
    16    16    17    1
    17    17    18    1
    18    17    19    1
    19    19    20    1
    20    12    21   ar
    21    21    22   ar
    22     5    23   ar
    23    23    24   ar
    24    24    25    1
    25    25    26   ar
    26    26    27   ar
    27    27    28   ar
    28    28    29   ar
    29    29    30    1
    30    29    31   ar
    31    31    32   ar
    32    32    33   ar
    33    33    34   ar
    34    24     2   ar
    35    34    25   ar
    36    22     9   ar
    37    33    28   ar
    38    20    14    1
    39     1    35    1
    40     1    36    1
    41     1    37    1
    42     3    38    1
    43     4    39    1
    44     6    40    1
    45    10    41    1
    46    11    42    1
    47    13    43    1
    48    13    44    1
    49    15    45    1
    50    15    46    1
    51    16    47    1
    52    16    48    1
    53    18    49    1
    54    18    50    1
    55    18    51    1
    56    19    52    1
    57    19    53    1
    58    20    54    1
    59    20    55    1
    60    21    56    1
    61    22    57    1
    62    23    58    1
    63    26    59    1
    64    27    60    1
    65    30    61    1
    66    30    62    1
    67    34    63    1
