@<TRIPOS>MOLECULE
*****
 53 55 0 0 0
SMALL
GASTEIGER

@<TRIPOS>ATOM
      1 C           7.0408   -2.2937   -0.2125 C.3     1  UNL1       -0.0652
      2 C           5.6509   -2.7031    0.1771 C.3     1  UNL1       -0.0545
      3 C           4.7270   -1.5149    0.3626 C.3     1  UNL1       -0.0370
      4 C           4.6108   -0.7066   -0.9191 C.3     1  UNL1        0.0202
      5 N           3.7164    0.3987   -0.6504 N.am    1  UNL1       -0.2641
      6 C           4.1556    1.6652   -0.1680 C.2     1  UNL1        0.2913
      7 O           5.3405    2.0113    0.0907 O.2     1  UNL1       -0.2661
      8 C           2.9452    2.4633   -0.0412 C.2     1  UNL1        0.2496
      9 O           2.8951    3.6573    0.3583 O.2     1  UNL1       -0.2817
     10 C           1.7972    1.6655   -0.4489 C.ar    1  UNL1        0.0502
     11 C           0.4307    1.9536   -0.5140 C.ar    1  UNL1       -0.0226
     12 C          -0.4362    0.9994   -0.9411 C.ar    1  UNL1        0.1063
     13 S          -2.1856    1.2572   -1.0553 S.O2    1  UNL1        0.0612
     14 O          -2.7079    0.4810   -2.2137 O.2     1  UNL1       -0.1528
     15 O          -2.4659    2.7061   -1.3436 O.2     1  UNL1       -0.1528
     16 N          -2.8752    0.7041    0.4123 N.3     1  UNL1       -0.1713
     17 C          -2.3140    1.5267    1.5085 C.3     1  UNL1        0.0209
     18 C          -3.0690    2.8548    1.3550 C.3     1  UNL1       -0.0370
     19 C          -4.3748    2.4852    0.6295 C.3     1  UNL1       -0.0323
     20 C          -4.2640    0.9910    0.5863 C.3     1  UNL1        0.0552
     21 C          -5.2303    0.2730   -0.2725 C.3     1  UNL1        0.0648
     22 O          -5.2788   -1.0927   -0.1188 O.3     1  UNL1       -0.3784
     23 C          -4.1594   -1.8140   -0.3690 C.3     1  UNL1        0.0449
     24 C          -4.4914   -3.2973   -0.0794 C.3     1  UNL1       -0.0416
     25 C           0.0572   -0.2310   -1.3002 C.ar    1  UNL1       -0.0335
     26 C           1.4026   -0.5291   -1.2412 C.ar    1  UNL1       -0.0377
     27 C           2.2944    0.4325   -0.8084 C.ar    1  UNL1        0.0477
     28 H           7.3003   -2.6829   -1.2014 H       1  UNL1        0.0230
     29 H           7.7452   -2.7145    0.5534 H       1  UNL1        0.0230
     30 H           7.1482   -1.1732   -0.2273 H       1  UNL1        0.0230
     31 H           5.2039   -3.3321   -0.6227 H       1  UNL1        0.0263
     32 H           5.6214   -3.2782    1.1281 H       1  UNL1        0.0263
     33 H           3.7240   -1.9218    0.5864 H       1  UNL1        0.0280
     34 H           5.0965   -0.8536    1.1707 H       1  UNL1        0.0280
     35 H           4.2554   -1.3511   -1.7453 H       1  UNL1        0.0469
     36 H           5.5959   -0.3077   -1.2292 H       1  UNL1        0.0469
     37 H           0.0763    2.9191   -0.2323 H       1  UNL1        0.0645
     38 H          -1.2431    1.7215    1.3421 H       1  UNL1        0.0444
     39 H          -2.5463    1.0032    2.4338 H       1  UNL1        0.0444
     40 H          -2.4927    3.6026    0.8140 H       1  UNL1        0.0279
     41 H          -3.3586    3.1418    2.3798 H       1  UNL1        0.0279
     42 H          -5.2604    2.8032    1.2681 H       1  UNL1        0.0282
     43 H          -4.4943    2.9879   -0.3257 H       1  UNL1        0.0282
     44 H          -4.4526    0.6961    1.6936 H       1  UNL1        0.0502
     45 H          -5.0829    0.5120   -1.3699 H       1  UNL1        0.0576
     46 H          -6.2656    0.6589   -0.0443 H       1  UNL1        0.0576
     47 H          -3.8522   -1.8057   -1.4514 H       1  UNL1        0.0557
     48 H          -3.2787   -1.6156    0.2697 H       1  UNL1        0.0557
     49 H          -5.5434   -3.4256   -0.4019 H       1  UNL1        0.0252
     50 H          -4.4192   -3.4721    1.0135 H       1  UNL1        0.0252
     51 H          -3.8442   -3.9543   -0.6789 H       1  UNL1        0.0252
     52 H          -0.6431   -1.0031   -1.6458 H       1  UNL1        0.0638
     53 H           1.7982   -1.4981   -1.5231 H       1  UNL1        0.0637
@<TRIPOS>BOND
     1     1     2    1
     2     2     3    1
     3     3     4    1
     4     4     5    1
     5     5     6   am
     6     6     7    2
     7     6     8    1
     8     8     9    2
     9     8    10    1
    10    10    11   ar
    11    11    12   ar
    12    12    13    1
    13    13    14    2
    14    13    15    2
    15    13    16    1
    16    16    17    1
    17    17    18    1
    18    18    19    1
    19    19    20    1
    20    20    21    1
    21    21    22    1
    22    22    23    1
    23    23    24    1
    24    12    25   ar
    25    25    26   ar
    26    26    27   ar
    27    27     5    1
    28    27    10   ar
    29    20    16    1
    30     1    28    1
    31     1    29    1
    32     1    30    1
    33     2    31    1
    34     2    32    1
    35     3    33    1
    36     3    34    1
    37     4    35    1
    38     4    36    1
    39    11    37    1
    40    17    38    1
    41    17    39    1
    42    18    40    1
    43    18    41    1
    44    19    42    1
    45    19    43    1
    46    20    44    1
    47    21    45    1
    48    21    46    1
    49    23    47    1
    50    23    48    1
    51    24    49    1
    52    24    50    1
    53    24    51    1
    54    25    52    1
    55    26    53    1
