
     RDKit          3D

 95102  0  0  0  0  0  0  0  0999 V2000
   -0.9200    2.3082   -2.8252 N   0  0  0  0  0  0  0  0  0  0  0  0
   -1.9630    2.2817   -1.8611 C   0  0  0  0  0  0  0  0  0  0  0  0
   -2.6065    1.1067   -1.5404 C   0  0  0  0  0  0  0  0  0  0  0  0
   -3.6094    1.1544   -0.5975 C   0  0  0  0  0  0  0  0  0  0  0  0
   -3.9164    2.3709   -0.0248 C   0  0  0  0  0  0  0  0  0  0  0  0
   -3.3045    3.5375   -0.3176 C   0  0  0  0  0  0  0  0  0  0  0  0
   -2.2877    3.5008   -1.2712 C   0  0  0  0  0  0  0  0  0  0  0  0
   -4.9271    2.3385    0.9010 C   0  0  0  0  0  0  0  0  0  0  0  0
   -5.3042    3.5075    1.5232 C   0  0  0  0  0  0  0  0  0  0  0  0
   -6.3271    3.5436    2.4722 C   0  0  0  0  0  0  0  0  0  0  0  0
   -7.0026    2.3707    2.8165 C   0  0  0  0  0  0  0  0  0  0  0  0
   -8.0526    2.3915    3.7849 N   0  0  0  0  0  0  0  0  0  0  0  0
   -6.6031    1.2181    2.1776 C   0  0  0  0  0  0  0  0  0  0  0  0
   -5.5804    1.1683    1.2257 C   0  0  0  0  0  0  0  0  0  0  0  0
   -5.2215   -0.0356    0.6076 C   0  0  0  0  0  0  0  0  0  0  0  0
   -6.0034   -1.1734    1.0417 C   0  0  0  0  0  0  0  0  0  0  0  0
   -5.8542   -2.0815    2.0895 C   0  0  0  0  0  0  0  0  0  0  0  0
   -6.7781   -3.0822    2.2644 C   0  0  0  0  0  0  0  0  0  0  0  0
   -7.8562   -3.2249    1.4363 C   0  0  0  0  0  0  0  0  0  0  0  0
   -8.0395   -2.3513    0.3931 C   0  0  0  0  0  0  0  0  0  0  0  0
   -7.1095   -1.3333    0.2068 C   0  0  0  0  0  0  0  0  0  0  0  0
   -4.2292   -0.0265   -0.3066 N   0  0  0  0  0  4  0  0  0  0  0  0
   -3.8739   -1.2560   -0.9386 C   0  0  0  0  0  0  0  0  0  0  0  0
   -2.7572   -1.9633   -0.1422 C   0  0  0  0  0  0  0  0  0  0  0  0
   -2.4083   -3.2333   -0.8227 C   0  0  0  0  0  0  0  0  0  0  0  0
   -1.3778   -4.1096   -0.2676 C   0  0  0  0  0  0  0  0  0  0  0  0
    0.0410   -3.8933   -0.1767 C   0  0  0  0  0  0  0  0  0  0  0  0
    0.7885   -2.8303    0.4672 C   0  0  0  0  0  0  0  0  0  0  0  0
    0.7860   -1.4624   -0.0222 C   0  0  0  0  0  0  0  0  0  0  0  0
    1.8076   -1.3255   -0.9881 C   0  0  0  0  0  0  0  0  0  0  0  0
    1.9105   -0.0786   -1.5395 N   0  0  0  0  0  0  0  0  0  0  0  0
    2.7802    0.5086   -2.5315 C   0  0  0  0  0  0  0  0  0  0  0  0
    4.0178    1.1130   -1.9060 C   0  0  0  0  0  0  0  0  0  0  0  0
    4.8244    0.1885   -1.1774 N   0  0  0  0  0  0  0  0  0  0  0  0
    6.0467    0.3515   -0.4870 C   0  0  0  0  0  0  0  0  0  0  0  0
    6.2272    0.6951    0.8272 C   0  0  0  0  0  0  0  0  0  0  0  0
    5.0114    0.9301    1.6188 C   0  0  0  0  0  0  0  0  0  0  0  0
    5.2461    1.8147    2.8252 C   0  0  0  0  0  0  0  0  0  0  0  0
    6.6529    2.3277    2.9298 C   0  0  0  0  0  0  0  0  0  0  0  0
    7.6448    1.1753    2.7433 C   0  0  0  0  0  0  0  0  0  0  0  0
    7.5102    0.7946    1.3010 C   0  0  0  0  0  0  0  0  0  0  0  0
    8.5969    0.5661    0.5192 N   0  0  0  0  0  0  0  0  0  0  0  0
    8.4512    0.2241   -0.7860 C   0  0  0  0  0  0  0  0  0  0  0  0
    7.1542    0.1200   -1.2781 C   0  0  0  0  0  0  0  0  0  0  0  0
    7.0953   -0.2304   -2.6053 C   0  0  0  0  0  0  0  0  0  0  0  0
    8.1823   -0.4670   -3.4132 C   0  0  0  0  0  0  0  0  0  0  0  0
    9.4550   -0.3456   -2.8561 C   0  0  0  0  0  0  0  0  0  0  0  0
    9.5935    0.0038   -1.5278 C   0  0  0  0  0  0  0  0  0  0  0  0
    0.9504    0.5657   -0.9166 N   0  0  0  0  0  0  0  0  0  0  0  0
    0.3335   -0.2080   -0.0791 N   0  0  0  0  0  0  0  0  0  0  0  0
   -1.4123    2.0864   -3.7406 H   0  0  0  0  0  0  0  0  0  0  0  0
    0.0764    2.4359   -3.0814 H   0  0  0  0  0  0  0  0  0  0  0  0
   -2.2536    0.2419   -2.0699 H   0  0  0  0  0  0  0  0  0  0  0  0
   -3.4913    4.4857    0.0813 H   0  0  0  0  0  0  0  0  0  0  0  0
   -1.7423    4.4107   -1.5642 H   0  0  0  0  0  0  0  0  0  0  0  0
   -4.9092    4.4788    1.3893 H   0  0  0  0  0  0  0  0  0  0  0  0
   -6.6782    4.4287    3.0024 H   0  0  0  0  0  0  0  0  0  0  0  0
   -9.1022    2.4269    3.6133 H   0  0  0  0  0  0  0  0  0  0  0  0
   -8.8105    2.4199    3.0930 H   0  0  0  0  0  0  0  0  0  0  0  0
   -7.1323    0.3126    2.4504 H   0  0  0  0  0  0  0  0  0  0  0  0
   -4.9573   -1.8358    2.6512 H   0  0  0  0  0  0  0  0  0  0  0  0
   -6.5259   -3.7061    3.1207 H   0  0  0  0  0  0  0  0  0  0  0  0
   -8.4894   -4.0783    1.7224 H   0  0  0  0  0  0  0  0  0  0  0  0
   -8.9053   -2.5190   -0.2179 H   0  0  0  0  0  0  0  0  0  0  0  0
   -7.3879   -0.7163   -0.6625 H   0  0  0  0  0  0  0  0  0  0  0  0
   -3.6529   -1.2055   -2.0107 H   0  0  0  0  0  0  0  0  0  0  0  0
   -4.7477   -1.9702   -0.8726 H   0  0  0  0  0  0  0  0  0  0  0  0
   -3.3084   -2.2575    0.8183 H   0  0  0  0  0  0  0  0  0  0  0  0
   -1.9802   -1.2883    0.1375 H   0  0  0  0  0  0  0  0  0  0  0  0
   -3.3490   -3.8410   -1.0491 H   0  0  0  0  0  0  0  0  0  0  0  0
   -2.0984   -2.9450   -1.8873 H   0  0  0  0  0  0  0  0  0  0  0  0
   -1.7641   -4.4146    0.7965 H   0  0  0  0  0  0  0  0  0  0  0  0
   -1.5273   -5.1524   -0.7956 H   0  0  0  0  0  0  0  0  0  0  0  0
    0.5580   -4.9063    0.1515 H   0  0  0  0  0  0  0  0  0  0  0  0
    0.4244   -3.9458   -1.2968 H   0  0  0  0  0  0  0  0  0  0  0  0
    0.3353   -2.7540    1.5433 H   0  0  0  0  0  0  0  0  0  0  0  0
    1.8445   -3.1711    0.7769 H   0  0  0  0  0  0  0  0  0  0  0  0
    2.5800   -1.9851   -1.4382 H   0  0  0  0  0  0  0  0  0  0  0  0
    3.0323   -0.2892   -3.2603 H   0  0  0  0  0  0  0  0  0  0  0  0
    2.2207    1.3330   -3.0163 H   0  0  0  0  0  0  0  0  0  0  0  0
    4.6407    1.6264   -2.6630 H   0  0  0  0  0  0  0  0  0  0  0  0
    3.6289    1.9501   -1.2602 H   0  0  0  0  0  0  0  0  0  0  0  0
    4.6380   -0.8286   -1.0208 H   0  0  0  0  0  0  0  0  0  0  0  0
    4.5945   -0.0456    1.9958 H   0  0  0  0  0  0  0  0  0  0  0  0
    4.1867    1.3851    1.0375 H   0  0  0  0  0  0  0  0  0  0  0  0
    4.9999    1.3064    3.7812 H   0  0  0  0  0  0  0  0  0  0  0  0
    4.5872    2.7270    2.7994 H   0  0  0  0  0  0  0  0  0  0  0  0
    6.8727    3.0950    2.1440 H   0  0  0  0  0  0  0  0  0  0  0  0
    6.7710    2.8126    3.9012 H   0  0  0  0  0  0  0  0  0  0  0  0
    7.3472    0.3885    3.4360 H   0  0  0  0  0  0  0  0  0  0  0  0
    8.6676    1.5265    2.9934 H   0  0  0  0  0  0  0  0  0  0  0  0
    6.1066   -0.3303   -3.0577 H   0  0  0  0  0  0  0  0  0  0  0  0
    8.0399   -0.7361   -4.4417 H   0  0  0  0  0  0  0  0  0  0  0  0
   10.3068   -0.5257   -3.4665 H   0  0  0  0  0  0  0  0  0  0  0  0
   10.5723    0.1044   -1.0748 H   0  0  0  0  0  0  0  0  0  0  0  0
  1  2  1  0
  2  3  2  0
  3  4  1  0
  4  5  2  0
  5  6  1  0
  6  7  2  0
  5  8  1  0
  8  9  2  0
  9 10  1  0
 10 11  2  0
 11 12  1  0
 11 13  1  0
 13 14  2  0
 14 15  1  0
 15 16  1  0
 16 17  2  0
 17 18  1  0
 18 19  2  0
 19 20  1  0
 20 21  2  0
 15 22  2  0
 22 23  1  0
 23 24  1  0
 24 25  1  0
 25 26  1  0
 26 27  1  0
 27 28  1  0
 28 29  1  0
 29 30  2  0
 30 31  1  0
 31 32  1  0
 32 33  1  0
 33 34  1  0
 34 35  1  0
 35 36  2  0
 36 37  1  0
 37 38  1  0
 38 39  1  0
 39 40  1  0
 40 41  1  0
 41 42  2  0
 42 43  1  0
 43 44  2  0
 44 45  1  0
 45 46  2  0
 46 47  1  0
 47 48  2  0
 31 49  1  0
 49 50  2  0
  7  2  1  0
 14  8  1  0
 21 16  1  0
 50 29  1  0
 22  4  1  0
 44 35  1  0
 41 36  1  0
 48 43  1  0
  1 51  1  0
  1 52  1  0
  3 53  1  0
  6 54  1  0
  7 55  1  0
  9 56  1  0
 10 57  1  0
 12 58  1  0
 12 59  1  0
 13 60  1  0
 17 61  1  0
 18 62  1  0
 19 63  1  0
 20 64  1  0
 21 65  1  0
 23 66  1  0
 23 67  1  0
 24 68  1  0
 24 69  1  0
 25 70  1  0
 25 71  1  0
 26 72  1  0
 26 73  1  0
 27 74  1  0
 27 75  1  0
 28 76  1  0
 28 77  1  0
 30 78  1  0
 32 79  1  0
 32 80  1  0
 33 81  1  0
 33 82  1  0
 34 83  1  0
 37 84  1  0
 37 85  1  0
 38 86  1  0
 38 87  1  0
 39 88  1  0
 39 89  1  0
 40 90  1  0
 40 91  1  0
 45 92  1  0
 46 93  1  0
 47 94  1  0
 48 95  1  0
M  CHG  1  22   1
M  END
$$$$
