
     RDKit          3D

 68 72  0  0  0  0  0  0  0  0999 V2000
    6.9586    1.8775    1.1299 O   0  0  0  0  0  0  0  0  0  0  0  0
    6.0336    0.9332    0.7045 C   0  0  0  0  0  0  0  0  0  0  0  0
    6.3700   -0.3709    0.4475 C   0  0  0  0  0  0  0  0  0  0  0  0
    5.4004   -1.2342    0.0341 C   0  0  0  0  0  0  0  0  0  0  0  0
    5.8111   -2.5449   -0.2115 O   0  0  0  0  0  0  0  0  0  0  0  0
    4.0452   -0.8793   -0.1535 C   0  0  0  0  0  0  0  0  0  0  0  0
    3.7344    0.4521    0.1151 C   0  0  0  0  0  0  0  0  0  0  0  0
    4.7264    1.3132    0.5325 C   0  0  0  0  0  0  0  0  0  0  0  0
    2.3785    1.0609   -0.0137 C   0  0  0  0  0  0  0  0  0  0  0  0
    2.2381    2.1790    0.9652 C   0  0  0  0  0  0  0  0  0  0  0  0
    2.6456    1.7920    2.6476 Cl  0  0  0  0  0  0  0  0  0  0  0  0
    1.8527    3.4017    0.7141 C   0  0  0  0  0  0  0  0  0  0  0  0
    1.5057    3.7736   -0.6917 C   0  0  0  0  0  0  0  0  0  0  0  0
    0.0015    3.7928   -0.7373 C   0  0  0  0  0  0  0  0  0  0  0  0
   -0.8768    2.7541   -0.9267 C   0  0  0  0  0  0  0  0  0  0  0  0
   -2.2285    3.0453   -0.8778 C   0  0  0  0  0  0  0  0  0  0  0  0
   -2.6672    4.3703   -0.6436 C   0  0  0  0  0  0  0  0  0  0  0  0
   -4.3894    4.8064   -0.6014 Cl  0  0  0  0  0  0  0  0  0  0  0  0
   -1.7993    5.4129   -0.4550 C   0  0  0  0  0  0  0  0  0  0  0  0
   -0.4700    5.0933   -0.5070 C   0  0  0  0  0  0  0  0  0  0  0  0
    0.4015    6.1852   -0.3077 O   0  0  0  0  0  0  0  0  0  0  0  0
   -3.3241    2.2065   -1.0273 O   0  0  0  0  0  0  0  0  0  0  0  0
   -3.6025    0.8699   -0.6395 C   0  0  0  0  0  0  0  0  0  0  0  0
   -3.2741   -0.1973   -1.4383 C   0  0  0  0  0  0  0  0  0  0  0  0
   -2.6409   -0.1704   -2.7370 O   0  0  0  0  0  0  0  0  0  0  0  0
   -3.5483   -1.5329   -1.0399 C   0  0  0  0  0  0  0  0  0  0  0  0
   -4.1590   -1.8337    0.1634 C   0  0  0  0  0  0  0  0  0  0  0  0
   -4.4817   -0.7522    0.9512 C   0  0  0  0  0  0  0  0  0  0  0  0
   -4.2026    0.5835    0.5427 C   0  0  0  0  0  0  0  0  0  0  0  0
   -4.6563    1.5285    1.5626 O   0  0  0  0  0  0  0  0  0  0  0  0
   -4.4505   -3.2606    0.4752 C   0  0  0  0  0  0  0  0  0  0  0  0
   -3.5037   -4.2633    0.8508 C   0  0  0  0  0  0  0  0  0  0  0  0
   -4.1580   -5.9749    0.8535 Cl  0  0  0  0  0  0  0  0  0  0  0  0
   -2.2522   -4.1128    1.2023 C   0  0  0  0  0  0  0  0  0  0  0  0
   -1.4594   -2.8669    1.3237 C   0  0  0  0  0  0  0  0  0  0  0  0
   -0.2532   -2.8531    0.4528 C   0  0  0  0  0  0  0  0  0  0  0  0
    0.9549   -2.2183    0.5799 C   0  0  0  0  0  0  0  0  0  0  0  0
    1.8970   -2.3140   -0.4336 C   0  0  0  0  0  0  0  0  0  0  0  0
    1.5611   -3.0878   -1.5879 C   0  0  0  0  0  0  0  0  0  0  0  0
    2.7006   -3.2950   -2.9386 Cl  0  0  0  0  0  0  0  0  0  0  0  0
    0.3764   -3.7311   -1.7471 C   0  0  0  0  0  0  0  0  0  0  0  0
   -0.5226   -3.6056   -0.7179 C   0  0  0  0  0  0  0  0  0  0  0  0
   -1.7355   -4.2801   -0.9035 O   0  0  0  0  0  0  0  0  0  0  0  0
    3.1425   -1.7979   -0.5661 O   0  0  0  0  0  0  0  0  0  0  0  0
    7.2246    2.6217    0.4637 H   0  0  0  0  0  0  0  0  0  0  0  0
    7.4080   -0.6418    0.5893 H   0  0  0  0  0  0  0  0  0  0  0  0
    6.3221   -3.0953    0.4640 H   0  0  0  0  0  0  0  0  0  0  0  0
    4.4471    2.3621    0.7367 H   0  0  0  0  0  0  0  0  0  0  0  0
    1.5511    0.3717    0.2245 H   0  0  0  0  0  0  0  0  0  0  0  0
    2.1897    1.3684   -1.0670 H   0  0  0  0  0  0  0  0  0  0  0  0
    1.7698    4.1768    1.5041 H   0  0  0  0  0  0  0  0  0  0  0  0
    1.9271    4.8296   -0.7473 H   0  0  0  0  0  0  0  0  0  0  0  0
    2.0543    3.2697   -1.4551 H   0  0  0  0  0  0  0  0  0  0  0  0
   -0.5404    1.6856   -1.1409 H   0  0  0  0  0  0  0  0  0  0  0  0
   -2.1477    6.4290   -0.2771 H   0  0  0  0  0  0  0  0  0  0  0  0
    0.1756    6.9358    0.2963 H   0  0  0  0  0  0  0  0  0  0  0  0
   -3.0711   -0.7865   -3.4121 H   0  0  0  0  0  0  0  0  0  0  0  0
   -3.1422   -2.1765   -1.8789 H   0  0  0  0  0  0  0  0  0  0  0  0
   -4.9556   -0.7206    1.9862 H   0  0  0  0  0  0  0  0  0  0  0  0
   -5.5598    1.3581    1.9984 H   0  0  0  0  0  0  0  0  0  0  0  0
   -5.0785   -3.7739   -0.3548 H   0  0  0  0  0  0  0  0  0  0  0  0
   -5.2738   -3.3993    1.2909 H   0  0  0  0  0  0  0  0  0  0  0  0
   -1.7208   -5.0864    1.4396 H   0  0  0  0  0  0  0  0  0  0  0  0
   -1.2099   -2.9121    2.4592 H   0  0  0  0  0  0  0  0  0  0  0  0
   -2.0882   -2.0027    1.2868 H   0  0  0  0  0  0  0  0  0  0  0  0
    1.2494   -1.6002    1.5024 H   0  0  0  0  0  0  0  0  0  0  0  0
    0.1374   -4.3170   -2.6352 H   0  0  0  0  0  0  0  0  0  0  0  0
   -1.7482   -5.1512   -1.3972 H   0  0  0  0  0  0  0  0  0  0  0  0
  1  2  1  0
  2  3  2  0
  3  4  1  0
  4  5  1  0
  4  6  2  0
  6  7  1  0
  7  8  2  0
  7  9  1  0
  9 10  1  0
 10 11  1  0
 10 12  2  0
 12 13  1  0
 13 14  1  0
 14 15  2  0
 15 16  1  0
 16 17  2  0
 17 18  1  0
 17 19  1  0
 19 20  2  0
 20 21  1  0
 16 22  1  0
 22 23  1  0
 23 24  2  0
 24 25  1  0
 24 26  1  0
 26 27  2  0
 27 28  1  0
 28 29  2  0
 29 30  1  0
 27 31  1  0
 31 32  1  0
 32 33  1  0
 32 34  2  0
 34 35  1  0
 35 36  1  0
 36 37  2  0
 37 38  1  0
 38 39  2  0
 39 40  1  0
 39 41  1  0
 41 42  2  0
 42 43  1  0
 38 44  1  0
  8  2  1  0
 20 14  1  0
 29 23  1  0
 42 36  1  0
 44  6  1  0
  1 45  1  0
  3 46  1  0
  5 47  1  0
  8 48  1  0
  9 49  1  0
  9 50  1  0
 12 51  1  0
 13 52  1  0
 13 53  1  0
 15 54  1  0
 19 55  1  0
 21 56  1  0
 25 57  1  0
 26 58  1  0
 28 59  1  0
 30 60  1  0
 31 61  1  0
 31 62  1  0
 34 63  1  0
 35 64  1  0
 35 65  1  0
 37 66  1  0
 41 67  1  0
 43 68  1  0
M  END
$$$$
