@<TRIPOS>MOLECULE
*****
 68 72 0 0 0
SMALL
GASTEIGER

@<TRIPOS>ATOM
      1 O           6.9586    1.8775    1.1299 O.3     1  UNL1       -0.5066
      2 C           6.0336    0.9332    0.7045 C.ar    1  UNL1        0.1208
      3 C           6.3700   -0.3709    0.4475 C.ar    1  UNL1        0.0250
      4 C           5.4004   -1.2342    0.0341 C.ar    1  UNL1        0.1629
      5 O           5.8111   -2.5449   -0.2115 O.3     1  UNL1       -0.5032
      6 C           4.0452   -0.8793   -0.1535 C.ar    1  UNL1        0.1734
      7 C           3.7344    0.4521    0.1151 C.ar    1  UNL1        0.0071
      8 C           4.7264    1.3132    0.5325 C.ar    1  UNL1       -0.0129
      9 C           2.3785    1.0609   -0.0137 C.3     1  UNL1        0.0116
     10 C           2.2381    2.1790    0.9652 C.2     1  UNL1        0.0193
     11 CL          2.6456    1.7920    2.6476 Cl      1  UNL1       -0.0882
     12 C           1.8527    3.4017    0.7141 C.2     1  UNL1       -0.0650
     13 C           1.5057    3.7736   -0.6917 C.3     1  UNL1       -0.0045
     14 C           0.0015    3.7928   -0.7373 C.ar    1  UNL1        0.0014
     15 C          -0.8768    2.7541   -0.9267 C.ar    1  UNL1       -0.0109
     16 C          -2.2285    3.0453   -0.8778 C.ar    1  UNL1        0.1475
     17 C          -2.6672    4.3703   -0.6436 C.ar    1  UNL1        0.0866
     18 CL         -4.3894    4.8064   -0.6014 Cl      1  UNL1       -0.0796
     19 C          -1.7993    5.4129   -0.4550 C.ar    1  UNL1        0.0020
     20 C          -0.4700    5.0933   -0.5070 C.ar    1  UNL1        0.1219
     21 O           0.4015    6.1852   -0.3077 O.3     1  UNL1       -0.5064
     22 O          -3.3241    2.2065   -1.0273 O.3     1  UNL1       -0.4472
     23 C          -3.6025    0.8699   -0.6395 C.ar    1  UNL1        0.2107
     24 C          -3.2741   -0.1973   -1.4383 C.ar    1  UNL1        0.1631
     25 O          -2.6409   -0.1704   -2.7370 O.3     1  UNL1       -0.5032
     26 C          -3.5483   -1.5329   -1.0399 C.ar    1  UNL1       -0.0127
     27 C          -4.1590   -1.8337    0.1634 C.ar    1  UNL1       -0.0351
     28 C          -4.4817   -0.7522    0.9512 C.ar    1  UNL1       -0.0127
     29 C          -4.2026    0.5835    0.5427 C.ar    1  UNL1        0.1631
     30 O          -4.6563    1.5285    1.5626 O.3     1  UNL1       -0.5032
     31 C          -4.4505   -3.2606    0.4752 C.3     1  UNL1        0.0082
     32 C          -3.5037   -4.2633    0.8508 C.2     1  UNL1        0.0192
     33 CL         -4.1580   -5.9749    0.8535 Cl      1  UNL1       -0.0882
     34 C          -2.2522   -4.1128    1.2023 C.2     1  UNL1       -0.0650
     35 C          -1.4594   -2.8669    1.3237 C.3     1  UNL1       -0.0045
     36 C          -0.2532   -2.8531    0.4528 C.ar    1  UNL1        0.0014
     37 C           0.9549   -2.2183    0.5799 C.ar    1  UNL1       -0.0109
     38 C           1.8970   -2.3140   -0.4336 C.ar    1  UNL1        0.1473
     39 C           1.5611   -3.0878   -1.5879 C.ar    1  UNL1        0.0866
     40 CL          2.7006   -3.2950   -2.9386 Cl      1  UNL1       -0.0796
     41 C           0.3764   -3.7311   -1.7471 C.ar    1  UNL1        0.0020
     42 C          -0.5226   -3.6056   -0.7179 C.ar    1  UNL1        0.1219
     43 O          -1.7355   -4.2801   -0.9035 O.3     1  UNL1       -0.5064
     44 O           3.1425   -1.7979   -0.5661 O.3     1  UNL1       -0.4506
     45 H           7.2246    2.6217    0.4637 H       1  UNL1        0.2921
     46 H           7.4080   -0.6418    0.5893 H       1  UNL1        0.0692
     47 H           6.3221   -3.0953    0.4640 H       1  UNL1        0.2923
     48 H           4.4471    2.3621    0.7367 H       1  UNL1        0.0658
     49 H           1.5511    0.3717    0.2245 H       1  UNL1        0.0371
     50 H           2.1897    1.3684   -1.0670 H       1  UNL1        0.0371
     51 H           1.7698    4.1768    1.5041 H       1  UNL1        0.0587
     52 H           1.9271    4.8296   -0.7473 H       1  UNL1        0.0357
     53 H           2.0543    3.2697   -1.4551 H       1  UNL1        0.0357
     54 H          -0.5404    1.6856   -1.1409 H       1  UNL1        0.0659
     55 H          -2.1477    6.4290   -0.2771 H       1  UNL1        0.0670
     56 H           0.1756    6.9358    0.2963 H       1  UNL1        0.2921
     57 H          -3.0711   -0.7865   -3.4121 H       1  UNL1        0.2923
     58 H          -3.1422   -2.1765   -1.8789 H       1  UNL1        0.0658
     59 H          -4.9556   -0.7206    1.9862 H       1  UNL1        0.0658
     60 H          -5.5598    1.3581    1.9984 H       1  UNL1        0.2923
     61 H          -5.0785   -3.7739   -0.3548 H       1  UNL1        0.0370
     62 H          -5.2738   -3.3993    1.2909 H       1  UNL1        0.0370
     63 H          -1.7208   -5.0864    1.4396 H       1  UNL1        0.0587
     64 H          -1.2099   -2.9121    2.4592 H       1  UNL1        0.0357
     65 H          -2.0882   -2.0027    1.2868 H       1  UNL1        0.0357
     66 H           1.2494   -1.6002    1.5024 H       1  UNL1        0.0659
     67 H           0.1374   -4.3170   -2.6352 H       1  UNL1        0.0670
     68 H          -1.7482   -5.1512   -1.3972 H       1  UNL1        0.2921
@<TRIPOS>BOND
     1     1     2    1
     2     2     3   ar
     3     3     4   ar
     4     4     5    1
     5     4     6   ar
     6     6     7   ar
     7     7     8   ar
     8     7     9    1
     9     9    10    1
    10    10    11    1
    11    10    12    2
    12    12    13    1
    13    13    14    1
    14    14    15   ar
    15    15    16   ar
    16    16    17   ar
    17    17    18    1
    18    17    19   ar
    19    19    20   ar
    20    20    21    1
    21    16    22    1
    22    22    23    1
    23    23    24   ar
    24    24    25    1
    25    24    26   ar
    26    26    27   ar
    27    27    28   ar
    28    28    29   ar
    29    29    30    1
    30    27    31    1
    31    31    32    1
    32    32    33    1
    33    32    34    2
    34    34    35    1
    35    35    36    1
    36    36    37   ar
    37    37    38   ar
    38    38    39   ar
    39    39    40    1
    40    39    41   ar
    41    41    42   ar
    42    42    43    1
    43    38    44    1
    44     8     2   ar
    45    20    14   ar
    46    29    23   ar
    47    42    36   ar
    48    44     6    1
    49     1    45    1
    50     3    46    1
    51     5    47    1
    52     8    48    1
    53     9    49    1
    54     9    50    1
    55    12    51    1
    56    13    52    1
    57    13    53    1
    58    15    54    1
    59    19    55    1
    60    21    56    1
    61    25    57    1
    62    26    58    1
    63    28    59    1
    64    30    60    1
    65    31    61    1
    66    31    62    1
    67    34    63    1
    68    35    64    1
    69    35    65    1
    70    37    66    1
    71    41    67    1
    72    43    68    1
