
     RDKit          3D

 44 45  0  0  0  0  0  0  0  0999 V2000
    5.5612    1.2741   -0.4437 C   0  0  0  0  0  0  0  0  0  0  0  0
    5.3550   -0.2031   -0.3899 C   0  0  0  0  0  0  0  0  0  0  0  0
    4.0026   -0.6211   -0.9285 C   0  0  0  0  0  0  0  0  0  0  0  0
    2.9133    0.0144   -0.1316 C   0  0  0  0  0  0  0  0  0  0  0  0
    2.9547   -0.3689    1.3308 C   0  0  0  0  0  0  0  0  0  0  0  0
    1.8414    0.2924    2.0964 C   0  0  0  0  0  0  0  0  0  0  0  0
    0.4972   -0.0830    1.5866 C   0  0  0  0  0  0  0  0  0  0  0  0
   -0.1431    0.6348    0.5996 C   0  0  0  0  0  0  0  0  0  0  0  0
   -1.3947    0.2677    0.1383 C   0  0  0  0  0  0  0  0  0  0  0  0
   -2.0203   -0.8380    0.6734 C   0  0  0  0  0  0  0  0  0  0  0  0
   -3.2738   -1.2443    0.2466 O   0  0  0  0  0  0  0  0  0  0  0  0
   -3.9998   -0.5470   -0.7047 C   0  0  0  0  0  0  0  0  0  0  0  0
   -4.3324   -1.1283   -1.9240 C   0  0  0  0  0  0  0  0  0  0  0  0
   -5.0526   -0.4203   -2.8498 C   0  0  0  0  0  0  0  0  0  0  0  0
   -5.4501    0.8638   -2.5822 C   0  0  0  0  0  0  0  0  0  0  0  0
   -5.1226    1.4423   -1.3755 C   0  0  0  0  0  0  0  0  0  0  0  0
   -4.3943    0.7425   -0.4244 C   0  0  0  0  0  0  0  0  0  0  0  0
   -4.0935    1.3780    0.8198 N   0  0  0  0  0  0  0  0  0  0  0  0
   -1.3978   -1.5915    1.6787 C   0  0  0  0  0  0  0  0  0  0  0  0
   -2.0396   -2.7047    2.2092 O   0  0  0  0  0  0  0  0  0  0  0  0
   -0.1517   -1.1846    2.1032 C   0  0  0  0  0  0  0  0  0  0  0  0
    6.6692    1.4717   -0.4951 H   0  0  0  0  0  0  0  0  0  0  0  0
    5.2200    1.8003    0.4712 H   0  0  0  0  0  0  0  0  0  0  0  0
    5.0296    1.7668   -1.2986 H   0  0  0  0  0  0  0  0  0  0  0  0
    6.1148   -0.7262   -1.0370 H   0  0  0  0  0  0  0  0  0  0  0  0
    5.5321   -0.5488    0.6481 H   0  0  0  0  0  0  0  0  0  0  0  0
    3.9421   -0.1780   -1.9634 H   0  0  0  0  0  0  0  0  0  0  0  0
    3.9169   -1.7019   -1.0626 H   0  0  0  0  0  0  0  0  0  0  0  0
    3.0660    1.1173   -0.1728 H   0  0  0  0  0  0  0  0  0  0  0  0
    1.9199   -0.1710   -0.5803 H   0  0  0  0  0  0  0  0  0  0  0  0
    3.9125   -0.1166    1.8053 H   0  0  0  0  0  0  0  0  0  0  0  0
    2.8122   -1.4690    1.4373 H   0  0  0  0  0  0  0  0  0  0  0  0
    1.9574    0.1085    3.1830 H   0  0  0  0  0  0  0  0  0  0  0  0
    1.9630    1.4019    1.9330 H   0  0  0  0  0  0  0  0  0  0  0  0
    0.3897    1.4943    0.2135 H   0  0  0  0  0  0  0  0  0  0  0  0
   -1.8367    0.8693   -0.6456 H   0  0  0  0  0  0  0  0  0  0  0  0
   -4.0094   -2.1389   -2.1126 H   0  0  0  0  0  0  0  0  0  0  0  0
   -5.3147   -0.8825   -3.8141 H   0  0  0  0  0  0  0  0  0  0  0  0
   -6.0274    1.4232   -3.3322 H   0  0  0  0  0  0  0  0  0  0  0  0
   -5.4324    2.4727   -1.1412 H   0  0  0  0  0  0  0  0  0  0  0  0
   -4.0524    0.7847    1.6751 H   0  0  0  0  0  0  0  0  0  0  0  0
   -3.9221    2.3840    0.8808 H   0  0  0  0  0  0  0  0  0  0  0  0
   -2.4349   -3.3542    1.5189 H   0  0  0  0  0  0  0  0  0  0  0  0
    0.3254   -1.7827    2.8908 H   0  0  0  0  0  0  0  0  0  0  0  0
  1  2  1  0
  2  3  1  0
  3  4  1  0
  4  5  1  0
  5  6  1  0
  6  7  1  0
  7  8  2  0
  8  9  1  0
  9 10  2  0
 10 11  1  0
 11 12  1  0
 12 13  2  0
 13 14  1  0
 14 15  2  0
 15 16  1  0
 16 17  2  0
 17 18  1  0
 10 19  1  0
 19 20  1  0
 19 21  2  0
 21  7  1  0
 17 12  1  0
  1 22  1  0
  1 23  1  0
  1 24  1  0
  2 25  1  0
  2 26  1  0
  3 27  1  0
  3 28  1  0
  4 29  1  0
  4 30  1  0
  5 31  1  0
  5 32  1  0
  6 33  1  0
  6 34  1  0
  8 35  1  0
  9 36  1  0
 13 37  1  0
 14 38  1  0
 15 39  1  0
 16 40  1  0
 18 41  1  0
 18 42  1  0
 20 43  1  0
 21 44  1  0
M  END
$$$$
