@<TRIPOS>MOLECULE
*****
 44 45 0 0 0
SMALL
GASTEIGER

@<TRIPOS>ATOM
      1 C           5.5612    1.2741   -0.4437 C.3     1  UNL1       -0.0653
      2 C           5.3550   -0.2031   -0.3899 C.3     1  UNL1       -0.0559
      3 C           4.0026   -0.6211   -0.9285 C.3     1  UNL1       -0.0533
      4 C           2.9133    0.0144   -0.1316 C.3     1  UNL1       -0.0528
      5 C           2.9547   -0.3689    1.3308 C.3     1  UNL1       -0.0491
      6 C           1.8414    0.2924    2.0964 C.3     1  UNL1       -0.0276
      7 C           0.4972   -0.0830    1.5866 C.ar    1  UNL1       -0.0437
      8 C          -0.1431    0.6348    0.5996 C.ar    1  UNL1       -0.0549
      9 C          -1.3947    0.2677    0.1383 C.ar    1  UNL1       -0.0154
     10 C          -2.0203   -0.8380    0.6734 C.ar    1  UNL1        0.1697
     11 O          -3.2738   -1.2443    0.2466 O.3     1  UNL1       -0.4505
     12 C          -3.9998   -0.5470   -0.7047 C.ar    1  UNL1        0.1491
     13 C          -4.3324   -1.1283   -1.9240 C.ar    1  UNL1       -0.0175
     14 C          -5.0526   -0.4203   -2.8498 C.ar    1  UNL1       -0.0582
     15 C          -5.4501    0.8638   -2.5822 C.ar    1  UNL1       -0.0598
     16 C          -5.1226    1.4423   -1.3755 C.ar    1  UNL1       -0.0375
     17 C          -4.3943    0.7425   -0.4244 C.ar    1  UNL1        0.0674
     18 N          -4.0935    1.3780    0.8198 N.pl3   1  UNL1       -0.3551
     19 C          -1.3978   -1.5915    1.6787 C.ar    1  UNL1        0.1593
     20 O          -2.0396   -2.7047    2.2092 O.3     1  UNL1       -0.5033
     21 C          -0.1517   -1.1846    2.1032 C.ar    1  UNL1       -0.0133
     22 H           6.6692    1.4717   -0.4951 H       1  UNL1        0.0230
     23 H           5.2200    1.8003    0.4712 H       1  UNL1        0.0230
     24 H           5.0296    1.7668   -1.2986 H       1  UNL1        0.0230
     25 H           6.1148   -0.7262   -1.0370 H       1  UNL1        0.0263
     26 H           5.5321   -0.5488    0.6481 H       1  UNL1        0.0263
     27 H           3.9421   -0.1780   -1.9634 H       1  UNL1        0.0265
     28 H           3.9169   -1.7019   -1.0626 H       1  UNL1        0.0265
     29 H           3.0660    1.1173   -0.1728 H       1  UNL1        0.0265
     30 H           1.9199   -0.1710   -0.5803 H       1  UNL1        0.0265
     31 H           3.9125   -0.1166    1.8053 H       1  UNL1        0.0268
     32 H           2.8122   -1.4690    1.4373 H       1  UNL1        0.0268
     33 H           1.9574    0.1085    3.1830 H       1  UNL1        0.0313
     34 H           1.9630    1.4019    1.9330 H       1  UNL1        0.0313
     35 H           0.3897    1.4943    0.2135 H       1  UNL1        0.0621
     36 H          -1.8367    0.8693   -0.6456 H       1  UNL1        0.0655
     37 H          -4.0094   -2.1389   -2.1126 H       1  UNL1        0.0655
     38 H          -5.3147   -0.8825   -3.8141 H       1  UNL1        0.0619
     39 H          -6.0274    1.4232   -3.3322 H       1  UNL1        0.0618
     40 H          -5.4324    2.4727   -1.1412 H       1  UNL1        0.0637
     41 H          -4.0524    0.7847    1.6751 H       1  UNL1        0.1424
     42 H          -3.9221    2.3840    0.8808 H       1  UNL1        0.1424
     43 H          -2.4349   -3.3542    1.5189 H       1  UNL1        0.2923
     44 H           0.3254   -1.7827    2.8908 H       1  UNL1        0.0658
@<TRIPOS>BOND
     1     1     2    1
     2     2     3    1
     3     3     4    1
     4     4     5    1
     5     5     6    1
     6     6     7    1
     7     7     8   ar
     8     8     9   ar
     9     9    10   ar
    10    10    11    1
    11    11    12    1
    12    12    13   ar
    13    13    14   ar
    14    14    15   ar
    15    15    16   ar
    16    16    17   ar
    17    17    18    1
    18    10    19   ar
    19    19    20    1
    20    19    21   ar
    21    21     7   ar
    22    17    12   ar
    23     1    22    1
    24     1    23    1
    25     1    24    1
    26     2    25    1
    27     2    26    1
    28     3    27    1
    29     3    28    1
    30     4    29    1
    31     4    30    1
    32     5    31    1
    33     5    32    1
    34     6    33    1
    35     6    34    1
    36     8    35    1
    37     9    36    1
    38    13    37    1
    39    14    38    1
    40    15    39    1
    41    16    40    1
    42    18    41    1
    43    18    42    1
    44    20    43    1
    45    21    44    1
