@<TRIPOS>MOLECULE
*****
 56 58 0 0 0
SMALL
GASTEIGER

@<TRIPOS>ATOM
      1 C          -7.0864   -1.2787    0.1911 C.3     1  UNL1       -0.0306
      2 C          -6.8700   -0.3050    1.3057 C.3     1  UNL1        0.0897
      3 O          -5.5562    0.2095    1.3449 O.3     1  UNL1       -0.4643
      4 C          -5.0525    0.9099    0.2617 C.2     1  UNL1        0.3172
      5 O          -5.8171    1.0522   -0.7243 O.2     1  UNL1       -0.2499
      6 C          -3.7071    1.4822    0.2020 C.3     1  UNL1        0.0870
      7 C          -3.5249    2.2536   -1.0786 C.3     1  UNL1       -0.0456
      8 C          -3.5713    2.4930    1.3427 C.3     1  UNL1       -0.0456
      9 C          -2.6261    0.5057    0.3291 C.ar    1  UNL1       -0.0290
     10 C          -2.5932   -0.5121    1.2755 C.ar    1  UNL1       -0.0555
     11 C          -1.5445   -1.4127    1.3518 C.ar    1  UNL1       -0.0357
     12 C          -0.4815   -1.3261    0.4756 C.ar    1  UNL1        0.0700
     13 C          -0.4973   -0.3230   -0.4696 C.ar    1  UNL1        0.0881
     14 C          -1.5567    0.5653   -0.5262 C.ar    1  UNL1       -0.0301
     15 N           0.5452   -0.2558   -1.3142 N.ar    1  UNL1       -0.2444
     16 C           1.5904   -1.1226   -1.2697 C.ar    1  UNL1        0.1105
     17 C           2.6777   -0.9470   -2.2497 C.3     1  UNL1        0.0201
     18 C           3.8948   -0.3150   -1.6515 C.ar    1  UNL1       -0.0414
     19 C           3.9842    1.0597   -1.5828 C.ar    1  UNL1       -0.0574
     20 C           5.0900    1.6747   -1.0459 C.ar    1  UNL1       -0.0466
     21 C           6.1674    0.9498   -0.5479 C.ar    1  UNL1        0.0647
     22 C           7.3209    1.6141    0.0127 C.2     1  UNL1        0.3081
     23 N           7.7475    2.7757   -0.3349 N.2     1  UNL1       -0.0994
     24 N           8.0437    0.9242    1.0343 N.pl3   1  UNL1       -0.2466
     25 C           6.0774   -0.4235   -0.6171 C.ar    1  UNL1       -0.0466
     26 C           4.9531   -1.0499   -1.1630 C.ar    1  UNL1       -0.0574
     27 C           1.5481   -2.1010   -0.3043 C.ar    1  UNL1        0.2732
     28 O           2.5093   -2.9247   -0.2382 O.2     1  UNL1       -0.2657
     29 N           0.5260   -2.2126    0.5676 N.ar    1  UNL1       -0.3083
     30 C           0.5198   -3.2703    1.5810 C.3     1  UNL1        0.0154
     31 H          -8.0874   -1.1436   -0.2179 H       1  UNL1        0.0262
     32 H          -6.2714   -1.2827   -0.5562 H       1  UNL1        0.0262
     33 H          -7.0729   -2.3130    0.6439 H       1  UNL1        0.0262
     34 H          -7.5373    0.5800    1.1263 H       1  UNL1        0.0694
     35 H          -7.1871   -0.7423    2.2560 H       1  UNL1        0.0694
     36 H          -3.4322    1.6264   -1.9718 H       1  UNL1        0.0243
     37 H          -4.4545    2.8731   -1.2151 H       1  UNL1        0.0243
     38 H          -2.6861    2.9597   -0.9403 H       1  UNL1        0.0243
     39 H          -4.5550    2.9218    1.5933 H       1  UNL1        0.0243
     40 H          -3.1438    1.9394    2.2190 H       1  UNL1        0.0243
     41 H          -2.8186    3.2273    1.0198 H       1  UNL1        0.0243
     42 H          -3.4402   -0.5508    1.9472 H       1  UNL1        0.0621
     43 H          -1.5880   -2.1798    2.1166 H       1  UNL1        0.0639
     44 H          -1.5050    1.3389   -1.3022 H       1  UNL1        0.0642
     45 H           2.9949   -1.9606   -2.6252 H       1  UNL1        0.0378
     46 H           2.3383   -0.3092   -3.0733 H       1  UNL1        0.0378
     47 H           3.1815    1.6850   -1.9526 H       1  UNL1        0.0621
     48 H           5.1440    2.7543   -1.0002 H       1  UNL1        0.0626
     49 H           7.2717    3.3343   -1.0705 H       1  UNL1        0.3633
     50 H           8.5877    0.0700    0.7630 H       1  UNL1        0.2884
     51 H           8.0500    1.2325    2.0196 H       1  UNL1        0.2884
     52 H           6.8841   -1.0313   -0.2458 H       1  UNL1        0.0626
     53 H           4.9344   -2.1258   -1.1962 H       1  UNL1        0.0621
     54 H          -0.1892   -4.0669    1.2989 H       1  UNL1        0.0457
     55 H           0.3205   -2.8551    2.5888 H       1  UNL1        0.0457
     56 H           1.5505   -3.6773    1.6172 H       1  UNL1        0.0457
@<TRIPOS>BOND
     1     1     2    1
     2     2     3    1
     3     3     4    1
     4     4     5    2
     5     4     6    1
     6     6     7    1
     7     6     8    1
     8     6     9    1
     9     9    10   ar
    10    10    11   ar
    11    11    12   ar
    12    12    13   ar
    13    13    14   ar
    14    13    15   ar
    15    15    16   ar
    16    16    17    1
    17    17    18    1
    18    18    19   ar
    19    19    20   ar
    20    20    21   ar
    21    21    22    1
    22    22    23    2
    23    22    24    1
    24    21    25   ar
    25    25    26   ar
    26    16    27   ar
    27    27    28    2
    28    27    29   ar
    29    29    30    1
    30    14     9   ar
    31    26    18   ar
    32    29    12   ar
    33     1    31    1
    34     1    32    1
    35     1    33    1
    36     2    34    1
    37     2    35    1
    38     7    36    1
    39     7    37    1
    40     7    38    1
    41     8    39    1
    42     8    40    1
    43     8    41    1
    44    10    42    1
    45    11    43    1
    46    14    44    1
    47    17    45    1
    48    17    46    1
    49    19    47    1
    50    20    48    1
    51    23    49    1
    52    24    50    1
    53    24    51    1
    54    25    52    1
    55    26    53    1
    56    30    54    1
    57    30    55    1
    58    30    56    1
