
     RDKit          3D

 56 58  0  0  0  0  0  0  0  0999 V2000
   -7.0864   -1.2787    0.1911 C   0  0  0  0  0  0  0  0  0  0  0  0
   -6.8700   -0.3050    1.3057 C   0  0  0  0  0  0  0  0  0  0  0  0
   -5.5562    0.2095    1.3449 O   0  0  0  0  0  0  0  0  0  0  0  0
   -5.0525    0.9099    0.2617 C   0  0  0  0  0  0  0  0  0  0  0  0
   -5.8171    1.0522   -0.7243 O   0  0  0  0  0  0  0  0  0  0  0  0
   -3.7071    1.4822    0.2020 C   0  0  0  0  0  0  0  0  0  0  0  0
   -3.5249    2.2536   -1.0786 C   0  0  0  0  0  0  0  0  0  0  0  0
   -3.5713    2.4930    1.3427 C   0  0  0  0  0  0  0  0  0  0  0  0
   -2.6261    0.5057    0.3291 C   0  0  0  0  0  0  0  0  0  0  0  0
   -2.5932   -0.5121    1.2755 C   0  0  0  0  0  0  0  0  0  0  0  0
   -1.5445   -1.4127    1.3518 C   0  0  0  0  0  0  0  0  0  0  0  0
   -0.4815   -1.3261    0.4756 C   0  0  0  0  0  0  0  0  0  0  0  0
   -0.4973   -0.3230   -0.4696 C   0  0  0  0  0  0  0  0  0  0  0  0
   -1.5567    0.5653   -0.5262 C   0  0  0  0  0  0  0  0  0  0  0  0
    0.5452   -0.2558   -1.3142 N   0  0  0  0  0  0  0  0  0  0  0  0
    1.5904   -1.1226   -1.2697 C   0  0  0  0  0  0  0  0  0  0  0  0
    2.6777   -0.9470   -2.2497 C   0  0  0  0  0  0  0  0  0  0  0  0
    3.8948   -0.3150   -1.6515 C   0  0  0  0  0  0  0  0  0  0  0  0
    3.9842    1.0597   -1.5828 C   0  0  0  0  0  0  0  0  0  0  0  0
    5.0900    1.6747   -1.0459 C   0  0  0  0  0  0  0  0  0  0  0  0
    6.1674    0.9498   -0.5479 C   0  0  0  0  0  0  0  0  0  0  0  0
    7.3209    1.6141    0.0127 C   0  0  0  0  0  0  0  0  0  0  0  0
    7.7475    2.7757   -0.3349 N   0  0  0  0  0  0  0  0  0  0  0  0
    8.0437    0.9242    1.0343 N   0  0  0  0  0  0  0  0  0  0  0  0
    6.0774   -0.4235   -0.6171 C   0  0  0  0  0  0  0  0  0  0  0  0
    4.9531   -1.0499   -1.1630 C   0  0  0  0  0  0  0  0  0  0  0  0
    1.5481   -2.1010   -0.3043 C   0  0  0  0  0  0  0  0  0  0  0  0
    2.5093   -2.9247   -0.2382 O   0  0  0  0  0  0  0  0  0  0  0  0
    0.5260   -2.2126    0.5676 N   0  0  0  0  0  0  0  0  0  0  0  0
    0.5198   -3.2703    1.5810 C   0  0  0  0  0  0  0  0  0  0  0  0
   -8.0874   -1.1436   -0.2179 H   0  0  0  0  0  0  0  0  0  0  0  0
   -6.2714   -1.2827   -0.5562 H   0  0  0  0  0  0  0  0  0  0  0  0
   -7.0729   -2.3130    0.6439 H   0  0  0  0  0  0  0  0  0  0  0  0
   -7.5373    0.5800    1.1263 H   0  0  0  0  0  0  0  0  0  0  0  0
   -7.1871   -0.7423    2.2560 H   0  0  0  0  0  0  0  0  0  0  0  0
   -3.4322    1.6264   -1.9718 H   0  0  0  0  0  0  0  0  0  0  0  0
   -4.4545    2.8731   -1.2151 H   0  0  0  0  0  0  0  0  0  0  0  0
   -2.6861    2.9597   -0.9403 H   0  0  0  0  0  0  0  0  0  0  0  0
   -4.5550    2.9218    1.5933 H   0  0  0  0  0  0  0  0  0  0  0  0
   -3.1438    1.9394    2.2190 H   0  0  0  0  0  0  0  0  0  0  0  0
   -2.8186    3.2273    1.0198 H   0  0  0  0  0  0  0  0  0  0  0  0
   -3.4402   -0.5508    1.9472 H   0  0  0  0  0  0  0  0  0  0  0  0
   -1.5880   -2.1798    2.1166 H   0  0  0  0  0  0  0  0  0  0  0  0
   -1.5050    1.3389   -1.3022 H   0  0  0  0  0  0  0  0  0  0  0  0
    2.9949   -1.9606   -2.6252 H   0  0  0  0  0  0  0  0  0  0  0  0
    2.3383   -0.3092   -3.0733 H   0  0  0  0  0  0  0  0  0  0  0  0
    3.1815    1.6850   -1.9526 H   0  0  0  0  0  0  0  0  0  0  0  0
    5.1440    2.7543   -1.0002 H   0  0  0  0  0  0  0  0  0  0  0  0
    7.2717    3.3343   -1.0705 H   0  0  0  0  0  0  0  0  0  0  0  0
    8.5877    0.0700    0.7630 H   0  0  0  0  0  0  0  0  0  0  0  0
    8.0500    1.2325    2.0196 H   0  0  0  0  0  0  0  0  0  0  0  0
    6.8841   -1.0313   -0.2458 H   0  0  0  0  0  0  0  0  0  0  0  0
    4.9344   -2.1258   -1.1962 H   0  0  0  0  0  0  0  0  0  0  0  0
   -0.1892   -4.0669    1.2989 H   0  0  0  0  0  0  0  0  0  0  0  0
    0.3205   -2.8551    2.5888 H   0  0  0  0  0  0  0  0  0  0  0  0
    1.5505   -3.6773    1.6172 H   0  0  0  0  0  0  0  0  0  0  0  0
  1  2  1  0
  2  3  1  0
  3  4  1  0
  4  5  2  0
  4  6  1  0
  6  7  1  0
  6  8  1  0
  6  9  1  0
  9 10  2  0
 10 11  1  0
 11 12  2  0
 12 13  1  0
 13 14  2  0
 13 15  1  0
 15 16  2  0
 16 17  1  0
 17 18  1  0
 18 19  2  0
 19 20  1  0
 20 21  2  0
 21 22  1  0
 22 23  2  3
 22 24  1  0
 21 25  1  0
 25 26  2  0
 16 27  1  0
 27 28  2  0
 27 29  1  0
 29 30  1  0
 14  9  1  0
 26 18  1  0
 29 12  1  0
  1 31  1  0
  1 32  1  0
  1 33  1  0
  2 34  1  0
  2 35  1  0
  7 36  1  0
  7 37  1  0
  7 38  1  0
  8 39  1  0
  8 40  1  0
  8 41  1  0
 10 42  1  0
 11 43  1  0
 14 44  1  0
 17 45  1  0
 17 46  1  0
 19 47  1  0
 20 48  1  0
 23 49  1  0
 24 50  1  0
 24 51  1  0
 25 52  1  0
 26 53  1  0
 30 54  1  0
 30 55  1  0
 30 56  1  0
M  END
$$$$
