@<TRIPOS>MOLECULE
*****
 62 64 0 0 0
SMALL
GASTEIGER

@<TRIPOS>ATOM
      1 C          -7.2792   -2.4879    3.8545 C.3     1  UNL1        0.0790
      2 O          -7.3677   -1.2125    3.2532 O.3     1  UNL1       -0.4915
      3 C          -6.6477   -0.8810    2.1162 C.ar    1  UNL1        0.1615
      4 C          -5.7884   -1.7299    1.4647 C.ar    1  UNL1       -0.0156
      5 C          -5.0879   -1.3516    0.3257 C.ar    1  UNL1       -0.0459
      6 C          -5.2156   -0.1075   -0.2125 C.ar    1  UNL1        0.0404
      7 C          -4.5261    0.3755   -1.3944 C.2     1  UNL1        0.2445
      8 O          -4.7627    1.5334   -1.8038 O.2     1  UNL1       -0.2702
      9 N          -3.6095   -0.4269   -2.0760 N.am    1  UNL1       -0.3072
     10 C          -2.8772   -0.0287   -3.2589 C.3     1  UNL1        0.0372
     11 C          -1.7741    0.8615   -2.8680 C.ar    1  UNL1       -0.0296
     12 C          -1.8685    2.2313   -2.8819 C.ar    1  UNL1       -0.0570
     13 C          -0.7711    2.9650   -2.4826 C.ar    1  UNL1       -0.0607
     14 C           0.4050    2.3199   -2.0753 C.ar    1  UNL1       -0.0496
     15 C           0.5082    0.9550   -2.0588 C.ar    1  UNL1        0.0373
     16 C           1.7420    0.3068   -1.6332 C.2     1  UNL1        0.2483
     17 O           1.7105   -0.9483   -1.6031 O.2     1  UNL1       -0.2699
     18 N           2.9288    0.9422   -1.2649 N.am    1  UNL1       -0.2815
     19 C           4.1483    0.3653   -0.8434 C.ar    1  UNL1        0.0337
     20 C           4.3954   -0.9810   -0.7001 C.ar    1  UNL1       -0.0402
     21 C           5.6496   -1.4500   -0.2741 C.ar    1  UNL1       -0.0556
     22 C           6.6636   -0.6012    0.0122 C.ar    1  UNL1       -0.0333
     23 C           8.0115   -1.0104    0.4637 C.3     1  UNL1        0.0235
     24 N           8.1730   -1.1268    1.8692 N.3     1  UNL1       -0.3042
     25 C           7.9428    0.0575    2.6306 C.3     1  UNL1       -0.0127
     26 C           7.7470   -2.3518    2.4607 C.3     1  UNL1       -0.0127
     27 C           6.4215    0.7541   -0.1296 C.ar    1  UNL1       -0.0556
     28 C           5.1951    1.2233   -0.5469 C.ar    1  UNL1       -0.0402
     29 C          -0.5941    0.2344   -2.4594 C.ar    1  UNL1       -0.0449
     30 C          -6.0878    0.7595    0.4458 C.ar    1  UNL1       -0.0042
     31 C          -6.7791    0.3836    1.5710 C.ar    1  UNL1        0.1622
     32 O          -7.6481    1.2610    2.2206 O.3     1  UNL1       -0.4914
     33 C          -7.7936    2.5564    1.6796 C.3     1  UNL1        0.0790
     34 H          -6.3468   -2.5168    4.4441 H       1  UNL1        0.0660
     35 H          -7.1669   -3.2985    3.0778 H       1  UNL1        0.0660
     36 H          -8.1803   -2.7233    4.4610 H       1  UNL1        0.0660
     37 H          -5.6491   -2.7342    1.8519 H       1  UNL1        0.0655
     38 H          -4.4141   -2.0613   -0.1615 H       1  UNL1        0.0626
     39 H          -3.4245   -1.4020   -1.7139 H       1  UNL1        0.1493
     40 H          -3.5767    0.4583   -3.9707 H       1  UNL1        0.0512
     41 H          -2.4736   -0.9166   -3.8005 H       1  UNL1        0.0512
     42 H          -2.7899    2.7025   -3.2093 H       1  UNL1        0.0621
     43 H          -0.8328    4.0517   -2.4884 H       1  UNL1        0.0618
     44 H           1.2398    2.9220   -1.7691 H       1  UNL1        0.0625
     45 H           2.9029    2.0063   -1.3128 H       1  UNL1        0.1551
     46 H           3.6408   -1.6935   -0.9092 H       1  UNL1        0.0636
     47 H           5.8170   -2.5221   -0.1698 H       1  UNL1        0.0621
     48 H           8.7567   -0.2531    0.0917 H       1  UNL1        0.0475
     49 H           8.3160   -1.9729    0.0006 H       1  UNL1        0.0475
     50 H           6.8758    0.3291    2.7446 H       1  UNL1        0.0391
     51 H           8.4304    0.8987    2.0888 H       1  UNL1        0.0391
     52 H           8.4713    0.0210    3.6234 H       1  UNL1        0.0391
     53 H           8.6685   -2.9766    2.6528 H       1  UNL1        0.0391
     54 H           7.2837   -2.2106    3.4730 H       1  UNL1        0.0391
     55 H           7.1012   -2.9725    1.8087 H       1  UNL1        0.0391
     56 H           7.2335    1.4624    0.0969 H       1  UNL1        0.0621
     57 H           5.1009    2.3043   -0.6284 H       1  UNL1        0.0636
     58 H          -0.5106   -0.8467   -2.4463 H       1  UNL1        0.0628
     59 H          -6.2073    1.7657    0.0309 H       1  UNL1        0.0663
     60 H          -6.8238    3.0925    1.8646 H       1  UNL1        0.0660
     61 H          -7.9948    2.5729    0.6062 H       1  UNL1        0.0660
     62 H          -8.6111    3.1230    2.1789 H       1  UNL1        0.0660
@<TRIPOS>BOND
     1     1     2    1
     2     2     3    1
     3     3     4   ar
     4     4     5   ar
     5     5     6   ar
     6     6     7    1
     7     7     8    2
     8     7     9   am
     9     9    10    1
    10    10    11    1
    11    11    12   ar
    12    12    13   ar
    13    13    14   ar
    14    14    15   ar
    15    15    16    1
    16    16    17    2
    17    16    18   am
    18    18    19    1
    19    19    20   ar
    20    20    21   ar
    21    21    22   ar
    22    22    23    1
    23    23    24    1
    24    24    25    1
    25    24    26    1
    26    22    27   ar
    27    27    28   ar
    28    15    29   ar
    29     6    30   ar
    30    30    31   ar
    31    31    32    1
    32    32    33    1
    33    31     3   ar
    34    29    11   ar
    35    28    19   ar
    36     1    34    1
    37     1    35    1
    38     1    36    1
    39     4    37    1
    40     5    38    1
    41     9    39    1
    42    10    40    1
    43    10    41    1
    44    12    42    1
    45    13    43    1
    46    14    44    1
    47    18    45    1
    48    20    46    1
    49    21    47    1
    50    23    48    1
    51    23    49    1
    52    25    50    1
    53    25    51    1
    54    25    52    1
    55    26    53    1
    56    26    54    1
    57    26    55    1
    58    27    56    1
    59    28    57    1
    60    29    58    1
    61    30    59    1
    62    33    60    1
    63    33    61    1
    64    33    62    1
