
     RDKit          3D

  5  4  0  0  0  0  0  0  0  0999 V2000
   -2.2407   -0.9176   -0.5193 O   0  0  0  0  0  0  0  0  0  0  0  0
   -1.4276    0.2277   -0.0076 As  0  0  0  0  0  3  0  0  0  0  0  0
   -0.1263    1.3562    0.0730 O   0  0  0  0  0  0  0  0  0  0  0  0
    1.3046   -0.4299    0.9313 As  0  0  0  0  0  3  0  0  0  0  0  0
    2.4900   -0.2363   -0.7041 O   0  0  0  0  0  0  0  0  0  0  0  0
  1  2  2  0
  2  3  1  0
  3  4  1  0
  4  5  2  0
M  END
$$$$
