@<TRIPOS>MOLECULE
*****
 47 48 0 0 0
SMALL
GASTEIGER

@<TRIPOS>ATOM
      1 C          -3.8265   -0.5834    1.9924 C.3     1  UNL1       -0.0615
      2 C          -3.6344   -1.2524    0.6581 C.3     1  UNL1       -0.0323
      3 C          -3.5731   -2.7615    0.8910 C.3     1  UNL1       -0.0615
      4 C          -2.4180   -0.8235   -0.0784 C.3     1  UNL1        0.0234
      5 N          -2.3237    0.5418   -0.4062 N.3     1  UNL1       -0.1675
      6 C          -2.4372    0.8808   -1.7884 C.3     1  UNL1        0.0988
      7 C          -3.4815    1.8796   -2.0232 C.2     1  UNL1        0.2512
      8 O          -3.7034    2.2828   -3.1940 O.2     1  UNL1       -0.2723
      9 N          -4.2789    2.4346   -0.9837 N.am    1  UNL1       -0.1964
     10 O          -5.2387    3.3566   -1.2232 O.3     1  UNL1       -0.2952
     11 S          -1.2438    1.4725    0.4952 S.O2    1  UNL1        0.0613
     12 O          -1.5734    1.4227    1.9492 O.2     1  UNL1       -0.1528
     13 O          -1.2581    2.9301    0.1060 O.2     1  UNL1       -0.1528
     14 C           0.4216    0.9241    0.3348 C.ar    1  UNL1        0.1055
     15 C           1.2061    1.4453   -0.6585 C.ar    1  UNL1       -0.0348
     16 C           2.5218    1.0243   -0.8002 C.ar    1  UNL1       -0.0522
     17 C           3.0905    0.0775    0.0384 C.ar    1  UNL1       -0.0178
     18 C           4.4707   -0.3623   -0.1123 C.ar    1  UNL1       -0.0179
     19 C           4.8656   -1.6369    0.2187 C.ar    1  UNL1       -0.0540
     20 C           6.1657   -2.0771    0.0853 C.ar    1  UNL1       -0.0612
     21 C           7.1392   -1.2285   -0.3983 C.ar    1  UNL1       -0.0617
     22 C           6.7529    0.0519   -0.7330 C.ar    1  UNL1       -0.0612
     23 C           5.4520    0.4838   -0.5967 C.ar    1  UNL1       -0.0540
     24 C           2.2945   -0.4343    1.0261 C.ar    1  UNL1       -0.0522
     25 C           0.9863   -0.0238    1.1767 C.ar    1  UNL1       -0.0348
     26 H          -4.7084   -1.0463    2.5108 H       1  UNL1        0.0233
     27 H          -2.9454   -0.7918    2.6267 H       1  UNL1        0.0233
     28 H          -4.0923    0.4774    1.8869 H       1  UNL1        0.0233
     29 H          -4.5705   -1.0788    0.0614 H       1  UNL1        0.0308
     30 H          -2.7786   -3.2395    0.2821 H       1  UNL1        0.0233
     31 H          -3.4216   -2.9840    1.9747 H       1  UNL1        0.0233
     32 H          -4.5327   -3.2382    0.6132 H       1  UNL1        0.0233
     33 H          -2.2471   -1.5125   -0.9483 H       1  UNL1        0.0447
     34 H          -1.5425   -1.0636    0.6073 H       1  UNL1        0.0447
     35 H          -2.7503   -0.0533   -2.3389 H       1  UNL1        0.0540
     36 H          -1.4547    1.1635   -2.2596 H       1  UNL1        0.0540
     37 H          -4.1379    2.1358    0.0101 H       1  UNL1        0.1822
     38 H          -5.4199    3.9063   -0.4208 H       1  UNL1        0.2414
     39 H           0.7777    2.1792   -1.3147 H       1  UNL1        0.0637
     40 H           3.0882    1.4644   -1.5924 H       1  UNL1        0.0624
     41 H           4.0921   -2.3087    0.6022 H       1  UNL1        0.0624
     42 H           6.4072   -3.0963    0.3657 H       1  UNL1        0.0618
     43 H           8.1809   -1.5581   -0.5128 H       1  UNL1        0.0618
     44 H           7.5154    0.7162   -1.1115 H       1  UNL1        0.0618
     45 H           5.1508    1.4903   -0.8603 H       1  UNL1        0.0624
     46 H           2.6794   -1.1700    1.7054 H       1  UNL1        0.0624
     47 H           0.3341   -0.4169    1.9555 H       1  UNL1        0.0637
@<TRIPOS>BOND
     1     1     2    1
     2     2     3    1
     3     2     4    1
     4     4     5    1
     5     5     6    1
     6     6     7    1
     7     7     8    2
     8     7     9   am
     9     9    10    1
    10     5    11    1
    11    11    12    2
    12    11    13    2
    13    11    14    1
    14    14    15   ar
    15    15    16   ar
    16    16    17   ar
    17    17    18    1
    18    18    19   ar
    19    19    20   ar
    20    20    21   ar
    21    21    22   ar
    22    22    23   ar
    23    17    24   ar
    24    24    25   ar
    25    25    14   ar
    26    23    18   ar
    27     1    26    1
    28     1    27    1
    29     1    28    1
    30     2    29    1
    31     3    30    1
    32     3    31    1
    33     3    32    1
    34     4    33    1
    35     4    34    1
    36     6    35    1
    37     6    36    1
    38     9    37    1
    39    10    38    1
    40    15    39    1
    41    16    40    1
    42    19    41    1
    43    20    42    1
    44    21    43    1
    45    22    44    1
    46    23    45    1
    47    24    46    1
    48    25    47    1
