
     RDKit          3D

 47 48  0  0  0  0  0  0  0  0999 V2000
   -3.8265   -0.5834    1.9924 C   0  0  0  0  0  0  0  0  0  0  0  0
   -3.6344   -1.2524    0.6581 C   0  0  0  0  0  0  0  0  0  0  0  0
   -3.5731   -2.7615    0.8910 C   0  0  0  0  0  0  0  0  0  0  0  0
   -2.4180   -0.8235   -0.0784 C   0  0  0  0  0  0  0  0  0  0  0  0
   -2.3237    0.5418   -0.4062 N   0  0  0  0  0  0  0  0  0  0  0  0
   -2.4372    0.8808   -1.7884 C   0  0  0  0  0  0  0  0  0  0  0  0
   -3.4815    1.8796   -2.0232 C   0  0  0  0  0  0  0  0  0  0  0  0
   -3.7034    2.2828   -3.1940 O   0  0  0  0  0  0  0  0  0  0  0  0
   -4.2789    2.4346   -0.9837 N   0  0  0  0  0  0  0  0  0  0  0  0
   -5.2387    3.3566   -1.2232 O   0  0  0  0  0  0  0  0  0  0  0  0
   -1.2438    1.4725    0.4952 S   0  0  0  0  0  6  0  0  0  0  0  0
   -1.5734    1.4227    1.9492 O   0  0  0  0  0  0  0  0  0  0  0  0
   -1.2581    2.9301    0.1060 O   0  0  0  0  0  0  0  0  0  0  0  0
    0.4216    0.9241    0.3348 C   0  0  0  0  0  0  0  0  0  0  0  0
    1.2061    1.4453   -0.6585 C   0  0  0  0  0  0  0  0  0  0  0  0
    2.5218    1.0243   -0.8002 C   0  0  0  0  0  0  0  0  0  0  0  0
    3.0905    0.0775    0.0384 C   0  0  0  0  0  0  0  0  0  0  0  0
    4.4707   -0.3623   -0.1123 C   0  0  0  0  0  0  0  0  0  0  0  0
    4.8656   -1.6369    0.2187 C   0  0  0  0  0  0  0  0  0  0  0  0
    6.1657   -2.0771    0.0853 C   0  0  0  0  0  0  0  0  0  0  0  0
    7.1392   -1.2285   -0.3983 C   0  0  0  0  0  0  0  0  0  0  0  0
    6.7529    0.0519   -0.7330 C   0  0  0  0  0  0  0  0  0  0  0  0
    5.4520    0.4838   -0.5967 C   0  0  0  0  0  0  0  0  0  0  0  0
    2.2945   -0.4343    1.0261 C   0  0  0  0  0  0  0  0  0  0  0  0
    0.9863   -0.0238    1.1767 C   0  0  0  0  0  0  0  0  0  0  0  0
   -4.7084   -1.0463    2.5108 H   0  0  0  0  0  0  0  0  0  0  0  0
   -2.9454   -0.7918    2.6267 H   0  0  0  0  0  0  0  0  0  0  0  0
   -4.0923    0.4774    1.8869 H   0  0  0  0  0  0  0  0  0  0  0  0
   -4.5705   -1.0788    0.0614 H   0  0  0  0  0  0  0  0  0  0  0  0
   -2.7786   -3.2395    0.2821 H   0  0  0  0  0  0  0  0  0  0  0  0
   -3.4216   -2.9840    1.9747 H   0  0  0  0  0  0  0  0  0  0  0  0
   -4.5327   -3.2382    0.6132 H   0  0  0  0  0  0  0  0  0  0  0  0
   -2.2471   -1.5125   -0.9483 H   0  0  0  0  0  0  0  0  0  0  0  0
   -1.5425   -1.0636    0.6073 H   0  0  0  0  0  0  0  0  0  0  0  0
   -2.7503   -0.0533   -2.3389 H   0  0  0  0  0  0  0  0  0  0  0  0
   -1.4547    1.1635   -2.2596 H   0  0  0  0  0  0  0  0  0  0  0  0
   -4.1379    2.1358    0.0101 H   0  0  0  0  0  0  0  0  0  0  0  0
   -5.4199    3.9063   -0.4208 H   0  0  0  0  0  0  0  0  0  0  0  0
    0.7777    2.1792   -1.3147 H   0  0  0  0  0  0  0  0  0  0  0  0
    3.0882    1.4644   -1.5924 H   0  0  0  0  0  0  0  0  0  0  0  0
    4.0921   -2.3087    0.6022 H   0  0  0  0  0  0  0  0  0  0  0  0
    6.4072   -3.0963    0.3657 H   0  0  0  0  0  0  0  0  0  0  0  0
    8.1809   -1.5581   -0.5128 H   0  0  0  0  0  0  0  0  0  0  0  0
    7.5154    0.7162   -1.1115 H   0  0  0  0  0  0  0  0  0  0  0  0
    5.1508    1.4903   -0.8603 H   0  0  0  0  0  0  0  0  0  0  0  0
    2.6794   -1.1700    1.7054 H   0  0  0  0  0  0  0  0  0  0  0  0
    0.3341   -0.4169    1.9555 H   0  0  0  0  0  0  0  0  0  0  0  0
  1  2  1  0
  2  3  1  0
  2  4  1  0
  4  5  1  0
  5  6  1  0
  6  7  1  0
  7  8  2  0
  7  9  1  0
  9 10  1  0
  5 11  1  0
 11 12  2  0
 11 13  2  0
 11 14  1  0
 14 15  2  0
 15 16  1  0
 16 17  2  0
 17 18  1  0
 18 19  2  0
 19 20  1  0
 20 21  2  0
 21 22  1  0
 22 23  2  0
 17 24  1  0
 24 25  2  0
 25 14  1  0
 23 18  1  0
  1 26  1  0
  1 27  1  0
  1 28  1  0
  2 29  1  0
  3 30  1  0
  3 31  1  0
  3 32  1  0
  4 33  1  0
  4 34  1  0
  6 35  1  0
  6 36  1  0
  9 37  1  0
 10 38  1  0
 15 39  1  0
 16 40  1  0
 19 41  1  0
 20 42  1  0
 21 43  1  0
 22 44  1  0
 23 45  1  0
 24 46  1  0
 25 47  1  0
M  END
$$$$
