
     RDKit          3D

 50 53  0  0  0  0  0  0  0  0999 V2000
    6.5153   -2.2538   -0.1429 N   0  0  0  0  0  0  0  0  0  0  0  0
    6.0968   -0.9090   -0.0831 C   0  0  0  0  0  0  0  0  0  0  0  0
    4.8483   -0.5686   -0.5153 N   0  0  0  0  0  0  0  0  0  0  0  0
    4.4081    0.6877   -0.4793 C   0  0  0  0  0  0  0  0  0  0  0  0
    3.1019    0.9816   -0.9530 N   0  0  0  0  0  0  0  0  0  0  0  0
    2.0220    1.0640   -0.0116 C   0  0  0  0  0  0  0  0  0  0  0  0
    1.8407   -0.2877    0.6594 C   0  0  0  0  0  0  0  0  0  0  0  0
    0.7386   -0.2218    1.6092 N   0  0  0  0  0  0  0  0  0  0  0  0
   -0.5751    0.1788    1.1689 C   0  0  0  0  0  0  0  0  0  0  0  0
   -0.8169    1.4878    1.0264 N   0  0  0  0  0  0  0  0  0  0  0  0
   -2.0159    1.9108    0.6107 C   0  0  0  0  0  0  0  0  0  0  0  0
   -3.0348    1.0211    0.3181 C   0  0  0  0  0  0  0  0  0  0  0  0
   -4.3179    1.5210   -0.1456 C   0  0  0  0  0  0  0  0  0  0  0  0
   -5.4377    0.8427   -0.4841 N   0  0  0  0  0  0  0  0  0  0  0  0
   -6.4110    1.6726   -0.8656 C   0  0  0  0  0  0  0  0  0  0  0  0
   -5.9236    2.9330   -0.7766 C   0  0  0  0  0  0  0  0  0  0  0  0
   -4.6551    2.8168   -0.3392 N   0  0  0  0  0  0  0  0  0  0  0  0
   -2.7738   -0.3138    0.4688 C   0  0  0  0  0  0  0  0  0  0  0  0
   -3.7745   -1.3297    0.2059 C   0  0  0  0  0  0  0  0  0  0  0  0
   -4.8867   -1.4222    0.9864 C   0  0  0  0  0  0  0  0  0  0  0  0
   -5.8191   -2.4040    0.7090 C   0  0  0  0  0  0  0  0  0  0  0  0
   -5.7049   -3.3082   -0.3110 C   0  0  0  0  0  0  0  0  0  0  0  0
   -6.8989   -4.5222   -0.6168 Cl  0  0  0  0  0  0  0  0  0  0  0  0
   -4.5792   -3.2171   -1.1044 C   0  0  0  0  0  0  0  0  0  0  0  0
   -3.6236   -2.2331   -0.8442 C   0  0  0  0  0  0  0  0  0  0  0  0
   -2.2135   -2.1783   -1.8931 Cl  0  0  0  0  0  0  0  0  0  0  0  0
   -1.5483   -0.6921    0.8904 N   0  0  0  0  0  0  0  0  0  0  0  0
    5.2335    1.6917    0.0109 C   0  0  0  0  0  0  0  0  0  0  0  0
    6.4925    1.3656    0.4496 C   0  0  0  0  0  0  0  0  0  0  0  0
    6.9286    0.0693    0.4049 C   0  0  0  0  0  0  0  0  0  0  0  0
    8.2361   -0.2441    0.8608 N   0  0  0  0  0  4  0  0  0  0  0  0
    8.5482   -1.3357    1.3910 O   0  0  0  0  0  0  0  0  0  0  0  0
    9.2634    0.6719    0.7374 O   0  0  0  0  0  1  0  0  0  0  0  0
    7.3405   -2.5104   -0.7067 H   0  0  0  0  0  0  0  0  0  0  0  0
    6.0013   -2.9805    0.3723 H   0  0  0  0  0  0  0  0  0  0  0  0
    2.9615    1.1339   -1.9911 H   0  0  0  0  0  0  0  0  0  0  0  0
    1.1153    1.3981   -0.5417 H   0  0  0  0  0  0  0  0  0  0  0  0
    2.2158    1.8567    0.7723 H   0  0  0  0  0  0  0  0  0  0  0  0
    1.7248   -1.0905   -0.0880 H   0  0  0  0  0  0  0  0  0  0  0  0
    2.7592   -0.5005    1.2411 H   0  0  0  0  0  0  0  0  0  0  0  0
    0.8719   -0.4547    2.5971 H   0  0  0  0  0  0  0  0  0  0  0  0
   -2.2287    2.9872    0.4878 H   0  0  0  0  0  0  0  0  0  0  0  0
   -7.4287    1.4508   -1.1982 H   0  0  0  0  0  0  0  0  0  0  0  0
   -6.3841    3.9015   -0.9903 H   0  0  0  0  0  0  0  0  0  0  0  0
   -4.0110    3.6209   -0.1698 H   0  0  0  0  0  0  0  0  0  0  0  0
   -5.0786   -0.7420    1.8328 H   0  0  0  0  0  0  0  0  0  0  0  0
   -6.7014   -2.4636    1.3396 H   0  0  0  0  0  0  0  0  0  0  0  0
   -4.4026   -3.9042   -1.9465 H   0  0  0  0  0  0  0  0  0  0  0  0
    4.8411    2.6911    0.0236 H   0  0  0  0  0  0  0  0  0  0  0  0
    7.1401    2.1309    0.8289 H   0  0  0  0  0  0  0  0  0  0  0  0
  1  2  1  0
  2  3  2  0
  3  4  1  0
  4  5  1  0
  5  6  1  0
  6  7  1  0
  7  8  1  0
  8  9  1  0
  9 10  2  0
 10 11  1  0
 11 12  2  0
 12 13  1  0
 13 14  2  0
 14 15  1  0
 15 16  2  0
 16 17  1  0
 12 18  1  0
 18 19  1  0
 19 20  2  0
 20 21  1  0
 21 22  2  0
 22 23  1  0
 22 24  1  0
 24 25  2  0
 25 26  1  0
 18 27  2  0
  4 28  2  0
 28 29  1  0
 29 30  2  0
 30 31  1  0
 31 32  2  0
 31 33  1  0
 30  2  1  0
 27  9  1  0
 17 13  1  0
 25 19  1  0
  1 34  1  0
  1 35  1  0
  5 36  1  0
  6 37  1  0
  6 38  1  0
  7 39  1  0
  7 40  1  0
  8 41  1  0
 11 42  1  0
 15 43  1  0
 16 44  1  0
 17 45  1  0
 20 46  1  0
 21 47  1  0
 24 48  1  0
 28 49  1  0
 29 50  1  0
M  CHG  2  31   1  33  -1
M  END
$$$$
