@<TRIPOS>MOLECULE
*****
 50 53 0 0 0
SMALL
GASTEIGER

@<TRIPOS>ATOM
      1 N           6.5153   -2.2538   -0.1429 N.pl3   1  UNL1       -0.3377
      2 C           6.0968   -0.9090   -0.0831 C.ar    1  UNL1        0.1964
      3 N           4.8483   -0.5686   -0.5153 N.ar    1  UNL1       -0.2113
      4 C           4.4081    0.6877   -0.4793 C.ar    1  UNL1        0.1213
      5 N           3.1019    0.9816   -0.9530 N.pl3   1  UNL1       -0.3275
      6 C           2.0220    1.0640   -0.0116 C.3     1  UNL1        0.0260
      7 C           1.8407   -0.2877    0.6594 C.3     1  UNL1        0.0273
      8 N           0.7386   -0.2218    1.6092 N.pl3   1  UNL1       -0.3120
      9 C          -0.5751    0.1788    1.1689 C.ar    1  UNL1        0.2158
     10 N          -0.8169    1.4878    1.0264 N.ar    1  UNL1       -0.2222
     11 C          -2.0159    1.9108    0.6107 C.ar    1  UNL1        0.0439
     12 C          -3.0348    1.0211    0.3181 C.ar    1  UNL1        0.0614
     13 C          -4.3179    1.5210   -0.1456 C.ar    1  UNL1        0.1417
     14 N          -5.4377    0.8427   -0.4841 N.ar    1  UNL1       -0.2360
     15 C          -6.4110    1.6726   -0.8656 C.ar    1  UNL1        0.0458
     16 C          -5.9236    2.9330   -0.7766 C.ar    1  UNL1        0.0216
     17 N          -4.6551    2.8168   -0.3392 N.ar    1  UNL1       -0.3443
     18 C          -2.7738   -0.3138    0.4688 C.ar    1  UNL1        0.0880
     19 C          -3.7745   -1.3297    0.2059 C.ar    1  UNL1        0.0196
     20 C          -4.8867   -1.4222    0.9864 C.ar    1  UNL1       -0.0498
     21 C          -5.8191   -2.4040    0.7090 C.ar    1  UNL1       -0.0427
     22 C          -5.7049   -3.3082   -0.3110 C.ar    1  UNL1        0.0424
     23 CL         -6.8989   -4.5222   -0.6168 Cl      1  UNL1       -0.0835
     24 C          -4.5792   -3.2171   -1.1044 C.ar    1  UNL1       -0.0244
     25 C          -3.6236   -2.2331   -0.8442 C.ar    1  UNL1        0.0515
     26 CL         -2.2135   -2.1783   -1.8931 Cl      1  UNL1       -0.0828
     27 N          -1.5483   -0.6921    0.8904 N.ar    1  UNL1       -0.2137
     28 C           5.2335    1.6917    0.0109 C.ar    1  UNL1       -0.0153
     29 C           6.4925    1.3656    0.4496 C.ar    1  UNL1        0.0224
     30 C           6.9286    0.0693    0.4049 C.ar    1  UNL1        0.3123
     31 N           8.2361   -0.2441    0.8608 N.pl3   1  UNL1        0.0832
     32 O           8.5482   -1.3357    1.3910 O.2     1  UNL1        0.0416
     33 O           9.2634    0.6719    0.7374 O.co2   1  UNL1       -0.5759
     34 H           7.3405   -2.5104   -0.7067 H       1  UNL1        0.1439
     35 H           6.0013   -2.9805    0.3723 H       1  UNL1        0.1439
     36 H           2.9615    1.1339   -1.9911 H       1  UNL1        0.1475
     37 H           1.1153    1.3981   -0.5417 H       1  UNL1        0.0477
     38 H           2.2158    1.8567    0.7723 H       1  UNL1        0.0477
     39 H           1.7248   -1.0905   -0.0880 H       1  UNL1        0.0477
     40 H           2.7592   -0.5005    1.2411 H       1  UNL1        0.0477
     41 H           0.8719   -0.4547    2.5971 H       1  UNL1        0.1490
     42 H          -2.2287    2.9872    0.4878 H       1  UNL1        0.0838
     43 H          -7.4287    1.4508   -1.1982 H       1  UNL1        0.0845
     44 H          -6.3841    3.9015   -0.9903 H       1  UNL1        0.0823
     45 H          -4.0110    3.6209   -0.1698 H       1  UNL1        0.1668
     46 H          -5.0786   -0.7420    1.8328 H       1  UNL1        0.0625
     47 H          -6.7014   -2.4636    1.3396 H       1  UNL1        0.0632
     48 H          -4.4026   -3.9042   -1.9465 H       1  UNL1        0.0647
     49 H           4.8411    2.6911    0.0236 H       1  UNL1        0.0654
     50 H           7.1401    2.1309    0.8289 H       1  UNL1        0.0687
@<TRIPOS>UNITY_ATOM_ATTR
31 1
charge 1
33 1
charge -1
@<TRIPOS>BOND
     1     1     2    1
     2     2     3   ar
     3     3     4   ar
     4     4     5    1
     5     5     6    1
     6     6     7    1
     7     7     8    1
     8     8     9    1
     9     9    10   ar
    10    10    11   ar
    11    11    12   ar
    12    12    13    1
    13    13    14   ar
    14    14    15   ar
    15    15    16   ar
    16    16    17   ar
    17    12    18   ar
    18    18    19    1
    19    19    20   ar
    20    20    21   ar
    21    21    22   ar
    22    22    23    1
    23    22    24   ar
    24    24    25   ar
    25    25    26    1
    26    18    27   ar
    27     4    28   ar
    28    28    29   ar
    29    29    30   ar
    30    30    31    1
    31    31    32    2
    32    31    33    1
    33    30     2   ar
    34    27     9   ar
    35    17    13   ar
    36    25    19   ar
    37     1    34    1
    38     1    35    1
    39     5    36    1
    40     6    37    1
    41     6    38    1
    42     7    39    1
    43     7    40    1
    44     8    41    1
    45    11    42    1
    46    15    43    1
    47    16    44    1
    48    17    45    1
    49    20    46    1
    50    21    47    1
    51    24    48    1
    52    28    49    1
    53    29    50    1
