
     RDKit          3D

 63 69  0  0  0  0  0  0  0  0999 V2000
    1.2390    1.1448   -2.1966 N   0  0  0  0  0  0  0  0  0  0  0  0
   -0.1516    1.0562   -1.8768 C   0  0  0  0  0  0  0  0  0  0  0  0
   -1.0271    1.9748   -2.3118 N   0  0  0  0  0  0  0  0  0  0  0  0
   -2.3303    1.8728   -2.0335 C   0  0  0  0  0  0  0  0  0  0  0  0
   -2.7734    0.8088   -1.2908 C   0  0  0  0  0  0  0  0  0  0  0  0
   -1.8969   -0.1063   -0.8579 N   0  0  0  0  0  0  0  0  0  0  0  0
   -0.5634   -0.0255   -1.1265 C   0  0  0  0  0  0  0  0  0  0  0  0
    0.1069   -1.0890   -0.5772 C   0  0  0  0  0  0  0  0  0  0  0  0
    1.5307   -1.3962   -0.6427 C   0  0  0  0  0  0  0  0  0  0  0  0
    1.9761   -2.6297   -1.1083 C   0  0  0  0  0  0  0  0  0  0  0  0
    3.2877   -2.9939   -1.1636 C   0  0  0  0  0  0  0  0  0  0  0  0
    4.2424   -2.0925   -0.7343 C   0  0  0  0  0  0  0  0  0  0  0  0
    5.5733   -2.4474   -0.7850 C   0  0  0  0  0  0  0  0  0  0  0  0
    6.4926   -1.4978   -0.3387 C   0  0  0  0  0  0  0  0  0  0  0  0
    6.1338   -0.2636    0.1337 C   0  0  0  0  0  0  0  0  0  0  0  0
    7.0747    0.7430    0.6045 C   0  0  0  0  0  0  0  0  0  0  0  0
    6.6017    1.9626    1.0631 C   0  0  0  0  0  0  0  0  0  0  0  0
    7.4656    2.9479    1.5200 C   0  0  0  0  0  0  0  0  0  0  0  0
    8.8201    2.7428    1.5311 C   0  0  0  0  0  0  0  0  0  0  0  0
    9.3057    1.5358    1.0784 C   0  0  0  0  0  0  0  0  0  0  0  0
    8.4267    0.5495    0.6201 C   0  0  0  0  0  0  0  0  0  0  0  0
    4.7964    0.0043    0.1490 N   0  0  0  0  0  0  0  0  0  0  0  0
    3.8678   -0.8633   -0.2649 C   0  0  0  0  0  0  0  0  0  0  0  0
    2.5130   -0.5278   -0.2236 C   0  0  0  0  0  0  0  0  0  0  0  0
   -0.8431   -1.8241    0.0307 N   0  0  0  0  0  0  0  0  0  0  0  0
   -2.0661   -1.2353   -0.1333 C   0  0  0  0  0  0  0  0  0  0  0  0
   -3.3188   -1.7616    0.3959 C   0  0  1  0  0  0  0  0  0  0  0  0
   -4.1952   -0.9058    1.2361 C   0  0  0  0  0  0  0  0  0  0  0  0
   -5.3867   -1.5062    0.5479 C   0  0  1  0  0  0  0  0  0  0  0  0
   -6.3952   -0.5862   -0.0426 C   0  0  0  0  0  0  0  0  0  0  0  0
   -7.0079    0.2998    0.9250 N   0  0  0  0  0  0  0  0  0  0  0  0
   -7.9787    1.1507    0.2172 C   0  0  0  0  0  0  0  0  0  0  0  0
   -7.6122    2.2505    1.1911 C   0  0  0  0  0  0  0  0  0  0  0  0
   -6.2654    1.5140    1.2078 C   0  0  0  0  0  0  0  0  0  0  0  0
   -4.4500   -2.0302   -0.5453 C   0  0  0  0  0  0  0  0  0  0  0  0
    1.7108    0.5350   -2.8809 H   0  0  0  0  0  0  0  0  0  0  0  0
    1.7737    1.8866   -1.6827 H   0  0  0  0  0  0  0  0  0  0  0  0
   -3.0543    2.6276   -2.3898 H   0  0  0  0  0  0  0  0  0  0  0  0
   -3.8127    0.7055   -1.0554 H   0  0  0  0  0  0  0  0  0  0  0  0
    1.2242   -3.3226   -1.4396 H   0  0  0  0  0  0  0  0  0  0  0  0
    3.6100   -3.9818   -1.5389 H   0  0  0  0  0  0  0  0  0  0  0  0
    5.8771   -3.4157   -1.1542 H   0  0  0  0  0  0  0  0  0  0  0  0
    7.5386   -1.7681   -0.3752 H   0  0  0  0  0  0  0  0  0  0  0  0
    5.5233    2.1170    1.0507 H   0  0  0  0  0  0  0  0  0  0  0  0
    7.0368    3.8866    1.8685 H   0  0  0  0  0  0  0  0  0  0  0  0
    9.4975    3.5120    1.8880 H   0  0  0  0  0  0  0  0  0  0  0  0
   10.3659    1.3699    1.0850 H   0  0  0  0  0  0  0  0  0  0  0  0
    8.8411   -0.3745    0.2766 H   0  0  0  0  0  0  0  0  0  0  0  0
    2.2584    0.4309    0.1701 H   0  0  0  0  0  0  0  0  0  0  0  0
   -3.1225   -2.7286    0.9641 H   0  0  0  0  0  0  0  0  0  0  0  0
   -4.0764    0.1764    1.2276 H   0  0  0  0  0  0  0  0  0  0  0  0
   -4.2324   -1.2151    2.3279 H   0  0  0  0  0  0  0  0  0  0  0  0
   -5.8531   -2.3584    1.1017 H   0  0  0  0  0  0  0  0  0  0  0  0
   -6.0766   -0.0420   -0.9317 H   0  0  0  0  0  0  0  0  0  0  0  0
   -7.2421   -1.2491   -0.3976 H   0  0  0  0  0  0  0  0  0  0  0  0
   -9.0171    0.7915    0.2668 H   0  0  0  0  0  0  0  0  0  0  0  0
   -7.6414    1.4506   -0.8028 H   0  0  0  0  0  0  0  0  0  0  0  0
   -7.5623    3.2616    0.7902 H   0  0  0  0  0  0  0  0  0  0  0  0
   -8.1836    2.1195    2.1439 H   0  0  0  0  0  0  0  0  0  0  0  0
   -5.6547    1.8994    0.3670 H   0  0  0  0  0  0  0  0  0  0  0  0
   -5.7818    1.5517    2.2052 H   0  0  0  0  0  0  0  0  0  0  0  0
   -4.6541   -3.1264   -0.7472 H   0  0  0  0  0  0  0  0  0  0  0  0
   -4.4843   -1.5158   -1.5005 H   0  0  0  0  0  0  0  0  0  0  0  0
  1  2  1  0
  2  3  2  0
  3  4  1  0
  4  5  2  0
  5  6  1  0
  6  7  1  0
  7  8  2  0
  8  9  1  0
  9 10  2  0
 10 11  1  0
 11 12  2  0
 12 13  1  0
 13 14  2  0
 14 15  1  0
 15 16  1  0
 16 17  2  0
 17 18  1  0
 18 19  2  0
 19 20  1  0
 20 21  2  0
 15 22  2  0
 22 23  1  0
 23 24  2  0
  8 25  1  0
 25 26  2  0
 26 27  1  0
 27 28  1  0
 28 29  1  0
 29 30  1  0
 30 31  1  0
 31 32  1  0
 32 33  1  0
 33 34  1  0
 29 35  1  0
  7  2  1  0
 24  9  1  0
 35 27  1  0
 26  6  1  0
 34 31  1  0
 23 12  1  0
 21 16  1  0
  1 36  1  0
  1 37  1  0
  4 38  1  0
  5 39  1  0
 10 40  1  0
 11 41  1  0
 13 42  1  0
 14 43  1  0
 17 44  1  0
 18 45  1  0
 19 46  1  0
 20 47  1  0
 21 48  1  0
 24 49  1  0
 27 50  1  1
 28 51  1  0
 28 52  1  0
 29 53  1  1
 30 54  1  0
 30 55  1  0
 32 56  1  0
 32 57  1  0
 33 58  1  0
 33 59  1  0
 34 60  1  0
 34 61  1  0
 35 62  1  0
 35 63  1  0
M  END
$$$$
