@<TRIPOS>MOLECULE
*****
 63 69 0 0 0
SMALL
GASTEIGER

@<TRIPOS>ATOM
      1 N           1.2390    1.1448   -2.1966 N.pl3   1  UNL1       -0.3414
      2 C          -0.1516    1.0562   -1.8768 C.ar    1  UNL1        0.1424
      3 N          -1.0271    1.9748   -2.3118 N.ar    1  UNL1       -0.2371
      4 C          -2.3303    1.8728   -2.0335 C.ar    1  UNL1        0.0463
      5 C          -2.7734    0.8088   -1.2908 C.ar    1  UNL1        0.0297
      6 N          -1.8969   -0.1063   -0.8579 N.ar    1  UNL1       -0.2982
      7 C          -0.5634   -0.0255   -1.1265 C.ar    1  UNL1        0.1135
      8 C           0.1069   -1.0890   -0.5772 C.ar    1  UNL1        0.1002
      9 C           1.5307   -1.3962   -0.6427 C.ar    1  UNL1        0.0046
     10 C           1.9761   -2.6297   -1.1083 C.ar    1  UNL1       -0.0518
     11 C           3.2877   -2.9939   -1.1636 C.ar    1  UNL1       -0.0519
     12 C           4.2424   -2.0925   -0.7343 C.ar    1  UNL1        0.0005
     13 C           5.5733   -2.4474   -0.7850 C.ar    1  UNL1       -0.0505
     14 C           6.4926   -1.4978   -0.3387 C.ar    1  UNL1       -0.0351
     15 C           6.1338   -0.2636    0.1337 C.ar    1  UNL1        0.0717
     16 C           7.0747    0.7430    0.6045 C.ar    1  UNL1        0.0004
     17 C           6.6017    1.9626    1.0631 C.ar    1  UNL1       -0.0526
     18 C           7.4656    2.9479    1.5200 C.ar    1  UNL1       -0.0611
     19 C           8.8201    2.7428    1.5311 C.ar    1  UNL1       -0.0617
     20 C           9.3057    1.5358    1.0784 C.ar    1  UNL1       -0.0611
     21 C           8.4267    0.5495    0.6201 C.ar    1  UNL1       -0.0526
     22 N           4.7964    0.0043    0.1490 N.ar    1  UNL1       -0.2467
     23 C           3.8678   -0.8633   -0.2649 C.ar    1  UNL1        0.0723
     24 C           2.5130   -0.5278   -0.2236 C.ar    1  UNL1       -0.0265
     25 N          -0.8431   -1.8241    0.0307 N.ar    1  UNL1       -0.2309
     26 C          -2.0661   -1.2353   -0.1333 C.ar    1  UNL1        0.1181
     27 C          -3.3188   -1.7616    0.3959 C.3     1  UNL1        0.0182
     28 C          -4.1952   -0.9058    1.2361 C.3     1  UNL1       -0.0393
     29 C          -5.3867   -1.5062    0.5479 C.3     1  UNL1       -0.0270
     30 C          -6.3952   -0.5862   -0.0426 C.3     1  UNL1        0.0018
     31 N          -7.0079    0.2998    0.9250 N.3     1  UNL1       -0.3020
     32 C          -7.9787    1.1507    0.2172 C.3     1  UNL1        0.0001
     33 C          -7.6122    2.2505    1.1911 C.3     1  UNL1       -0.0274
     34 C          -6.2654    1.5140    1.2078 C.3     1  UNL1        0.0001
     35 C          -4.4500   -2.0302   -0.5453 C.3     1  UNL1       -0.0393
     36 H           1.7108    0.5350   -2.8809 H       1  UNL1        0.1438
     37 H           1.7737    1.8866   -1.6827 H       1  UNL1        0.1438
     38 H          -3.0543    2.6276   -2.3898 H       1  UNL1        0.0845
     39 H          -3.8127    0.7055   -1.0554 H       1  UNL1        0.0829
     40 H           1.2242   -3.3226   -1.4396 H       1  UNL1        0.0624
     41 H           3.6100   -3.9818   -1.5389 H       1  UNL1        0.0624
     42 H           5.8771   -3.4157   -1.1542 H       1  UNL1        0.0625
     43 H           7.5386   -1.7681   -0.3752 H       1  UNL1        0.0639
     44 H           5.5233    2.1170    1.0507 H       1  UNL1        0.0624
     45 H           7.0368    3.8866    1.8685 H       1  UNL1        0.0618
     46 H           9.4975    3.5120    1.8880 H       1  UNL1        0.0618
     47 H          10.3659    1.3699    1.0850 H       1  UNL1        0.0618
     48 H           8.8411   -0.3745    0.2766 H       1  UNL1        0.0624
     49 H           2.2584    0.4309    0.1701 H       1  UNL1        0.0645
     50 H          -3.1225   -2.7286    0.9641 H       1  UNL1        0.0379
     51 H          -4.0764    0.1764    1.2276 H       1  UNL1        0.0275
     52 H          -4.2324   -1.2151    2.3279 H       1  UNL1        0.0275
     53 H          -5.8531   -2.3584    1.1017 H       1  UNL1        0.0313
     54 H          -6.0766   -0.0420   -0.9317 H       1  UNL1        0.0429
     55 H          -7.2421   -1.2491   -0.3976 H       1  UNL1        0.0429
     56 H          -9.0171    0.7915    0.2668 H       1  UNL1        0.0427
     57 H          -7.6414    1.4506   -0.8028 H       1  UNL1        0.0427
     58 H          -7.5623    3.2616    0.7902 H       1  UNL1        0.0290
     59 H          -8.1836    2.1195    2.1439 H       1  UNL1        0.0290
     60 H          -5.6547    1.8994    0.3670 H       1  UNL1        0.0427
     61 H          -5.7818    1.5517    2.2052 H       1  UNL1        0.0427
     62 H          -4.6541   -3.1264   -0.7472 H       1  UNL1        0.0275
     63 H          -4.4843   -1.5158   -1.5005 H       1  UNL1        0.0275
@<TRIPOS>BOND
     1     1     2    1
     2     2     3   ar
     3     3     4   ar
     4     4     5   ar
     5     5     6   ar
     6     6     7   ar
     7     7     8   ar
     8     8     9    1
     9     9    10   ar
    10    10    11   ar
    11    11    12   ar
    12    12    13   ar
    13    13    14   ar
    14    14    15   ar
    15    15    16    1
    16    16    17   ar
    17    17    18   ar
    18    18    19   ar
    19    19    20   ar
    20    20    21   ar
    21    15    22   ar
    22    22    23   ar
    23    23    24   ar
    24     8    25   ar
    25    25    26   ar
    26    26    27    1
    27    27    28    1
    28    28    29    1
    29    29    30    1
    30    30    31    1
    31    31    32    1
    32    32    33    1
    33    33    34    1
    34    29    35    1
    35     7     2   ar
    36    24     9   ar
    37    35    27    1
    38    26     6   ar
    39    34    31    1
    40    23    12   ar
    41    21    16   ar
    42     1    36    1
    43     1    37    1
    44     4    38    1
    45     5    39    1
    46    10    40    1
    47    11    41    1
    48    13    42    1
    49    14    43    1
    50    17    44    1
    51    18    45    1
    52    19    46    1
    53    20    47    1
    54    21    48    1
    55    24    49    1
    56    27    50    1
    57    28    51    1
    58    28    52    1
    59    29    53    1
    60    30    54    1
    61    30    55    1
    62    32    56    1
    63    32    57    1
    64    33    58    1
    65    33    59    1
    66    34    60    1
    67    34    61    1
    68    35    62    1
    69    35    63    1
