@<TRIPOS>MOLECULE
*****
 29 29 0 0 0
SMALL
GASTEIGER

@<TRIPOS>ATOM
      1 CL          4.2861   -1.5447    0.8504 Cl      1  UNL1       -0.1241
      2 C           3.8248    0.1346    0.5664 C.3     1  UNL1        0.0356
      3 C           2.6927    0.2074   -0.4305 C.3     1  UNL1        0.0188
      4 N           1.5637   -0.5171    0.0960 N.3     1  UNL1       -0.2314
      5 P           0.2198   -0.4749   -0.9941 P.3     1  UNL1        0.3458
      6 O           0.6819    0.1346   -2.2960 O.2     1  UNL1       -0.2542
      7 O          -0.2591   -2.0611   -1.2976 O.3     1  UNL1       -0.3053
      8 C          -1.4259   -2.4126   -0.6519 C.3     1  UNL1        0.0584
      9 C          -1.5769   -1.7648    0.7004 C.3     1  UNL1       -0.0156
     10 C          -1.8753   -0.3031    0.6285 C.3     1  UNL1        0.0105
     11 N          -1.1392    0.4047   -0.3864 N.3     1  UNL1       -0.2178
     12 C          -0.8493    1.7648   -0.0233 C.3     1  UNL1        0.0218
     13 C          -2.1821    2.5115   -0.0010 C.3     1  UNL1        0.0358
     14 CL         -1.8383    4.2063    0.4518 Cl      1  UNL1       -0.1241
     15 H           4.7040    0.6849    0.2184 H       1  UNL1        0.0442
     16 H           3.4744    0.5947    1.5192 H       1  UNL1        0.0442
     17 H           2.4047    1.2677   -0.5874 H       1  UNL1        0.0441
     18 H           3.0362   -0.1789   -1.4273 H       1  UNL1        0.0441
     19 H           1.8919   -1.4921    0.2991 H       1  UNL1        0.1326
     20 H          -2.3423   -2.2219   -1.2588 H       1  UNL1        0.0565
     21 H          -1.3886   -3.5074   -0.4746 H       1  UNL1        0.0565
     22 H          -2.4767   -2.2543    1.1652 H       1  UNL1        0.0300
     23 H          -0.7278   -2.0310    1.3533 H       1  UNL1        0.0300
     24 H          -2.9540   -0.0966    0.4883 H       1  UNL1        0.0432
     25 H          -1.5983    0.1765    1.6016 H       1  UNL1        0.0432
     26 H          -0.2532    2.2051   -0.8411 H       1  UNL1        0.0443
     27 H          -0.3734    1.8936    0.9613 H       1  UNL1        0.0443
     28 H          -2.6483    2.5451   -1.0069 H       1  UNL1        0.0442
     29 H          -2.8716    2.1291    0.7771 H       1  UNL1        0.0442
@<TRIPOS>BOND
     1     1     2    1
     2     2     3    1
     3     3     4    1
     4     4     5    1
     5     5     6    2
     6     5     7    1
     7     7     8    1
     8     8     9    1
     9     9    10    1
    10    10    11    1
    11    11    12    1
    12    12    13    1
    13    13    14    1
    14    11     5    1
    15     2    15    1
    16     2    16    1
    17     3    17    1
    18     3    18    1
    19     4    19    1
    20     8    20    1
    21     8    21    1
    22     9    22    1
    23     9    23    1
    24    10    24    1
    25    10    25    1
    26    12    26    1
    27    12    27    1
    28    13    28    1
    29    13    29    1
