
     RDKit          3D

 52 55  0  0  0  0  0  0  0  0999 V2000
    7.3596    0.9629    0.0382 C   0  0  0  0  0  0  0  0  0  0  0  0
    6.7185   -0.1787   -0.7052 C   0  0  0  0  0  0  0  0  0  0  0  0
    5.3661   -0.4656   -0.0675 C   0  0  0  0  0  0  0  0  0  0  0  0
    4.6789   -1.6205   -0.7929 C   0  0  0  0  0  0  0  0  0  0  0  0
    3.3489   -1.8548   -0.1159 C   0  0  0  0  0  0  0  0  0  0  0  0
    2.5763   -0.6754   -0.2077 O   0  0  0  0  0  0  0  0  0  0  0  0
    1.2817   -0.6183    0.3461 C   0  0  0  0  0  0  0  0  0  0  0  0
    0.7310   -1.6923    0.9867 C   0  0  0  0  0  0  0  0  0  0  0  0
   -0.5352   -1.6327    1.5269 C   0  0  0  0  0  0  0  0  0  0  0  0
   -1.3198   -0.4727    1.4473 C   0  0  0  0  0  0  0  0  0  0  0  0
   -2.6172   -0.5083    2.0466 C   0  0  0  0  0  0  0  0  0  0  0  0
   -2.7426   -1.0467    3.2213 O   0  0  0  0  0  0  0  0  0  0  0  0
   -3.8890   -0.0226    1.5511 C   0  0  0  0  0  0  0  0  0  0  0  0
   -4.6886    0.7102    2.4027 C   0  0  0  0  0  0  0  0  0  0  0  0
   -5.9016    1.2132    2.0138 C   0  0  0  0  0  0  0  0  0  0  0  0
   -6.3447    0.9822    0.7263 C   0  0  0  0  0  0  0  0  0  0  0  0
   -5.5307    0.2416   -0.1248 C   0  0  0  0  0  0  0  0  0  0  0  0
   -5.9866    0.0130   -1.4148 C   0  0  0  0  0  0  0  0  0  0  0  0
   -5.2261   -0.7245   -2.3255 C   0  0  0  0  0  0  0  0  0  0  0  0
   -4.0014   -1.2341   -1.9359 C   0  0  0  0  0  0  0  0  0  0  0  0
   -3.5850   -0.9852   -0.6483 C   0  0  0  0  0  0  0  0  0  0  0  0
   -4.3118   -0.2626    0.2698 C   0  0  0  0  0  0  0  0  0  0  0  0
   -0.7311    0.5843    0.7963 C   0  0  0  0  0  0  0  0  0  0  0  0
   -1.4287    1.7388    0.6834 C   0  0  0  0  0  0  0  0  0  0  0  0
   -0.8895    2.8345    0.0425 C   0  0  0  0  0  0  0  0  0  0  0  0
    0.3703    2.7811   -0.4974 C   0  0  0  0  0  0  0  0  0  0  0  0
    1.0989    1.6194   -0.3954 C   0  0  0  0  0  0  0  0  0  0  0  0
    0.5327    0.5325    0.2543 C   0  0  0  0  0  0  0  0  0  0  0  0
    6.9590    1.0608    1.0830 H   0  0  0  0  0  0  0  0  0  0  0  0
    8.4363    0.7580    0.1231 H   0  0  0  0  0  0  0  0  0  0  0  0
    7.2190    1.9153   -0.5080 H   0  0  0  0  0  0  0  0  0  0  0  0
    7.3274   -1.1027   -0.6124 H   0  0  0  0  0  0  0  0  0  0  0  0
    6.5794    0.1255   -1.7545 H   0  0  0  0  0  0  0  0  0  0  0  0
    5.5064   -0.7413    0.9947 H   0  0  0  0  0  0  0  0  0  0  0  0
    4.7464    0.4324   -0.1055 H   0  0  0  0  0  0  0  0  0  0  0  0
    5.3284   -2.5035   -0.7501 H   0  0  0  0  0  0  0  0  0  0  0  0
    4.4692   -1.3629   -1.8408 H   0  0  0  0  0  0  0  0  0  0  0  0
    2.8368   -2.7122   -0.6367 H   0  0  0  0  0  0  0  0  0  0  0  0
    3.5216   -2.1654    0.9380 H   0  0  0  0  0  0  0  0  0  0  0  0
    1.3192   -2.5987    1.0599 H   0  0  0  0  0  0  0  0  0  0  0  0
   -0.9177   -2.4949    2.0147 H   0  0  0  0  0  0  0  0  0  0  0  0
   -4.3619    0.9022    3.4118 H   0  0  0  0  0  0  0  0  0  0  0  0
   -6.4738    1.7779    2.7344 H   0  0  0  0  0  0  0  0  0  0  0  0
   -7.3027    1.3780    0.4146 H   0  0  0  0  0  0  0  0  0  0  0  0
   -6.9338    0.4114   -1.7040 H   0  0  0  0  0  0  0  0  0  0  0  0
   -5.5999   -0.8848   -3.3090 H   0  0  0  0  0  0  0  0  0  0  0  0
   -3.3992   -1.8095   -2.6332 H   0  0  0  0  0  0  0  0  0  0  0  0
   -2.6480   -1.3822   -0.3565 H   0  0  0  0  0  0  0  0  0  0  0  0
   -2.3993    1.8344    1.0825 H   0  0  0  0  0  0  0  0  0  0  0  0
   -1.4567    3.7685   -0.0477 H   0  0  0  0  0  0  0  0  0  0  0  0
    0.8055    3.6481   -1.0084 H   0  0  0  0  0  0  0  0  0  0  0  0
    2.1050    1.5270   -0.8084 H   0  0  0  0  0  0  0  0  0  0  0  0
  1  2  1  0
  2  3  1  0
  3  4  1  0
  4  5  1  0
  5  6  1  0
  6  7  1  0
  7  8  2  0
  8  9  1  0
  9 10  2  0
 10 11  1  0
 11 12  2  0
 11 13  1  0
 13 14  2  0
 14 15  1  0
 15 16  2  0
 16 17  1  0
 17 18  2  0
 18 19  1  0
 19 20  2  0
 20 21  1  0
 21 22  2  0
 10 23  1  0
 23 24  2  0
 24 25  1  0
 25 26  2  0
 26 27  1  0
 27 28  2  0
 28  7  1  0
 22 13  1  0
 28 23  1  0
 22 17  1  0
  1 29  1  0
  1 30  1  0
  1 31  1  0
  2 32  1  0
  2 33  1  0
  3 34  1  0
  3 35  1  0
  4 36  1  0
  4 37  1  0
  5 38  1  0
  5 39  1  0
  8 40  1  0
  9 41  1  0
 14 42  1  0
 15 43  1  0
 16 44  1  0
 18 45  1  0
 19 46  1  0
 20 47  1  0
 21 48  1  0
 24 49  1  0
 25 50  1  0
 26 51  1  0
 27 52  1  0
M  END
$$$$
