@<TRIPOS>MOLECULE
*****
 52 55 0 0 0
SMALL
GASTEIGER

@<TRIPOS>ATOM
      1 C           7.3596    0.9629    0.0382 C.3     1  UNL1       -0.0653
      2 C           6.7185   -0.1787   -0.7052 C.3     1  UNL1       -0.0558
      3 C           5.3661   -0.4656   -0.0675 C.3     1  UNL1       -0.0502
      4 C           4.6789   -1.6205   -0.7929 C.3     1  UNL1       -0.0186
      5 C           3.3489   -1.8548   -0.1159 C.3     1  UNL1        0.0896
      6 O           2.5763   -0.6754   -0.2077 O.3     1  UNL1       -0.4914
      7 C           1.2817   -0.6183    0.3461 C.ar    1  UNL1        0.1282
      8 C           0.7310   -1.6923    0.9867 C.ar    1  UNL1       -0.0186
      9 C          -0.5352   -1.6327    1.5269 C.ar    1  UNL1       -0.0469
     10 C          -1.3198   -0.4727    1.4473 C.ar    1  UNL1        0.0302
     11 C          -2.6172   -0.5083    2.0466 C.2     1  UNL1        0.1943
     12 O          -2.7426   -1.0467    3.2213 O.2     1  UNL1       -0.2866
     13 C          -3.8890   -0.0226    1.5511 C.ar    1  UNL1        0.0300
     14 C          -4.6886    0.7102    2.4027 C.ar    1  UNL1       -0.0503
     15 C          -5.9016    1.2132    2.0138 C.ar    1  UNL1       -0.0605
     16 C          -6.3447    0.9822    0.7263 C.ar    1  UNL1       -0.0540
     17 C          -5.5307    0.2416   -0.1248 C.ar    1  UNL1       -0.0172
     18 C          -5.9866    0.0130   -1.4148 C.ar    1  UNL1       -0.0540
     19 C          -5.2261   -0.7245   -2.3255 C.ar    1  UNL1       -0.0612
     20 C          -4.0014   -1.2341   -1.9359 C.ar    1  UNL1       -0.0611
     21 C          -3.5850   -0.9852   -0.6483 C.ar    1  UNL1       -0.0533
     22 C          -4.3118   -0.2626    0.2698 C.ar    1  UNL1       -0.0071
     23 C          -0.7311    0.5843    0.7963 C.ar    1  UNL1       -0.0036
     24 C          -1.4287    1.7388    0.6834 C.ar    1  UNL1       -0.0532
     25 C          -0.8895    2.8345    0.0425 C.ar    1  UNL1       -0.0611
     26 C           0.3703    2.7811   -0.4974 C.ar    1  UNL1       -0.0611
     27 C           1.0989    1.6194   -0.3954 C.ar    1  UNL1       -0.0505
     28 C           0.5327    0.5325    0.2543 C.ar    1  UNL1        0.0245
     29 H           6.9590    1.0608    1.0830 H       1  UNL1        0.0230
     30 H           8.4363    0.7580    0.1231 H       1  UNL1        0.0230
     31 H           7.2190    1.9153   -0.5080 H       1  UNL1        0.0230
     32 H           7.3274   -1.1027   -0.6124 H       1  UNL1        0.0263
     33 H           6.5794    0.1255   -1.7545 H       1  UNL1        0.0263
     34 H           5.5064   -0.7413    0.9947 H       1  UNL1        0.0266
     35 H           4.7464    0.4324   -0.1055 H       1  UNL1        0.0266
     36 H           5.3284   -2.5035   -0.7501 H       1  UNL1        0.0298
     37 H           4.4692   -1.3629   -1.8408 H       1  UNL1        0.0298
     38 H           2.8368   -2.7122   -0.6367 H       1  UNL1        0.0696
     39 H           3.5216   -2.1654    0.9380 H       1  UNL1        0.0696
     40 H           1.3192   -2.5987    1.0599 H       1  UNL1        0.0654
     41 H          -0.9177   -2.4949    2.0147 H       1  UNL1        0.0626
     42 H          -4.3619    0.9022    3.4118 H       1  UNL1        0.0625
     43 H          -6.4738    1.7779    2.7344 H       1  UNL1        0.0618
     44 H          -7.3027    1.3780    0.4146 H       1  UNL1        0.0624
     45 H          -6.9338    0.4114   -1.7040 H       1  UNL1        0.0624
     46 H          -5.5999   -0.8848   -3.3090 H       1  UNL1        0.0618
     47 H          -3.3992   -1.8095   -2.6332 H       1  UNL1        0.0618
     48 H          -2.6480   -1.3822   -0.3565 H       1  UNL1        0.0624
     49 H          -2.3993    1.8344    1.0825 H       1  UNL1        0.0624
     50 H          -1.4567    3.7685   -0.0477 H       1  UNL1        0.0618
     51 H           0.8055    3.6481   -1.0084 H       1  UNL1        0.0618
     52 H           2.1050    1.5270   -0.8084 H       1  UNL1        0.0625
@<TRIPOS>BOND
     1     1     2    1
     2     2     3    1
     3     3     4    1
     4     4     5    1
     5     5     6    1
     6     6     7    1
     7     7     8   ar
     8     8     9   ar
     9     9    10   ar
    10    10    11    1
    11    11    12    2
    12    11    13    1
    13    13    14   ar
    14    14    15   ar
    15    15    16   ar
    16    16    17   ar
    17    17    18   ar
    18    18    19   ar
    19    19    20   ar
    20    20    21   ar
    21    21    22   ar
    22    10    23   ar
    23    23    24   ar
    24    24    25   ar
    25    25    26   ar
    26    26    27   ar
    27    27    28   ar
    28    28     7   ar
    29    22    13   ar
    30    28    23   ar
    31    22    17   ar
    32     1    29    1
    33     1    30    1
    34     1    31    1
    35     2    32    1
    36     2    33    1
    37     3    34    1
    38     3    35    1
    39     4    36    1
    40     4    37    1
    41     5    38    1
    42     5    39    1
    43     8    40    1
    44     9    41    1
    45    14    42    1
    46    15    43    1
    47    16    44    1
    48    18    45    1
    49    19    46    1
    50    20    47    1
    51    21    48    1
    52    24    49    1
    53    25    50    1
    54    26    51    1
    55    27    52    1
