@<TRIPOS>MOLECULE
*****
 31 32 0 0 0
SMALL
GASTEIGER

@<TRIPOS>ATOM
      1 C           2.8908    0.8679    1.6018 C.3     1  UNL1       -0.0045
      2 C           2.5200    0.3821    0.2467 C.ar    1  UNL1        0.1268
      3 C           3.2088    0.7803   -0.8648 C.ar    1  UNL1        0.0811
      4 C           4.3866    1.7144   -0.9436 C.3     1  UNL1       -0.0190
      5 N           2.6515    0.1843   -1.9349 N.ar    1  UNL1       -0.1993
      6 C           1.6206   -0.5784   -1.4708 C.ar    1  UNL1        0.3076
      7 N           0.6659   -1.4322   -2.1026 N.pl3   1  UNL1       -0.1687
      8 S          -0.5895   -2.3257   -1.2840 S.O2    1  UNL1        0.0757
      9 O           0.0564   -3.3283   -0.3727 O.2     1  UNL1       -0.1499
     10 O          -1.2794   -3.1185   -2.3581 O.2     1  UNL1       -0.1499
     11 C          -1.7042   -1.2966   -0.4578 C.ar    1  UNL1        0.1087
     12 C          -1.6018   -0.8616    0.8389 C.ar    1  UNL1       -0.0333
     13 C          -2.5537   -0.0321    1.4167 C.ar    1  UNL1       -0.0392
     14 C          -3.6453    0.3658    0.6450 C.ar    1  UNL1        0.0247
     15 N          -4.6172    1.2210    1.2562 N.pl3   1  UNL1       -0.3580
     16 C          -3.7903   -0.0463   -0.6627 C.ar    1  UNL1       -0.0392
     17 C          -2.8121   -0.8714   -1.1856 C.ar    1  UNL1       -0.0333
     18 O           1.5836   -0.4292   -0.1844 O.2     1  UNL1       -0.4286
     19 H           3.9906    0.9612    1.6988 H       1  UNL1        0.0308
     20 H           2.5315    0.1930    2.4071 H       1  UNL1        0.0308
     21 H           2.3849    1.8500    1.8205 H       1  UNL1        0.0308
     22 H           4.0685    2.7789   -0.9162 H       1  UNL1        0.0294
     23 H           4.9258    1.5593   -1.8977 H       1  UNL1        0.0294
     24 H           5.0314    1.5831   -0.0469 H       1  UNL1        0.0294
     25 H           0.8218   -1.4530   -3.1521 H       1  UNL1        0.1783
     26 H          -0.7207   -1.2169    1.3733 H       1  UNL1        0.0638
     27 H          -2.4065    0.2758    2.4581 H       1  UNL1        0.0636
     28 H          -4.9535    2.1006    0.7628 H       1  UNL1        0.1423
     29 H          -5.0580    1.0656    2.1896 H       1  UNL1        0.1423
     30 H          -4.6451    0.2839   -1.2187 H       1  UNL1        0.0636
     31 H          -2.9614   -1.1769   -2.2244 H       1  UNL1        0.0638
@<TRIPOS>BOND
     1     1     2    1
     2     2     3   ar
     3     3     4    1
     4     3     5   ar
     5     5     6   ar
     6     6     7    1
     7     7     8    1
     8     8     9    2
     9     8    10    2
    10     8    11    1
    11    11    12   ar
    12    12    13   ar
    13    13    14   ar
    14    14    15    1
    15    14    16   ar
    16    16    17   ar
    17     6    18   ar
    18    18     2   ar
    19    17    11   ar
    20     1    19    1
    21     1    20    1
    22     1    21    1
    23     4    22    1
    24     4    23    1
    25     4    24    1
    26     7    25    1
    27    12    26    1
    28    13    27    1
    29    15    28    1
    30    15    29    1
    31    16    30    1
    32    17    31    1
