
     RDKit          3D

 31 32  0  0  0  0  0  0  0  0999 V2000
    2.8908    0.8679    1.6018 C   0  0  0  0  0  0  0  0  0  0  0  0
    2.5200    0.3821    0.2467 C   0  0  0  0  0  0  0  0  0  0  0  0
    3.2088    0.7803   -0.8648 C   0  0  0  0  0  0  0  0  0  0  0  0
    4.3866    1.7144   -0.9436 C   0  0  0  0  0  0  0  0  0  0  0  0
    2.6515    0.1843   -1.9349 N   0  0  0  0  0  0  0  0  0  0  0  0
    1.6206   -0.5784   -1.4708 C   0  0  0  0  0  0  0  0  0  0  0  0
    0.6659   -1.4322   -2.1026 N   0  0  0  0  0  0  0  0  0  0  0  0
   -0.5895   -2.3257   -1.2840 S   0  0  0  0  0  0  0  0  0  0  0  0
    0.0564   -3.3283   -0.3727 O   0  0  0  0  0  0  0  0  0  0  0  0
   -1.2794   -3.1185   -2.3581 O   0  0  0  0  0  0  0  0  0  0  0  0
   -1.7042   -1.2966   -0.4578 C   0  0  0  0  0  0  0  0  0  0  0  0
   -1.6018   -0.8616    0.8389 C   0  0  0  0  0  0  0  0  0  0  0  0
   -2.5537   -0.0321    1.4167 C   0  0  0  0  0  0  0  0  0  0  0  0
   -3.6453    0.3658    0.6450 C   0  0  0  0  0  0  0  0  0  0  0  0
   -4.6172    1.2210    1.2562 N   0  0  0  0  0  0  0  0  0  0  0  0
   -3.7903   -0.0463   -0.6627 C   0  0  0  0  0  0  0  0  0  0  0  0
   -2.8121   -0.8714   -1.1856 C   0  0  0  0  0  0  0  0  0  0  0  0
    1.5836   -0.4292   -0.1844 O   0  0  0  0  0  0  0  0  0  0  0  0
    3.9906    0.9612    1.6988 H   0  0  0  0  0  0  0  0  0  0  0  0
    2.5315    0.1930    2.4071 H   0  0  0  0  0  0  0  0  0  0  0  0
    2.3849    1.8500    1.8205 H   0  0  0  0  0  0  0  0  0  0  0  0
    4.0685    2.7789   -0.9162 H   0  0  0  0  0  0  0  0  0  0  0  0
    4.9258    1.5593   -1.8977 H   0  0  0  0  0  0  0  0  0  0  0  0
    5.0314    1.5831   -0.0469 H   0  0  0  0  0  0  0  0  0  0  0  0
    0.8218   -1.4530   -3.1521 H   0  0  0  0  0  0  0  0  0  0  0  0
   -0.7207   -1.2169    1.3733 H   0  0  0  0  0  0  0  0  0  0  0  0
   -2.4065    0.2758    2.4581 H   0  0  0  0  0  0  0  0  0  0  0  0
   -4.9535    2.1006    0.7628 H   0  0  0  0  0  0  0  0  0  0  0  0
   -5.0580    1.0656    2.1896 H   0  0  0  0  0  0  0  0  0  0  0  0
   -4.6451    0.2839   -1.2187 H   0  0  0  0  0  0  0  0  0  0  0  0
   -2.9614   -1.1769   -2.2244 H   0  0  0  0  0  0  0  0  0  0  0  0
  1  2  1  0
  2  3  2  0
  3  4  1  0
  3  5  1  0
  5  6  2  0
  6  7  1  0
  7  8  1  0
  8  9  2  0
  8 10  2  0
  8 11  1  0
 11 12  2  0
 12 13  1  0
 13 14  2  0
 14 15  1  0
 14 16  1  0
 16 17  2  0
  6 18  1  0
 18  2  1  0
 17 11  1  0
  1 19  1  0
  1 20  1  0
  1 21  1  0
  4 22  1  0
  4 23  1  0
  4 24  1  0
  7 25  1  0
 12 26  1  0
 13 27  1  0
 15 28  1  0
 15 29  1  0
 16 30  1  0
 17 31  1  0
M  END
$$$$
