@<TRIPOS>MOLECULE
*****
 95 100 0 0 0
SMALL
GASTEIGER

@<TRIPOS>ATOM
      1 O          11.8271    1.3995   -0.2026 O.2     1  UNL1       -0.2737
      2 C          11.8739    2.6556   -0.2056 C.2     1  UNL1        0.2354
      3 C          11.0837    3.4154   -1.1553 C.3     1  UNL1        0.0259
      4 C           9.9899    2.7746   -1.8907 C.3     1  UNL1       -0.0447
      5 C           8.7913    2.2949   -1.1790 C.3     1  UNL1       -0.0526
      6 C           8.9311    1.2899   -0.1130 C.3     1  UNL1       -0.0526
      7 C           7.5542    0.9385    0.4427 C.3     1  UNL1       -0.0448
      8 C           6.6174    0.3670   -0.5599 C.3     1  UNL1        0.0243
      9 C           5.3285    0.0644    0.0986 C.2     1  UNL1        0.2172
     10 O           5.1743    0.3225    1.3114 O.2     1  UNL1       -0.2755
     11 N           4.2601   -0.5167   -0.6262 N.am    1  UNL1       -0.2855
     12 C           3.0301   -0.8054    0.0023 C.ar    1  UNL1        0.0334
     13 C           2.8563   -2.0227    0.6057 C.ar    1  UNL1       -0.0401
     14 C           1.6442   -2.3161    1.2269 C.ar    1  UNL1       -0.0520
     15 C           0.5937   -1.3985    1.2523 C.ar    1  UNL1        0.0080
     16 C          -0.6781   -1.7570    1.9349 C.3     1  UNL1        0.1863
     17 O          -0.9860   -3.0406    1.6114 O.3     1  UNL1       -0.3392
     18 C          -2.2159   -3.5001    2.0165 C.3     1  UNL1        0.0893
     19 C          -2.6385   -4.5656    1.1035 C.ar    1  UNL1       -0.0187
     20 C          -1.7276   -5.5294    0.7275 C.ar    1  UNL1       -0.0558
     21 C          -2.0776   -6.5574   -0.1256 C.ar    1  UNL1       -0.0561
     22 C          -3.3591   -6.6453   -0.6268 C.ar    1  UNL1       -0.0222
     23 C          -3.7928   -7.7282   -1.5461 C.3     1  UNL1        0.0692
     24 O          -4.2880   -8.8259   -0.8473 O.3     1  UNL1       -0.3904
     25 C          -4.2689   -5.6908   -0.2574 C.ar    1  UNL1       -0.0561
     26 C          -3.9034   -4.6623    0.6011 C.ar    1  UNL1       -0.0558
     27 C          -3.1735   -2.3995    2.2623 C.3     1  UNL1        0.0050
     28 C          -2.8608   -1.2830    1.2883 C.3     1  UNL1        0.0741
     29 C          -2.8702   -1.6932   -0.1442 C.3     1  UNL1        0.0291
     30 S          -2.4760   -0.1831   -1.1146 S.3     1  UNL1       -0.0646
     31 C          -3.8833    0.9266   -0.8857 C.ar    1  UNL1        0.2581
     32 N          -4.0126    1.8393    0.0878 N.ar    1  UNL1       -0.2027
     33 C          -5.2006    2.4750   -0.0713 C.ar    1  UNL1        0.1181
     34 C          -5.7269    3.5435    0.7851 C.ar    1  UNL1        0.0041
     35 C          -5.9361    3.3116    2.1338 C.ar    1  UNL1       -0.0524
     36 C          -6.4301    4.3056    2.9526 C.ar    1  UNL1       -0.0611
     37 C          -6.7256    5.5588    2.4304 C.ar    1  UNL1       -0.0617
     38 C          -6.5280    5.8179    1.0936 C.ar    1  UNL1       -0.0611
     39 C          -6.0287    4.7934    0.2975 C.ar    1  UNL1       -0.0524
     40 C          -5.7895    1.9121   -1.1817 C.ar    1  UNL1        0.1639
     41 C          -7.0866    2.2588   -1.7623 C.ar    1  UNL1        0.0195
     42 C          -7.1891    2.7857   -3.0366 C.ar    1  UNL1       -0.0510
     43 C          -8.4141    3.1102   -3.5894 C.ar    1  UNL1       -0.0611
     44 C          -9.5817    2.9107   -2.8660 C.ar    1  UNL1       -0.0617
     45 C          -9.4850    2.3839   -1.5904 C.ar    1  UNL1       -0.0611
     46 C          -8.2609    2.0661   -1.0540 C.ar    1  UNL1       -0.0510
     47 O          -4.9585    0.9963   -1.6240 O.2     1  UNL1       -0.4300
     48 O          -1.6081   -0.8011    1.6270 O.3     1  UNL1       -0.3430
     49 C           0.8098   -0.1823    0.6319 C.ar    1  UNL1       -0.0520
     50 C           2.0243    0.1202    0.0058 C.ar    1  UNL1       -0.0401
     51 N          12.7348    3.2657    0.7641 N.am    1  UNL1       -0.1975
     52 O          13.4334    2.4942    1.6088 O.3     1  UNL1       -0.2952
     53 H          11.8001    3.8403   -1.9259 H       1  UNL1        0.0359
     54 H          10.6747    4.3390   -0.6689 H       1  UNL1        0.0359
     55 H          10.3629    1.9824   -2.6242 H       1  UNL1        0.0270
     56 H           9.6077    3.5639   -2.6277 H       1  UNL1        0.0270
     57 H           8.1325    1.8159   -1.9832 H       1  UNL1        0.0265
     58 H           8.2184    3.1833   -0.7943 H       1  UNL1        0.0265
     59 H           9.3611    0.3634   -0.4803 H       1  UNL1        0.0265
     60 H           9.4526    1.7261    0.7959 H       1  UNL1        0.0265
     61 H           7.7084    0.2041    1.2414 H       1  UNL1        0.0270
     62 H           7.0927    1.8375    0.9154 H       1  UNL1        0.0270
     63 H           7.0023   -0.6277   -0.9328 H       1  UNL1        0.0358
     64 H           6.3701    1.0394   -1.4106 H       1  UNL1        0.0358
     65 H           4.4180   -0.7190   -1.6295 H       1  UNL1        0.1548
     66 H           3.6313   -2.7783    0.6211 H       1  UNL1        0.0636
     67 H           1.4813   -3.2681    1.7096 H       1  UNL1        0.0622
     68 H          -0.4745   -1.7010    3.0303 H       1  UNL1        0.0965
     69 H          -2.0318   -4.0099    3.0124 H       1  UNL1        0.0648
     70 H          -0.6975   -5.5260    1.0818 H       1  UNL1        0.0621
     71 H          -1.3794   -7.3228   -0.4325 H       1  UNL1        0.0621
     72 H          -2.9261   -7.9858   -2.1858 H       1  UNL1        0.0607
     73 H          -4.5594   -7.2845   -2.2211 H       1  UNL1        0.0607
     74 H          -3.5250   -9.3491   -0.5403 H       1  UNL1        0.2098
     75 H          -5.2740   -5.7525   -0.6455 H       1  UNL1        0.0621
     76 H          -4.6314   -3.9326    0.8711 H       1  UNL1        0.0621
     77 H          -2.8964   -1.9609    3.2753 H       1  UNL1        0.0319
     78 H          -4.2200   -2.6557    2.3535 H       1  UNL1        0.0319
     79 H          -3.6166   -0.4889    1.4401 H       1  UNL1        0.0606
     80 H          -2.0699   -2.4089   -0.3425 H       1  UNL1        0.0406
     81 H          -3.8721   -2.0005   -0.5086 H       1  UNL1        0.0406
     82 H          -5.6941    2.3122    2.5205 H       1  UNL1        0.0624
     83 H          -6.5974    4.1396    4.0050 H       1  UNL1        0.0618
     84 H          -7.1113    6.3349    3.0707 H       1  UNL1        0.0618
     85 H          -6.7489    6.7930    0.6457 H       1  UNL1        0.0618
     86 H          -5.8597    4.9595   -0.7599 H       1  UNL1        0.0624
     87 H          -6.2895    2.9532   -3.6293 H       1  UNL1        0.0625
     88 H          -8.4871    3.5266   -4.5986 H       1  UNL1        0.0618
     89 H         -10.5212    3.1643   -3.3020 H       1  UNL1        0.0618
     90 H         -10.4229    2.2325   -1.0323 H       1  UNL1        0.0618
     91 H          -8.2129    1.6512   -0.0458 H       1  UNL1        0.0625
     92 H           0.0287    0.5605    0.6237 H       1  UNL1        0.0622
     93 H           2.1283    1.0877   -0.4599 H       1  UNL1        0.0636
     94 H          12.7830    4.2904    0.7734 H       1  UNL1        0.1822
     95 H          13.4688    1.5775    1.2463 H       1  UNL1        0.2414
@<TRIPOS>BOND
     1     1     2    2
     2     2     3    1
     3     3     4    1
     4     4     5    1
     5     5     6    1
     6     6     7    1
     7     7     8    1
     8     8     9    1
     9     9    10    2
    10     9    11   am
    11    11    12    1
    12    12    13   ar
    13    13    14   ar
    14    14    15   ar
    15    15    16    1
    16    16    17    1
    17    17    18    1
    18    18    19    1
    19    19    20   ar
    20    20    21   ar
    21    21    22   ar
    22    22    23    1
    23    23    24    1
    24    22    25   ar
    25    25    26   ar
    26    18    27    1
    27    27    28    1
    28    28    29    1
    29    29    30    1
    30    30    31    1
    31    31    32   ar
    32    32    33   ar
    33    33    34    1
    34    34    35   ar
    35    35    36   ar
    36    36    37   ar
    37    37    38   ar
    38    38    39   ar
    39    33    40   ar
    40    40    41    1
    41    41    42   ar
    42    42    43   ar
    43    43    44   ar
    44    44    45   ar
    45    45    46   ar
    46    40    47   ar
    47    28    48    1
    48    15    49   ar
    49    49    50   ar
    50     2    51   am
    51    51    52    1
    52    50    12   ar
    53    48    16    1
    54    26    19   ar
    55    47    31   ar
    56    39    34   ar
    57    46    41   ar
    58     3    53    1
    59     3    54    1
    60     4    55    1
    61     4    56    1
    62     5    57    1
    63     5    58    1
    64     6    59    1
    65     6    60    1
    66     7    61    1
    67     7    62    1
    68     8    63    1
    69     8    64    1
    70    11    65    1
    71    13    66    1
    72    14    67    1
    73    16    68    1
    74    18    69    1
    75    20    70    1
    76    21    71    1
    77    23    72    1
    78    23    73    1
    79    24    74    1
    80    25    75    1
    81    26    76    1
    82    27    77    1
    83    27    78    1
    84    28    79    1
    85    29    80    1
    86    29    81    1
    87    35    82    1
    88    36    83    1
    89    37    84    1
    90    38    85    1
    91    39    86    1
    92    42    87    1
    93    43    88    1
    94    44    89    1
    95    45    90    1
    96    46    91    1
    97    49    92    1
    98    50    93    1
    99    51    94    1
   100    52    95    1
