
     RDKit          3D

 95100  0  0  0  0  0  0  0  0999 V2000
   11.8271    1.3995   -0.2026 O   0  0  0  0  0  0  0  0  0  0  0  0
   11.8739    2.6556   -0.2056 C   0  0  0  0  0  0  0  0  0  0  0  0
   11.0837    3.4154   -1.1553 C   0  0  0  0  0  0  0  0  0  0  0  0
    9.9899    2.7746   -1.8907 C   0  0  0  0  0  0  0  0  0  0  0  0
    8.7913    2.2949   -1.1790 C   0  0  0  0  0  0  0  0  0  0  0  0
    8.9311    1.2899   -0.1130 C   0  0  0  0  0  0  0  0  0  0  0  0
    7.5542    0.9385    0.4427 C   0  0  0  0  0  0  0  0  0  0  0  0
    6.6174    0.3670   -0.5599 C   0  0  0  0  0  0  0  0  0  0  0  0
    5.3285    0.0644    0.0986 C   0  0  0  0  0  0  0  0  0  0  0  0
    5.1743    0.3225    1.3114 O   0  0  0  0  0  0  0  0  0  0  0  0
    4.2601   -0.5167   -0.6262 N   0  0  0  0  0  0  0  0  0  0  0  0
    3.0301   -0.8054    0.0023 C   0  0  0  0  0  0  0  0  0  0  0  0
    2.8563   -2.0227    0.6057 C   0  0  0  0  0  0  0  0  0  0  0  0
    1.6442   -2.3161    1.2269 C   0  0  0  0  0  0  0  0  0  0  0  0
    0.5937   -1.3985    1.2523 C   0  0  0  0  0  0  0  0  0  0  0  0
   -0.6781   -1.7570    1.9349 C   0  0  2  0  0  0  0  0  0  0  0  0
   -0.9860   -3.0406    1.6114 O   0  0  0  0  0  0  0  0  0  0  0  0
   -2.2159   -3.5001    2.0165 C   0  0  2  0  0  0  0  0  0  0  0  0
   -2.6385   -4.5656    1.1035 C   0  0  0  0  0  0  0  0  0  0  0  0
   -1.7276   -5.5294    0.7275 C   0  0  0  0  0  0  0  0  0  0  0  0
   -2.0776   -6.5574   -0.1256 C   0  0  0  0  0  0  0  0  0  0  0  0
   -3.3591   -6.6453   -0.6268 C   0  0  0  0  0  0  0  0  0  0  0  0
   -3.7928   -7.7282   -1.5461 C   0  0  0  0  0  0  0  0  0  0  0  0
   -4.2880   -8.8259   -0.8473 O   0  0  0  0  0  0  0  0  0  0  0  0
   -4.2689   -5.6908   -0.2574 C   0  0  0  0  0  0  0  0  0  0  0  0
   -3.9034   -4.6623    0.6011 C   0  0  0  0  0  0  0  0  0  0  0  0
   -3.1735   -2.3995    2.2623 C   0  0  0  0  0  0  0  0  0  0  0  0
   -2.8608   -1.2830    1.2883 C   0  0  2  0  0  0  0  0  0  0  0  0
   -2.8702   -1.6932   -0.1442 C   0  0  0  0  0  0  0  0  0  0  0  0
   -2.4760   -0.1831   -1.1146 S   0  0  0  0  0  0  0  0  0  0  0  0
   -3.8833    0.9266   -0.8857 C   0  0  0  0  0  0  0  0  0  0  0  0
   -4.0126    1.8393    0.0878 N   0  0  0  0  0  0  0  0  0  0  0  0
   -5.2006    2.4750   -0.0713 C   0  0  0  0  0  0  0  0  0  0  0  0
   -5.7269    3.5435    0.7851 C   0  0  0  0  0  0  0  0  0  0  0  0
   -5.9361    3.3116    2.1338 C   0  0  0  0  0  0  0  0  0  0  0  0
   -6.4301    4.3056    2.9526 C   0  0  0  0  0  0  0  0  0  0  0  0
   -6.7256    5.5588    2.4304 C   0  0  0  0  0  0  0  0  0  0  0  0
   -6.5280    5.8179    1.0936 C   0  0  0  0  0  0  0  0  0  0  0  0
   -6.0287    4.7934    0.2975 C   0  0  0  0  0  0  0  0  0  0  0  0
   -5.7895    1.9121   -1.1817 C   0  0  0  0  0  0  0  0  0  0  0  0
   -7.0866    2.2588   -1.7623 C   0  0  0  0  0  0  0  0  0  0  0  0
   -7.1891    2.7857   -3.0366 C   0  0  0  0  0  0  0  0  0  0  0  0
   -8.4141    3.1102   -3.5894 C   0  0  0  0  0  0  0  0  0  0  0  0
   -9.5817    2.9107   -2.8660 C   0  0  0  0  0  0  0  0  0  0  0  0
   -9.4850    2.3839   -1.5904 C   0  0  0  0  0  0  0  0  0  0  0  0
   -8.2609    2.0661   -1.0540 C   0  0  0  0  0  0  0  0  0  0  0  0
   -4.9585    0.9963   -1.6240 O   0  0  0  0  0  0  0  0  0  0  0  0
   -1.6081   -0.8011    1.6270 O   0  0  0  0  0  0  0  0  0  0  0  0
    0.8098   -0.1823    0.6319 C   0  0  0  0  0  0  0  0  0  0  0  0
    2.0243    0.1202    0.0058 C   0  0  0  0  0  0  0  0  0  0  0  0
   12.7348    3.2657    0.7641 N   0  0  0  0  0  0  0  0  0  0  0  0
   13.4334    2.4942    1.6088 O   0  0  0  0  0  0  0  0  0  0  0  0
   11.8001    3.8403   -1.9259 H   0  0  0  0  0  0  0  0  0  0  0  0
   10.6747    4.3390   -0.6689 H   0  0  0  0  0  0  0  0  0  0  0  0
   10.3629    1.9824   -2.6242 H   0  0  0  0  0  0  0  0  0  0  0  0
    9.6077    3.5639   -2.6277 H   0  0  0  0  0  0  0  0  0  0  0  0
    8.1325    1.8159   -1.9832 H   0  0  0  0  0  0  0  0  0  0  0  0
    8.2184    3.1833   -0.7943 H   0  0  0  0  0  0  0  0  0  0  0  0
    9.3611    0.3634   -0.4803 H   0  0  0  0  0  0  0  0  0  0  0  0
    9.4526    1.7261    0.7959 H   0  0  0  0  0  0  0  0  0  0  0  0
    7.7084    0.2041    1.2414 H   0  0  0  0  0  0  0  0  0  0  0  0
    7.0927    1.8375    0.9154 H   0  0  0  0  0  0  0  0  0  0  0  0
    7.0023   -0.6277   -0.9328 H   0  0  0  0  0  0  0  0  0  0  0  0
    6.3701    1.0394   -1.4106 H   0  0  0  0  0  0  0  0  0  0  0  0
    4.4180   -0.7190   -1.6295 H   0  0  0  0  0  0  0  0  0  0  0  0
    3.6313   -2.7783    0.6211 H   0  0  0  0  0  0  0  0  0  0  0  0
    1.4813   -3.2681    1.7096 H   0  0  0  0  0  0  0  0  0  0  0  0
   -0.4745   -1.7010    3.0303 H   0  0  0  0  0  0  0  0  0  0  0  0
   -2.0318   -4.0099    3.0124 H   0  0  0  0  0  0  0  0  0  0  0  0
   -0.6975   -5.5260    1.0818 H   0  0  0  0  0  0  0  0  0  0  0  0
   -1.3794   -7.3228   -0.4325 H   0  0  0  0  0  0  0  0  0  0  0  0
   -2.9261   -7.9858   -2.1858 H   0  0  0  0  0  0  0  0  0  0  0  0
   -4.5594   -7.2845   -2.2211 H   0  0  0  0  0  0  0  0  0  0  0  0
   -3.5250   -9.3491   -0.5403 H   0  0  0  0  0  0  0  0  0  0  0  0
   -5.2740   -5.7525   -0.6455 H   0  0  0  0  0  0  0  0  0  0  0  0
   -4.6314   -3.9326    0.8711 H   0  0  0  0  0  0  0  0  0  0  0  0
   -2.8964   -1.9609    3.2753 H   0  0  0  0  0  0  0  0  0  0  0  0
   -4.2200   -2.6557    2.3535 H   0  0  0  0  0  0  0  0  0  0  0  0
   -3.6166   -0.4889    1.4401 H   0  0  0  0  0  0  0  0  0  0  0  0
   -2.0699   -2.4089   -0.3425 H   0  0  0  0  0  0  0  0  0  0  0  0
   -3.8721   -2.0005   -0.5086 H   0  0  0  0  0  0  0  0  0  0  0  0
   -5.6941    2.3122    2.5205 H   0  0  0  0  0  0  0  0  0  0  0  0
   -6.5974    4.1396    4.0050 H   0  0  0  0  0  0  0  0  0  0  0  0
   -7.1113    6.3349    3.0707 H   0  0  0  0  0  0  0  0  0  0  0  0
   -6.7489    6.7930    0.6457 H   0  0  0  0  0  0  0  0  0  0  0  0
   -5.8597    4.9595   -0.7599 H   0  0  0  0  0  0  0  0  0  0  0  0
   -6.2895    2.9532   -3.6293 H   0  0  0  0  0  0  0  0  0  0  0  0
   -8.4871    3.5266   -4.5986 H   0  0  0  0  0  0  0  0  0  0  0  0
  -10.5212    3.1643   -3.3020 H   0  0  0  0  0  0  0  0  0  0  0  0
  -10.4229    2.2325   -1.0323 H   0  0  0  0  0  0  0  0  0  0  0  0
   -8.2129    1.6512   -0.0458 H   0  0  0  0  0  0  0  0  0  0  0  0
    0.0287    0.5605    0.6237 H   0  0  0  0  0  0  0  0  0  0  0  0
    2.1283    1.0877   -0.4599 H   0  0  0  0  0  0  0  0  0  0  0  0
   12.7830    4.2904    0.7734 H   0  0  0  0  0  0  0  0  0  0  0  0
   13.4688    1.5775    1.2463 H   0  0  0  0  0  0  0  0  0  0  0  0
  1  2  2  0
  2  3  1  0
  3  4  1  0
  4  5  1  0
  5  6  1  0
  6  7  1  0
  7  8  1  0
  8  9  1  0
  9 10  2  0
  9 11  1  0
 11 12  1  0
 12 13  2  0
 13 14  1  0
 14 15  2  0
 15 16  1  0
 16 17  1  0
 17 18  1  0
 18 19  1  0
 19 20  2  0
 20 21  1  0
 21 22  2  0
 22 23  1  0
 23 24  1  0
 22 25  1  0
 25 26  2  0
 18 27  1  0
 27 28  1  0
 28 29  1  0
 29 30  1  0
 30 31  1  0
 31 32  2  0
 32 33  1  0
 33 34  1  0
 34 35  2  0
 35 36  1  0
 36 37  2  0
 37 38  1  0
 38 39  2  0
 33 40  2  0
 40 41  1  0
 41 42  2  0
 42 43  1  0
 43 44  2  0
 44 45  1  0
 45 46  2  0
 40 47  1  0
 28 48  1  0
 15 49  1  0
 49 50  2  0
  2 51  1  0
 51 52  1  0
 50 12  1  0
 48 16  1  0
 26 19  1  0
 47 31  1  0
 39 34  1  0
 46 41  1  0
  3 53  1  0
  3 54  1  0
  4 55  1  0
  4 56  1  0
  5 57  1  0
  5 58  1  0
  6 59  1  0
  6 60  1  0
  7 61  1  0
  7 62  1  0
  8 63  1  0
  8 64  1  0
 11 65  1  0
 13 66  1  0
 14 67  1  0
 16 68  1  1
 18 69  1  1
 20 70  1  0
 21 71  1  0
 23 72  1  0
 23 73  1  0
 24 74  1  0
 25 75  1  0
 26 76  1  0
 27 77  1  0
 27 78  1  0
 28 79  1  6
 29 80  1  0
 29 81  1  0
 35 82  1  0
 36 83  1  0
 37 84  1  0
 38 85  1  0
 39 86  1  0
 42 87  1  0
 43 88  1  0
 44 89  1  0
 45 90  1  0
 46 91  1  0
 49 92  1  0
 50 93  1  0
 51 94  1  0
 52 95  1  0
M  END
$$$$
