@<TRIPOS>MOLECULE
*****
 58 61 0 0 0
SMALL
GASTEIGER

@<TRIPOS>ATOM
      1 C           7.5836    1.0479    0.1169 C.3     1  UNL1       -0.0128
      2 N           6.3342    1.5591   -0.3665 N.3     1  UNL1       -0.3052
      3 C           5.7783    0.6466   -1.3439 C.3     1  UNL1        0.0003
      4 C           4.2950    0.8040   -1.4014 C.3     1  UNL1       -0.0216
      5 C           3.6855    0.2530   -0.1386 C.3     1  UNL1        0.0257
      6 N           2.2712    0.6097   -0.0325 N.am    1  UNL1       -0.3083
      7 C           1.2631   -0.4071    0.1195 C.2     1  UNL1        0.2491
      8 O           1.7269   -1.5830    0.1514 O.2     1  UNL1       -0.2700
      9 C          -0.1473   -0.1424    0.2285 C.ar    1  UNL1        0.0945
     10 C          -0.6110    1.1824    0.0847 C.ar    1  UNL1        0.0466
     11 N          -1.9099    1.4859    0.1519 N.ar    1  UNL1       -0.2218
     12 C          -2.8210    0.5547    0.3567 C.ar    1  UNL1        0.2212
     13 N          -4.2155    0.8038    0.4365 N.pl3   1  UNL1       -0.2835
     14 C          -4.8189    2.0519    0.2237 C.ar    1  UNL1        0.0363
     15 C          -6.1077    2.2155    0.7464 C.ar    1  UNL1       -0.0220
     16 C          -6.7467    3.4016    0.5506 C.ar    1  UNL1        0.0441
     17 CL         -8.3497    3.6403    1.1859 Cl      1  UNL1       -0.0834
     18 C          -6.1360    4.4216   -0.1489 C.ar    1  UNL1       -0.0249
     19 C          -4.8699    4.2589   -0.6619 C.ar    1  UNL1        0.0441
     20 CL         -4.0571    5.5334   -1.5587 Cl      1  UNL1       -0.0834
     21 C          -4.1980    3.0391   -0.4680 C.ar    1  UNL1       -0.0220
     22 N          -2.3966   -0.7127    0.4965 N.ar    1  UNL1       -0.1987
     23 C          -1.0808   -1.1013    0.4401 C.ar    1  UNL1        0.1364
     24 N          -0.7539   -2.4580    0.6241 N.pl3   1  UNL1       -0.3207
     25 C          -1.8508   -3.4001    0.8241 C.3     1  UNL1        0.0733
     26 C          -1.3166   -4.8012    1.0631 C.3     1  UNL1        0.0686
     27 O          -2.2653   -5.6888    0.6369 O.3     1  UNL1       -0.3752
     28 C          -3.1781   -5.0466   -0.1494 C.3     1  UNL1        0.0755
     29 C          -2.6569   -3.6357   -0.4347 C.3     1  UNL1        0.0988
     30 O          -3.7195   -2.7459   -0.5780 O.3     1  UNL1       -0.3876
     31 C           4.4713    0.7882    1.0323 C.3     1  UNL1       -0.0216
     32 C           5.4049    1.9038    0.6757 C.3     1  UNL1        0.0003
     33 H           8.3983    1.6665   -0.3601 H       1  UNL1        0.0391
     34 H           7.7098    1.1648    1.2074 H       1  UNL1        0.0391
     35 H           7.7742    0.0044   -0.2257 H       1  UNL1        0.0391
     36 H           6.1916    0.8712   -2.3720 H       1  UNL1        0.0427
     37 H           6.0265   -0.3889   -1.0768 H       1  UNL1        0.0427
     38 H           4.0765    1.8923   -1.4803 H       1  UNL1        0.0295
     39 H           3.9090    0.2774   -2.2993 H       1  UNL1        0.0295
     40 H           3.7796   -0.8487   -0.1136 H       1  UNL1        0.0499
     41 H           1.9595    1.5924   -0.0619 H       1  UNL1        0.1493
     42 H           0.0870    1.9650   -0.0840 H       1  UNL1        0.0839
     43 H          -4.8531   -0.0162    0.6700 H       1  UNL1        0.1550
     44 H          -6.5805    1.3958    1.3003 H       1  UNL1        0.0651
     45 H          -6.6584    5.3493   -0.2918 H       1  UNL1        0.0647
     46 H          -3.2185    2.9180   -0.8838 H       1  UNL1        0.0651
     47 H           0.2036   -2.8075    0.6298 H       1  UNL1        0.1479
     48 H          -2.5172   -3.1431    1.6430 H       1  UNL1        0.0547
     49 H          -0.9422   -4.9307    2.0780 H       1  UNL1        0.0579
     50 H          -0.4267   -4.9284    0.3780 H       1  UNL1        0.0579
     51 H          -3.4435   -5.5847   -1.0749 H       1  UNL1        0.0586
     52 H          -4.0999   -4.8856    0.4699 H       1  UNL1        0.0586
     53 H          -2.0013   -3.6593   -1.3284 H       1  UNL1        0.0635
     54 H          -3.7856   -2.5030   -1.5347 H       1  UNL1        0.2100
     55 H           3.7958    1.1690    1.8440 H       1  UNL1        0.0295
     56 H           5.0937   -0.0137    1.5126 H       1  UNL1        0.0295
     57 H           4.8967    2.8644    0.4507 H       1  UNL1        0.0427
     58 H           6.0181    2.1006    1.6038 H       1  UNL1        0.0427
@<TRIPOS>BOND
     1     1     2    1
     2     2     3    1
     3     3     4    1
     4     4     5    1
     5     5     6    1
     6     6     7   am
     7     7     8    2
     8     7     9    1
     9     9    10   ar
    10    10    11   ar
    11    11    12   ar
    12    12    13    1
    13    13    14    1
    14    14    15   ar
    15    15    16   ar
    16    16    17    1
    17    16    18   ar
    18    18    19   ar
    19    19    20    1
    20    19    21   ar
    21    12    22   ar
    22    22    23   ar
    23    23    24    1
    24    24    25    1
    25    25    26    1
    26    26    27    1
    27    27    28    1
    28    28    29    1
    29    29    30    1
    30     5    31    1
    31    31    32    1
    32    32     2    1
    33    23     9   ar
    34    29    25    1
    35    21    14   ar
    36     1    33    1
    37     1    34    1
    38     1    35    1
    39     3    36    1
    40     3    37    1
    41     4    38    1
    42     4    39    1
    43     5    40    1
    44     6    41    1
    45    10    42    1
    46    13    43    1
    47    15    44    1
    48    18    45    1
    49    21    46    1
    50    24    47    1
    51    25    48    1
    52    26    49    1
    53    26    50    1
    54    28    51    1
    55    28    52    1
    56    29    53    1
    57    30    54    1
    58    31    55    1
    59    31    56    1
    60    32    57    1
    61    32    58    1
