@<TRIPOS>MOLECULE
*****
 117 118 0 0 0
SMALL
GASTEIGER

@<TRIPOS>ATOM
      1 C           8.8755    0.8675   -4.3379 C.3     0  UNK0       -0.0613
      2 C           9.3720   -0.0206   -3.2338 C.3     0  UNK0       -0.0305
      3 C           8.7559    0.3775   -1.9533 C.ar    0  UNK0       -0.0476
      4 C           7.5002   -0.0791   -1.6348 C.ar    0  UNK0       -0.0579
      5 C           7.0045    0.2760   -0.3968 C.ar    0  UNK0       -0.0494
      6 C           7.6870    1.0404    0.5076 C.ar    0  UNK0        0.0367
      7 C           7.0814    1.3716    1.7882 C.2     0  UNK0        0.2447
      8 O           7.7292    1.5608    2.8380 O.2     0  UNK0       -0.2702
      9 N           5.6621    1.4993    1.8983 N.am    1  PHE1       -0.2997
     10 CA          4.9967    1.7861    3.1220 C.3     1  PHE1        0.1036
     11 CB          4.6453    3.2642    3.2489 C.3     1  PHE1       -0.0006
     12 CG          5.8936    4.0316    3.1785 C.ar    1  PHE1       -0.0451
     13 CD1         6.5576    4.3279    4.3481 C.ar    1  PHE1       -0.0585
     14 CE1         7.7411    5.0358    4.3867 C.ar    1  PHE1       -0.0615
     15 CZ          8.2775    5.4613    3.1965 C.ar    1  PHE1       -0.0617
     16 CE2         7.6272    5.1751    1.9950 C.ar    1  PHE1       -0.0615
     17 CD2         6.4525    4.4683    2.0040 C.ar    1  PHE1       -0.0585
     18 C           3.7098    1.0407    3.3076 C.2     1  PHE1        0.2343
     19 O           3.1932    0.9378    4.4544 O.2     1  PHE1       -0.2738
     20 N           3.0280    0.4380    2.2436 N.am    2  ALA2       -0.3027
     21 CA          1.7872   -0.3232    2.3147 C.3     2  ALA2        0.0966
     22 CB          0.6706    0.7230    2.7514 C.3     2  ALA2       -0.0381
     23 C           1.3450   -0.7626    1.0103 C.2     2  ALA2        0.2337
     24 O           1.9669   -0.2678   -0.0100 O.2     2  ALA2       -0.2738
     25 N           0.3114   -1.6686    0.6977 N.am    3  LEU3       -0.3025
     26 CA         -0.0063   -1.9598   -0.7119 C.3     3  LEU3        0.0996
     27 CB          0.4458   -3.3113   -1.1305 C.3     3  LEU3       -0.0236
     28 CG         -0.0730   -4.5033   -0.4206 C.3     3  LEU3       -0.0446
     29 CD1         0.6257   -5.7180   -1.1036 C.3     3  LEU3       -0.0626
     30 CD2        -1.5514   -4.7454   -0.5496 C.3     3  LEU3       -0.0626
     31 C          -1.4299   -1.7040   -0.9693 C.2     3  LEU3        0.2340
     32 O          -1.7237   -1.6085   -2.2063 O.2     3  LEU3       -0.2738
     33 N          -2.4095   -1.5696    0.0119 N.am    4  UNK4       -0.3025
     34 C          -3.8373   -1.2833   -0.1560 C.3     4  UNK4        0.0994
     35 C          -4.2085   -1.6190   -1.5893 C.3     4  UNK4       -0.0259
     36 C          -5.6672   -1.3863   -1.9044 C.3     4  UNK4       -0.0498
     37 C          -6.1194    0.0223   -1.7124 C.3     4  UNK4       -0.0401
     38 C          -5.3781    1.0204   -2.5921 C.3     4  UNK4       -0.0011
     39 N          -5.8435    2.3448   -2.3655 N.3     4  UNK4       -0.3028
     40 C          -7.1429    2.6886   -2.7668 C.3     4  UNK4       -0.0040
     41 C          -7.4948    4.1264   -2.4517 C.3     4  UNK4       -0.0524
     42 C          -4.9530    3.3311   -1.9464 C.3     4  UNK4       -0.0040
     43 C          -3.9261    3.7499   -2.9843 C.3     4  UNK4       -0.0524
     44 C          -4.5369   -2.0295    0.8733 C.2     4  UNK4        0.2340
     45 O          -3.8507   -2.8468    1.5881 O.2     4  UNK4       -0.2738
     46 N          -5.9039   -1.9891    1.2184 N.am    5  UNK5       -0.2991
     47 C          -6.4673   -2.8213    2.2926 C.3     5  UNK5        0.1437
     48 C          -7.2237   -1.9579    3.2533 C.3     5  UNK5        0.0730
     49 O          -7.7385   -2.7926    4.2470 O.3     5  UNK5       -0.3926
     50 C          -7.4210   -3.8132    1.6901 C.2     5  UNK5        0.3297
     51 O          -8.0512   -4.6210    2.3894 O.2     5  UNK5       -0.2487
     52 O          -7.6031   -3.8309    0.3064 O.3     5  UNK5       -0.4666
     53 C          -8.5080   -4.7758   -0.2769 C.3     5  UNK5        0.0817
     54 C           8.9478    1.4876    0.1621 C.ar    0  UNK0       -0.0494
     55 C           9.5069    1.1673   -1.0717 C.ar    0  UNK0       -0.0579
     56 H           9.3680    1.8373   -4.2812 H       0  UNK0        0.0233
     57 H           7.7726    0.9955   -4.2014 H       0  UNK0        0.0233
     58 H           9.0794    0.4345   -5.3482 H       0  UNK0        0.0233
     59 H          10.4928    0.1406   -3.1352 H       0  UNK0        0.0311
     60 H           9.2651   -1.1134   -3.4507 H       0  UNK0        0.0311
     61 H           6.9563   -0.6909   -2.3390 H       0  UNK0        0.0620
     62 H           6.0117   -0.0775   -0.1269 H       0  UNK0        0.0625
     63 H           5.1288    1.3850    1.0229 H       1  PHE1        0.1498
     64 HA          5.6616    1.5943    3.9603 H       1  PHE1        0.0598
     65 HB1         3.8697    3.5914    2.5454 H       1  PHE1        0.0336
     66 HB2         4.2227    3.3837    4.2664 H       1  PHE1        0.0336
     67 HD1         6.1679    4.0097    5.3286 H       1  PHE1        0.0620
     68 HE1         8.2320    5.2468    5.3499 H       1  PHE1        0.0618
     69 HZ          9.1979    6.0101    3.2466 H       1  PHE1        0.0618
     70 HE2         8.1025    5.5427    1.0790 H       1  PHE1        0.0618
     71 HD2         5.9437    4.2439    1.0745 H       1  PHE1        0.0620
     72 H           3.4329    0.5358    1.2824 H       2  ALA2        0.1495
     73 HA          1.7328   -1.0267    3.1282 H       2  ALA2        0.0592
     74 HB1         0.5988    1.5100    2.0091 H       2  ALA2        0.0252
     75 HB2        -0.2557    0.1470    2.8124 H       2  ALA2        0.0252
     76 HB3         0.9489    1.1024    3.7616 H       2  ALA2        0.0252
     77 H          -0.1869   -2.1185    1.4717 H       3  LEU3        0.1495
     78 HA          0.5601   -1.1985   -1.3468 H       3  LEU3        0.0594
     79 HB1         0.1440   -3.4350   -2.2192 H       3  LEU3        0.0290
     80 HB2         1.5708   -3.3710   -1.1601 H       3  LEU3        0.0290
     81 HG          0.1843   -4.5429    0.6535 H       3  LEU3        0.0296
     82 HD11        0.4668   -5.6420   -2.2040 H       3  LEU3        0.0232
     83 HD12        0.1612   -6.6448   -0.7583 H       3  LEU3        0.0232
     84 HD13        1.7070   -5.6711   -0.9543 H       3  LEU3        0.0232
     85 HD21       -2.0840   -4.0396   -1.1782 H       3  LEU3        0.0232
     86 HD22       -1.7181   -5.7548   -1.0425 H       3  LEU3        0.0232
     87 HD23       -2.0401   -4.8618    0.4578 H       3  LEU3        0.0232
     88 H          -2.0485   -1.6915    1.0207 H       4  UNK4        0.1495
     89 H          -3.9370   -0.1777   -0.0529 H       4  UNK4        0.0594
     90 H          -3.6151   -0.8827   -2.2087 H       4  UNK4        0.0288
     91 H          -3.8679   -2.6163   -1.8322 H       4  UNK4        0.0288
     92 H          -5.7290   -1.5800   -3.0317 H       4  UNK4        0.0266
     93 H          -6.3366   -2.1157   -1.4307 H       4  UNK4        0.0266
     94 H          -7.2041    0.0681   -1.8905 H       4  UNK4        0.0278
     95 H          -5.8760    0.3546   -0.6649 H       4  UNK4        0.0278
     96 H          -5.5307    0.7536   -3.6537 H       4  UNK4        0.0426
     97 H          -4.2806    1.0084   -2.3971 H       4  UNK4        0.0426
     98 H          -7.2855    2.5299   -3.8801 H       4  UNK4        0.0424
     99 H          -7.9156    2.0002   -2.3204 H       4  UNK4        0.0424
    100 H          -7.5202    4.2758   -1.3521 H       4  UNK4        0.0242
    101 H          -8.5783    4.2760   -2.7610 H       4  UNK4        0.0242
    102 H          -6.8816    4.8490   -2.9984 H       4  UNK4        0.0242
    103 H          -4.3622    3.0704   -1.0294 H       4  UNK4        0.0424
    104 H          -5.5204    4.2455   -1.6327 H       4  UNK4        0.0424
    105 H          -3.9641    4.8648   -3.1183 H       4  UNK4        0.0242
    106 H          -2.8850    3.5322   -2.6854 H       4  UNK4        0.0242
    107 H          -4.1092    3.2832   -3.9679 H       4  UNK4        0.0242
    108 H          -6.5302   -1.3444    0.7098 H       5  UNK5        0.1496
    109 H          -5.6198   -3.3478    2.7659 H       5  UNK5        0.0638
    110 H          -6.5623   -1.1712    3.7147 H       5  UNK5        0.0581
    111 H          -8.0508   -1.4511    2.7304 H       5  UNK5        0.0581
    112 H          -8.6787   -2.5386    4.3975 H       5  UNK5        0.2095
    113 H          -7.9016   -5.6217   -0.6844 H       5  UNK5        0.0661
    114 H          -9.0583   -4.2106   -1.0542 H       5  UNK5        0.0661
    115 H          -9.1731   -5.1386    0.5183 H       5  UNK5        0.0661
    116 H           9.5024    2.1046    0.8812 H       0  UNK0        0.0625
    117 H          10.4951    1.5367   -1.3189 H       0  UNK0        0.0620
@<TRIPOS>BOND
     1     1     2    1
     2     2     3    1
     3     3     4   ar
     4     4     5   ar
     5     5     6   ar
     6     6     7    1
     7     7     8    2
     8     7     9   am
     9     9    10    1
    10    10    11    1
    11    11    12    1
    12    12    13   ar
    13    13    14   ar
    14    14    15   ar
    15    15    16   ar
    16    16    17   ar
    17    10    18    1
    18    18    19    2
    19    18    20   am
    20    20    21    1
    21    21    22    1
    22    21    23    1
    23    23    24    2
    24    23    25   am
    25    25    26    1
    26    26    27    1
    27    27    28    1
    28    28    29    1
    29    28    30    1
    30    26    31    1
    31    31    32    2
    32    31    33   am
    33    33    34    1
    34    34    35    1
    35    35    36    1
    36    36    37    1
    37    37    38    1
    38    38    39    1
    39    39    40    1
    40    40    41    1
    41    39    42    1
    42    42    43    1
    43    34    44    1
    44    44    45    2
    45    44    46   am
    46    46    47    1
    47    47    48    1
    48    48    49    1
    49    47    50    1
    50    50    51    2
    51    50    52    1
    52    52    53    1
    53     6    54   ar
    54    54    55   ar
    55    55     3   ar
    56    17    12   ar
    57     1    56    1
    58     1    57    1
    59     1    58    1
    60     2    59    1
    61     2    60    1
    62     4    61    1
    63     5    62    1
    64     9    63    1
    65    10    64    1
    66    11    65    1
    67    11    66    1
    68    13    67    1
    69    14    68    1
    70    15    69    1
    71    16    70    1
    72    17    71    1
    73    20    72    1
    74    21    73    1
    75    22    74    1
    76    22    75    1
    77    22    76    1
    78    25    77    1
    79    26    78    1
    80    27    79    1
    81    27    80    1
    82    28    81    1
    83    29    82    1
    84    29    83    1
    85    29    84    1
    86    30    85    1
    87    30    86    1
    88    30    87    1
    89    33    88    1
    90    34    89    1
    91    35    90    1
    92    35    91    1
    93    36    92    1
    94    36    93    1
    95    37    94    1
    96    37    95    1
    97    38    96    1
    98    38    97    1
    99    40    98    1
   100    40    99    1
   101    41   100    1
   102    41   101    1
   103    41   102    1
   104    42   103    1
   105    42   104    1
   106    43   105    1
   107    43   106    1
   108    43   107    1
   109    46   108    1
   110    47   109    1
   111    48   110    1
   112    48   111    1
   113    49   112    1
   114    53   113    1
   115    53   114    1
   116    53   115    1
   117    54   116    1
   118    55   117    1
