@<TRIPOS>MOLECULE
*****
 46 47 0 0 0
SMALL
GASTEIGER

@<TRIPOS>ATOM
      1 C          -5.8864   -0.4489   -0.9165 C.3     1  UNL1       -0.0523
      2 C          -4.4216   -0.5139   -0.4615 C.3     1  UNL1       -0.0036
      3 N          -3.9119    0.8173   -0.5365 N.3     1  UNL1       -0.2982
      4 C          -4.5499    1.6175    0.4556 C.3     1  UNL1       -0.0007
      5 C          -3.4908    2.3128    1.2422 C.3     1  UNL1       -0.0387
      6 C          -2.2677    1.4115    1.0275 C.3     1  UNL1       -0.0347
      7 C          -2.4684    0.9183   -0.3630 C.3     1  UNL1        0.0260
      8 C          -1.7873   -0.3773   -0.6104 C.3     1  UNL1        0.0275
      9 N          -0.3812   -0.3259   -0.4752 N.am    1  UNL1       -0.3098
     10 C           0.7569   -0.1277    0.3221 C.2     1  UNL1        0.2477
     11 O           0.3479    0.1151    1.4963 O.2     1  UNL1       -0.2701
     12 C           2.1633   -0.1514    0.0588 C.ar    1  UNL1        0.0801
     13 C           2.8326   -0.3896   -1.1119 C.ar    1  UNL1        0.1323
     14 O           2.0715   -0.6544   -2.2343 O.3     1  UNL1       -0.4944
     15 C           2.5908   -0.9188   -3.5061 C.3     1  UNL1        0.0788
     16 C           4.1864   -0.3943   -1.2946 C.ar    1  UNL1       -0.0173
     17 C           4.9371   -0.1320   -0.1807 C.ar    1  UNL1       -0.0319
     18 C           4.3514    0.1189    1.0383 C.ar    1  UNL1        0.1060
     19 C           2.9837    0.1042    1.1338 C.ar    1  UNL1       -0.0197
     20 S           5.3698    0.4432    2.4052 S.O2    1  UNL1        0.0560
     21 N           5.7478   -1.0160    3.2263 N.3     1  UNL1       -0.2035
     22 O           4.6688    1.3669    3.3367 O.2     1  UNL1       -0.1533
     23 O           6.6746    1.0656    1.9611 O.2     1  UNL1       -0.1533
     24 H          -5.9682    0.1567   -1.8305 H       1  UNL1        0.0242
     25 H          -6.2821   -1.4704   -1.0815 H       1  UNL1        0.0242
     26 H          -6.5376    0.0254   -0.1505 H       1  UNL1        0.0242
     27 H          -4.3871   -0.8615    0.5906 H       1  UNL1        0.0424
     28 H          -3.9459   -1.2295   -1.1326 H       1  UNL1        0.0424
     29 H          -5.1340    0.9852    1.1763 H       1  UNL1        0.0427
     30 H          -5.2561    2.3820    0.0239 H       1  UNL1        0.0427
     31 H          -3.6787    2.3302    2.3345 H       1  UNL1        0.0278
     32 H          -3.2592    3.3173    0.8907 H       1  UNL1        0.0278
     33 H          -2.2661    0.5985    1.7643 H       1  UNL1        0.0281
     34 H          -1.3493    2.0426    1.0644 H       1  UNL1        0.0281
     35 H          -2.1058    1.6352   -1.1391 H       1  UNL1        0.0478
     36 H          -2.2373   -1.1984    0.0450 H       1  UNL1        0.0477
     37 H          -2.0500   -0.7464   -1.6467 H       1  UNL1        0.0477
     38 H           0.0489   -0.5338   -1.4380 H       1  UNL1        0.1491
     39 H           3.4310   -1.6295   -3.5363 H       1  UNL1        0.0660
     40 H           2.9684    0.0266   -3.9919 H       1  UNL1        0.0660
     41 H           1.7292   -1.2392   -4.1561 H       1  UNL1        0.0660
     42 H           4.6374   -0.5896   -2.2418 H       1  UNL1        0.0655
     43 H           6.0134   -0.1192   -0.2533 H       1  UNL1        0.0638
     44 H           2.6140    0.3154    2.1465 H       1  UNL1        0.0646
     45 H           6.0520   -1.7564    2.5754 H       1  UNL1        0.1442
     46 H           6.4455   -0.8591    3.9735 H       1  UNL1        0.1442
@<TRIPOS>BOND
     1     1     2    1
     2     2     3    1
     3     3     4    1
     4     4     5    1
     5     5     6    1
     6     6     7    1
     7     7     8    1
     8     8     9    1
     9     9    10   am
    10    10    11    2
    11    10    12    1
    12    12    13   ar
    13    13    14    1
    14    14    15    1
    15    13    16   ar
    16    16    17   ar
    17    17    18   ar
    18    18    19   ar
    19    18    20    1
    20    20    21    1
    21    20    22    2
    22    20    23    2
    23     7     3    1
    24    19    12   ar
    25     1    24    1
    26     1    25    1
    27     1    26    1
    28     2    27    1
    29     2    28    1
    30     4    29    1
    31     4    30    1
    32     5    31    1
    33     5    32    1
    34     6    33    1
    35     6    34    1
    36     7    35    1
    37     8    36    1
    38     8    37    1
    39     9    38    1
    40    15    39    1
    41    15    40    1
    42    15    41    1
    43    16    42    1
    44    17    43    1
    45    19    44    1
    46    21    45    1
    47    21    46    1
