
     RDKit          3D

 46 47  0  0  0  0  0  0  0  0999 V2000
   -5.8864   -0.4489   -0.9165 C   0  0  0  0  0  0  0  0  0  0  0  0
   -4.4216   -0.5139   -0.4615 C   0  0  0  0  0  0  0  0  0  0  0  0
   -3.9119    0.8173   -0.5365 N   0  0  0  0  0  0  0  0  0  0  0  0
   -4.5499    1.6175    0.4556 C   0  0  0  0  0  0  0  0  0  0  0  0
   -3.4908    2.3128    1.2422 C   0  0  0  0  0  0  0  0  0  0  0  0
   -2.2677    1.4115    1.0275 C   0  0  0  0  0  0  0  0  0  0  0  0
   -2.4684    0.9183   -0.3630 C   0  0  0  0  0  0  0  0  0  0  0  0
   -1.7873   -0.3773   -0.6104 C   0  0  0  0  0  0  0  0  0  0  0  0
   -0.3812   -0.3259   -0.4752 N   0  0  0  0  0  0  0  0  0  0  0  0
    0.7569   -0.1277    0.3221 C   0  0  0  0  0  0  0  0  0  0  0  0
    0.3479    0.1151    1.4963 O   0  0  0  0  0  0  0  0  0  0  0  0
    2.1633   -0.1514    0.0588 C   0  0  0  0  0  0  0  0  0  0  0  0
    2.8326   -0.3896   -1.1119 C   0  0  0  0  0  0  0  0  0  0  0  0
    2.0715   -0.6544   -2.2343 O   0  0  0  0  0  0  0  0  0  0  0  0
    2.5908   -0.9188   -3.5061 C   0  0  0  0  0  0  0  0  0  0  0  0
    4.1864   -0.3943   -1.2946 C   0  0  0  0  0  0  0  0  0  0  0  0
    4.9371   -0.1320   -0.1807 C   0  0  0  0  0  0  0  0  0  0  0  0
    4.3514    0.1189    1.0383 C   0  0  0  0  0  0  0  0  0  0  0  0
    2.9837    0.1042    1.1338 C   0  0  0  0  0  0  0  0  0  0  0  0
    5.3698    0.4432    2.4052 S   0  0  0  0  0  0  0  0  0  0  0  0
    5.7478   -1.0160    3.2263 N   0  0  0  0  0  0  0  0  0  0  0  0
    4.6688    1.3669    3.3367 O   0  0  0  0  0  0  0  0  0  0  0  0
    6.6746    1.0656    1.9611 O   0  0  0  0  0  0  0  0  0  0  0  0
   -5.9682    0.1567   -1.8305 H   0  0  0  0  0  0  0  0  0  0  0  0
   -6.2821   -1.4704   -1.0815 H   0  0  0  0  0  0  0  0  0  0  0  0
   -6.5376    0.0254   -0.1505 H   0  0  0  0  0  0  0  0  0  0  0  0
   -4.3871   -0.8615    0.5906 H   0  0  0  0  0  0  0  0  0  0  0  0
   -3.9459   -1.2295   -1.1326 H   0  0  0  0  0  0  0  0  0  0  0  0
   -5.1340    0.9852    1.1763 H   0  0  0  0  0  0  0  0  0  0  0  0
   -5.2561    2.3820    0.0239 H   0  0  0  0  0  0  0  0  0  0  0  0
   -3.6787    2.3302    2.3345 H   0  0  0  0  0  0  0  0  0  0  0  0
   -3.2592    3.3173    0.8907 H   0  0  0  0  0  0  0  0  0  0  0  0
   -2.2661    0.5985    1.7643 H   0  0  0  0  0  0  0  0  0  0  0  0
   -1.3493    2.0426    1.0644 H   0  0  0  0  0  0  0  0  0  0  0  0
   -2.1058    1.6352   -1.1391 H   0  0  0  0  0  0  0  0  0  0  0  0
   -2.2373   -1.1984    0.0450 H   0  0  0  0  0  0  0  0  0  0  0  0
   -2.0500   -0.7464   -1.6467 H   0  0  0  0  0  0  0  0  0  0  0  0
    0.0489   -0.5338   -1.4380 H   0  0  0  0  0  0  0  0  0  0  0  0
    3.4310   -1.6295   -3.5363 H   0  0  0  0  0  0  0  0  0  0  0  0
    2.9684    0.0266   -3.9919 H   0  0  0  0  0  0  0  0  0  0  0  0
    1.7292   -1.2392   -4.1561 H   0  0  0  0  0  0  0  0  0  0  0  0
    4.6374   -0.5896   -2.2418 H   0  0  0  0  0  0  0  0  0  0  0  0
    6.0134   -0.1192   -0.2533 H   0  0  0  0  0  0  0  0  0  0  0  0
    2.6140    0.3154    2.1465 H   0  0  0  0  0  0  0  0  0  0  0  0
    6.0520   -1.7564    2.5754 H   0  0  0  0  0  0  0  0  0  0  0  0
    6.4455   -0.8591    3.9735 H   0  0  0  0  0  0  0  0  0  0  0  0
  1  2  1  0
  2  3  1  0
  3  4  1  0
  4  5  1  0
  5  6  1  0
  6  7  1  0
  7  8  1  0
  8  9  1  0
  9 10  1  0
 10 11  2  0
 10 12  1  0
 12 13  2  0
 13 14  1  0
 14 15  1  0
 13 16  1  0
 16 17  2  0
 17 18  1  0
 18 19  2  0
 18 20  1  0
 20 21  1  0
 20 22  2  0
 20 23  2  0
  7  3  1  0
 19 12  1  0
  1 24  1  0
  1 25  1  0
  1 26  1  0
  2 27  1  0
  2 28  1  0
  4 29  1  0
  4 30  1  0
  5 31  1  0
  5 32  1  0
  6 33  1  0
  6 34  1  0
  7 35  1  0
  8 36  1  0
  8 37  1  0
  9 38  1  0
 15 39  1  0
 15 40  1  0
 15 41  1  0
 16 42  1  0
 17 43  1  0
 19 44  1  0
 21 45  1  0
 21 46  1  0
M  END
$$$$
