@<TRIPOS>MOLECULE
*****
 60 64 0 0 0
SMALL
GASTEIGER

@<TRIPOS>ATOM
      1 C           2.4561    2.5474    0.6912 C.3     1  UNL1       -0.0379
      2 C           2.4248    1.1163    0.2272 C.ar    1  UNL1       -0.0272
      3 C           1.2598    0.3888    0.2394 C.ar    1  UNL1       -0.0478
      4 C           1.1609   -0.9304   -0.1722 C.ar    1  UNL1        0.0009
      5 C          -0.1080   -1.6437   -0.1330 C.ar    1  UNL1        0.0769
      6 C          -0.2769   -2.9467   -0.5244 C.ar    1  UNL1       -0.0077
      7 C          -1.5172   -3.5932   -0.4696 C.ar    1  UNL1        0.0999
      8 N          -1.9647   -4.8127   -0.7737 N.ar    1  UNL1       -0.1712
      9 N          -3.2447   -4.9351   -0.5384 N.ar    1  UNL1       -0.2732
     10 C          -4.1154   -6.0961   -0.7321 C.3     1  UNL1        0.0302
     11 C          -3.6717   -3.7541   -0.0587 C.ar    1  UNL1        0.0380
     12 C          -2.5941   -2.8830   -0.0046 C.ar    1  UNL1        0.0812
     13 C          -2.4273   -1.5762    0.3884 C.ar    1  UNL1        0.2265
     14 O          -3.5411   -0.8899    0.8536 O.3     1  UNL1       -0.4725
     15 C          -3.4492    0.4691    1.2801 C.3     1  UNL1        0.1037
     16 C          -3.8501    0.6027    2.7308 C.3     1  UNL1       -0.0274
     17 C          -4.3250    1.2742    0.3658 C.3     1  UNL1        0.0196
     18 C          -4.3473    2.7370    0.6729 C.3     1  UNL1        0.0182
     19 N          -4.0568    3.4025   -0.5592 N.am    1  UNL1       -0.3149
     20 C          -4.0378    2.4747   -1.6373 C.2     1  UNL1        0.2135
     21 O          -4.2413    2.7066   -2.8472 O.2     1  UNL1       -0.2758
     22 C          -3.7234    1.1501   -1.0392 C.3     1  UNL1        0.0315
     23 N          -1.2192   -1.0017    0.3170 N.ar    1  UNL1       -0.2122
     24 C           2.3167   -1.5163   -0.6134 C.ar    1  UNL1       -0.0508
     25 C           3.5238   -0.8210   -0.6452 C.ar    1  UNL1       -0.0382
     26 C           3.5680    0.4926   -0.2237 C.ar    1  UNL1        0.0538
     27 N           4.7736    1.2338   -0.2414 N.pl3   1  UNL1       -0.2071
     28 C           5.3734    2.0621   -1.2693 C.3     1  UNL1        0.0361
     29 C           6.8596    1.6939   -1.2644 C.3     1  UNL1       -0.0143
     30 C           7.3231    1.9942    0.1679 C.3     1  UNL1        0.0865
     31 S           5.9193    1.3262    1.0779 S.O2    1  UNL1        0.0455
     32 O           5.4664    2.2511    2.1439 O.2     1  UNL1       -0.1550
     33 O           6.2059   -0.0496    1.5651 O.2     1  UNL1       -0.1550
     34 H           3.4257    2.9823    0.4588 H       1  UNL1        0.0278
     35 H           2.1479    2.6372    1.7430 H       1  UNL1        0.0278
     36 H           1.6896    3.0803    0.0592 H       1  UNL1        0.0278
     37 H           0.3608    0.8728    0.5918 H       1  UNL1        0.0627
     38 H           0.5662   -3.5123   -0.8916 H       1  UNL1        0.0661
     39 H          -4.9717   -5.8039   -1.3677 H       1  UNL1        0.0473
     40 H          -4.5481   -6.3648    0.2589 H       1  UNL1        0.0473
     41 H          -3.5916   -6.9317   -1.1937 H       1  UNL1        0.0473
     42 H          -4.6794   -3.4655    0.2530 H       1  UNL1        0.0834
     43 H          -2.4062    0.7856    1.1589 H       1  UNL1        0.0734
     44 H          -4.5643   -0.1924    3.0201 H       1  UNL1        0.0265
     45 H          -4.2817    1.6162    2.8625 H       1  UNL1        0.0265
     46 H          -2.9353    0.5625    3.3556 H       1  UNL1        0.0265
     47 H          -5.3518    0.8535    0.3685 H       1  UNL1        0.0356
     48 H          -5.3507    3.0222    1.0971 H       1  UNL1        0.0466
     49 H          -3.6148    2.9556    1.4762 H       1  UNL1        0.0466
     50 H          -3.8839    4.4444   -0.6292 H       1  UNL1        0.1487
     51 H          -4.1589    0.3140   -1.5885 H       1  UNL1        0.0363
     52 H          -2.6235    1.0399   -0.9934 H       1  UNL1        0.0363
     53 H           2.3099   -2.5423   -0.9486 H       1  UNL1        0.0625
     54 H           4.3999   -1.3074   -0.9936 H       1  UNL1        0.0637
     55 H           5.2864    3.1209   -1.0299 H       1  UNL1        0.0483
     56 H           4.9865    1.8553   -2.2685 H       1  UNL1        0.0483
     57 H           7.3460    2.3563   -1.9935 H       1  UNL1        0.0297
     58 H           6.9424    0.6203   -1.4907 H       1  UNL1        0.0297
     59 H           8.2362    1.4540    0.4106 H       1  UNL1        0.0519
     60 H           7.3442    3.0736    0.3103 H       1  UNL1        0.0519
@<TRIPOS>BOND
     1     1     2    1
     2     2     3   ar
     3     3     4   ar
     4     4     5    1
     5     5     6   ar
     6     6     7   ar
     7     7     8   ar
     8     8     9   ar
     9     9    10    1
    10     9    11   ar
    11    11    12   ar
    12    12    13   ar
    13    13    14    1
    14    14    15    1
    15    15    16    1
    16    15    17    1
    17    17    18    1
    18    18    19    1
    19    19    20   am
    20    20    21    2
    21    20    22    1
    22    13    23   ar
    23     4    24   ar
    24    24    25   ar
    25    25    26   ar
    26    26    27    1
    27    27    28    1
    28    28    29    1
    29    29    30    1
    30    30    31    1
    31    31    32    2
    32    31    33    2
    33    26     2   ar
    34    31    27    1
    35    23     5   ar
    36    12     7   ar
    37    22    17    1
    38     1    34    1
    39     1    35    1
    40     1    36    1
    41     3    37    1
    42     6    38    1
    43    10    39    1
    44    10    40    1
    45    10    41    1
    46    11    42    1
    47    15    43    1
    48    16    44    1
    49    16    45    1
    50    16    46    1
    51    17    47    1
    52    18    48    1
    53    18    49    1
    54    19    50    1
    55    22    51    1
    56    22    52    1
    57    24    53    1
    58    25    54    1
    59    28    55    1
    60    28    56    1
    61    29    57    1
    62    29    58    1
    63    30    59    1
    64    30    60    1
