
     RDKit          3D

 60 64  0  0  0  0  0  0  0  0999 V2000
    2.4561    2.5474    0.6912 C   0  0  0  0  0  0  0  0  0  0  0  0
    2.4248    1.1163    0.2272 C   0  0  0  0  0  0  0  0  0  0  0  0
    1.2598    0.3888    0.2394 C   0  0  0  0  0  0  0  0  0  0  0  0
    1.1609   -0.9304   -0.1722 C   0  0  0  0  0  0  0  0  0  0  0  0
   -0.1080   -1.6437   -0.1330 C   0  0  0  0  0  0  0  0  0  0  0  0
   -0.2769   -2.9467   -0.5244 C   0  0  0  0  0  0  0  0  0  0  0  0
   -1.5172   -3.5932   -0.4696 C   0  0  0  0  0  0  0  0  0  0  0  0
   -1.9647   -4.8127   -0.7737 N   0  0  0  0  0  0  0  0  0  0  0  0
   -3.2447   -4.9351   -0.5384 N   0  0  0  0  0  0  0  0  0  0  0  0
   -4.1154   -6.0961   -0.7321 C   0  0  0  0  0  0  0  0  0  0  0  0
   -3.6717   -3.7541   -0.0587 C   0  0  0  0  0  0  0  0  0  0  0  0
   -2.5941   -2.8830   -0.0046 C   0  0  0  0  0  0  0  0  0  0  0  0
   -2.4273   -1.5762    0.3884 C   0  0  0  0  0  0  0  0  0  0  0  0
   -3.5411   -0.8899    0.8536 O   0  0  0  0  0  0  0  0  0  0  0  0
   -3.4492    0.4691    1.2801 C   0  0  2  0  0  0  0  0  0  0  0  0
   -3.8501    0.6027    2.7308 C   0  0  0  0  0  0  0  0  0  0  0  0
   -4.3250    1.2742    0.3658 C   0  0  1  0  0  0  0  0  0  0  0  0
   -4.3473    2.7370    0.6729 C   0  0  0  0  0  0  0  0  0  0  0  0
   -4.0568    3.4025   -0.5592 N   0  0  0  0  0  0  0  0  0  0  0  0
   -4.0378    2.4747   -1.6373 C   0  0  0  0  0  0  0  0  0  0  0  0
   -4.2413    2.7066   -2.8472 O   0  0  0  0  0  0  0  0  0  0  0  0
   -3.7234    1.1501   -1.0392 C   0  0  0  0  0  0  0  0  0  0  0  0
   -1.2192   -1.0017    0.3170 N   0  0  0  0  0  0  0  0  0  0  0  0
    2.3167   -1.5163   -0.6134 C   0  0  0  0  0  0  0  0  0  0  0  0
    3.5238   -0.8210   -0.6452 C   0  0  0  0  0  0  0  0  0  0  0  0
    3.5680    0.4926   -0.2237 C   0  0  0  0  0  0  0  0  0  0  0  0
    4.7736    1.2338   -0.2414 N   0  0  0  0  0  0  0  0  0  0  0  0
    5.3734    2.0621   -1.2693 C   0  0  0  0  0  0  0  0  0  0  0  0
    6.8596    1.6939   -1.2644 C   0  0  0  0  0  0  0  0  0  0  0  0
    7.3231    1.9942    0.1679 C   0  0  0  0  0  0  0  0  0  0  0  0
    5.9193    1.3262    1.0779 S   0  0  0  0  0  6  0  0  0  0  0  0
    5.4664    2.2511    2.1439 O   0  0  0  0  0  0  0  0  0  0  0  0
    6.2059   -0.0496    1.5651 O   0  0  0  0  0  0  0  0  0  0  0  0
    3.4257    2.9823    0.4588 H   0  0  0  0  0  0  0  0  0  0  0  0
    2.1479    2.6372    1.7430 H   0  0  0  0  0  0  0  0  0  0  0  0
    1.6896    3.0803    0.0592 H   0  0  0  0  0  0  0  0  0  0  0  0
    0.3608    0.8728    0.5918 H   0  0  0  0  0  0  0  0  0  0  0  0
    0.5662   -3.5123   -0.8916 H   0  0  0  0  0  0  0  0  0  0  0  0
   -4.9717   -5.8039   -1.3677 H   0  0  0  0  0  0  0  0  0  0  0  0
   -4.5481   -6.3648    0.2589 H   0  0  0  0  0  0  0  0  0  0  0  0
   -3.5916   -6.9317   -1.1937 H   0  0  0  0  0  0  0  0  0  0  0  0
   -4.6794   -3.4655    0.2530 H   0  0  0  0  0  0  0  0  0  0  0  0
   -2.4062    0.7856    1.1589 H   0  0  0  0  0  0  0  0  0  0  0  0
   -4.5643   -0.1924    3.0201 H   0  0  0  0  0  0  0  0  0  0  0  0
   -4.2817    1.6162    2.8625 H   0  0  0  0  0  0  0  0  0  0  0  0
   -2.9353    0.5625    3.3556 H   0  0  0  0  0  0  0  0  0  0  0  0
   -5.3518    0.8535    0.3685 H   0  0  0  0  0  0  0  0  0  0  0  0
   -5.3507    3.0222    1.0971 H   0  0  0  0  0  0  0  0  0  0  0  0
   -3.6148    2.9556    1.4762 H   0  0  0  0  0  0  0  0  0  0  0  0
   -3.8839    4.4444   -0.6292 H   0  0  0  0  0  0  0  0  0  0  0  0
   -4.1589    0.3140   -1.5885 H   0  0  0  0  0  0  0  0  0  0  0  0
   -2.6235    1.0399   -0.9934 H   0  0  0  0  0  0  0  0  0  0  0  0
    2.3099   -2.5423   -0.9486 H   0  0  0  0  0  0  0  0  0  0  0  0
    4.3999   -1.3074   -0.9936 H   0  0  0  0  0  0  0  0  0  0  0  0
    5.2864    3.1209   -1.0299 H   0  0  0  0  0  0  0  0  0  0  0  0
    4.9865    1.8553   -2.2685 H   0  0  0  0  0  0  0  0  0  0  0  0
    7.3460    2.3563   -1.9935 H   0  0  0  0  0  0  0  0  0  0  0  0
    6.9424    0.6203   -1.4907 H   0  0  0  0  0  0  0  0  0  0  0  0
    8.2362    1.4540    0.4106 H   0  0  0  0  0  0  0  0  0  0  0  0
    7.3442    3.0736    0.3103 H   0  0  0  0  0  0  0  0  0  0  0  0
  1  2  1  0
  2  3  2  0
  3  4  1  0
  4  5  1  0
  5  6  2  0
  6  7  1  0
  7  8  2  0
  8  9  1  0
  9 10  1  0
  9 11  1  0
 11 12  2  0
 12 13  1  0
 13 14  1  0
 14 15  1  0
 15 16  1  0
 15 17  1  0
 17 18  1  0
 18 19  1  0
 19 20  1  0
 20 21  2  0
 20 22  1  0
 13 23  2  0
  4 24  2  0
 24 25  1  0
 25 26  2  0
 26 27  1  0
 27 28  1  0
 28 29  1  0
 29 30  1  0
 30 31  1  0
 31 32  2  0
 31 33  2  0
 26  2  1  0
 31 27  1  0
 23  5  1  0
 12  7  1  0
 22 17  1  0
  1 34  1  0
  1 35  1  0
  1 36  1  0
  3 37  1  0
  6 38  1  0
 10 39  1  0
 10 40  1  0
 10 41  1  0
 11 42  1  0
 15 43  1  1
 16 44  1  0
 16 45  1  0
 16 46  1  0
 17 47  1  6
 18 48  1  0
 18 49  1  0
 19 50  1  0
 22 51  1  0
 22 52  1  0
 24 53  1  0
 25 54  1  0
 28 55  1  0
 28 56  1  0
 29 57  1  0
 29 58  1  0
 30 59  1  0
 30 60  1  0
M  END
$$$$
