
     RDKit          3D

 62 66  0  0  0  0  0  0  0  0999 V2000
   -1.0131    4.5596    4.4219 C   0  0  0  0  0  0  0  0  0  0  0  0
   -0.1544    4.5951    3.1659 C   0  0  0  0  0  0  0  0  0  0  0  0
   -0.7342    3.6401    2.2655 O   0  0  0  0  0  0  0  0  0  0  0  0
   -0.2158    3.4008    1.0214 C   0  0  0  0  0  0  0  0  0  0  0  0
    0.7961    4.0390    0.6650 O   0  0  0  0  0  0  0  0  0  0  0  0
   -0.8072    2.4088    0.0698 C   0  0  0  0  0  0  0  0  0  0  0  0
   -2.1942    2.7467   -0.2439 C   0  0  0  0  0  0  0  0  0  0  0  0
   -2.5596    4.1933   -0.5285 C   0  0  0  0  0  0  0  0  0  0  0  0
   -3.1523    1.9050   -0.2996 N   0  0  0  0  0  0  0  0  0  0  0  0
   -2.8770    0.5290   -0.0382 C   0  0  0  0  0  0  0  0  0  0  0  0
   -3.9133   -0.3727   -0.1345 N   0  0  0  0  0  0  0  0  0  0  0  0
   -3.7301   -1.6876    0.0688 C   0  0  0  0  0  0  0  0  0  0  0  0
   -2.4749   -2.1230    0.3787 C   0  0  0  0  0  0  0  0  0  0  0  0
   -1.3963   -1.2813    0.4917 C   0  0  0  0  0  0  0  0  0  0  0  0
   -0.1061   -1.8009    0.8204 N   0  0  0  0  0  0  0  0  0  0  0  0
   -1.6303    0.0900    0.2714 C   0  0  0  0  0  0  0  0  0  0  0  0
   -0.5303    1.0301    0.4073 C   0  0  0  0  0  0  0  0  0  0  0  0
    0.7548    0.5065   -0.1097 C   0  0  0  0  0  0  0  0  0  0  0  0
    1.8177    0.2976    0.7092 C   0  0  0  0  0  0  0  0  0  0  0  0
    3.0106   -0.2027    0.1693 C   0  0  0  0  0  0  0  0  0  0  0  0
    3.1239   -0.4866   -1.1800 C   0  0  0  0  0  0  0  0  0  0  0  0
    4.3915   -1.0069   -1.6925 C   0  0  0  0  0  0  0  0  0  0  0  0
    4.7795   -0.7123   -2.9761 C   0  0  0  0  0  0  0  0  0  0  0  0
    5.9801   -1.2201   -3.4232 C   0  0  0  0  0  0  0  0  0  0  0  0
    6.7947   -1.9954   -2.6560 C   0  0  0  0  0  0  0  0  0  0  0  0
    6.3963   -2.2908   -1.3560 C   0  0  0  0  0  0  0  0  0  0  0  0
    5.1969   -1.7951   -0.8809 C   0  0  0  0  0  0  0  0  0  0  0  0
    2.0359   -0.2682   -1.9941 C   0  0  0  0  0  0  0  0  0  0  0  0
    0.8473    0.2330   -1.4410 C   0  0  0  0  0  0  0  0  0  0  0  0
   -2.2366   -3.5776    0.6102 C   0  0  0  0  0  0  0  0  0  0  0  0
   -3.1179   -4.3275   -0.3442 C   0  0  0  0  0  0  0  0  0  0  0  0
   -4.5690   -4.0141   -0.2237 C   0  0  0  0  0  0  0  0  0  0  0  0
   -4.9072   -2.5747   -0.0586 C   0  0  0  0  0  0  0  0  0  0  0  0
   -0.4465    4.1005    5.2623 H   0  0  0  0  0  0  0  0  0  0  0  0
   -1.2779    5.5888    4.7709 H   0  0  0  0  0  0  0  0  0  0  0  0
   -1.9862    4.0526    4.2417 H   0  0  0  0  0  0  0  0  0  0  0  0
    0.8770    4.3397    3.4282 H   0  0  0  0  0  0  0  0  0  0  0  0
   -0.2657    5.6193    2.7325 H   0  0  0  0  0  0  0  0  0  0  0  0
   -0.2501    2.6286   -0.9226 H   0  0  0  0  0  0  0  0  0  0  0  0
   -2.8972    4.6475    0.4053 H   0  0  0  0  0  0  0  0  0  0  0  0
   -3.3608    4.1759   -1.2760 H   0  0  0  0  0  0  0  0  0  0  0  0
   -1.6854    4.6961   -0.9929 H   0  0  0  0  0  0  0  0  0  0  0  0
    0.5493   -2.1994    0.1308 H   0  0  0  0  0  0  0  0  0  0  0  0
    0.1786   -1.7766    1.8197 H   0  0  0  0  0  0  0  0  0  0  0  0
   -0.3422    1.0402    1.5633 H   0  0  0  0  0  0  0  0  0  0  0  0
    1.8176    0.4915    1.7763 H   0  0  0  0  0  0  0  0  0  0  0  0
    3.8458   -0.3597    0.8522 H   0  0  0  0  0  0  0  0  0  0  0  0
    4.1435   -0.0966   -3.6002 H   0  0  0  0  0  0  0  0  0  0  0  0
    6.2690   -0.9762   -4.4407 H   0  0  0  0  0  0  0  0  0  0  0  0
    7.7305   -2.3826   -3.0269 H   0  0  0  0  0  0  0  0  0  0  0  0
    7.0639   -2.9052   -0.7802 H   0  0  0  0  0  0  0  0  0  0  0  0
    4.9125   -2.0355    0.1205 H   0  0  0  0  0  0  0  0  0  0  0  0
    2.1242   -0.4898   -3.0463 H   0  0  0  0  0  0  0  0  0  0  0  0
    0.0472    0.3713   -2.1611 H   0  0  0  0  0  0  0  0  0  0  0  0
   -1.1976   -3.8646    0.4166 H   0  0  0  0  0  0  0  0  0  0  0  0
   -2.5756   -3.7898    1.6467 H   0  0  0  0  0  0  0  0  0  0  0  0
   -2.9901   -5.4232   -0.1065 H   0  0  0  0  0  0  0  0  0  0  0  0
   -2.7288   -4.2024   -1.3912 H   0  0  0  0  0  0  0  0  0  0  0  0
   -5.0183   -4.6683    0.5616 H   0  0  0  0  0  0  0  0  0  0  0  0
   -5.0565   -4.3580   -1.1832 H   0  0  0  0  0  0  0  0  0  0  0  0
   -5.4861   -2.4721    0.8993 H   0  0  0  0  0  0  0  0  0  0  0  0
   -5.5997   -2.1890   -0.8545 H   0  0  0  0  0  0  0  0  0  0  0  0
  1  2  1  0
  2  3  1  0
  3  4  1  0
  4  5  2  0
  4  6  1  0
  6  7  1  0
  7  8  1  0
  7  9  2  0
  9 10  1  0
 10 11  2  0
 11 12  1  0
 12 13  2  0
 13 14  1  0
 14 15  1  0
 14 16  2  0
 16 17  1  0
 17 18  1  0
 18 19  2  0
 19 20  1  0
 20 21  2  0
 21 22  1  0
 22 23  2  0
 23 24  1  0
 24 25  2  0
 25 26  1  0
 26 27  2  0
 21 28  1  0
 28 29  2  0
 13 30  1  0
 30 31  1  0
 31 32  1  0
 32 33  1  0
 17  6  1  0
 29 18  1  0
 16 10  1  0
 27 22  1  0
 33 12  1  0
  1 34  1  0
  1 35  1  0
  1 36  1  0
  2 37  1  0
  2 38  1  0
  6 39  1  0
  8 40  1  0
  8 41  1  0
  8 42  1  0
 15 43  1  0
 15 44  1  0
 17 45  1  0
 19 46  1  0
 20 47  1  0
 23 48  1  0
 24 49  1  0
 25 50  1  0
 26 51  1  0
 27 52  1  0
 28 53  1  0
 29 54  1  0
 30 55  1  0
 30 56  1  0
 31 57  1  0
 31 58  1  0
 32 59  1  0
 32 60  1  0
 33 61  1  0
 33 62  1  0
M  END
$$$$
