@<TRIPOS>MOLECULE
*****
 62 66 0 0 0
SMALL
GASTEIGER

@<TRIPOS>ATOM
      1 C          -1.0131    4.5596    4.4219 C.3     1  UNL1       -0.0306
      2 C          -0.1544    4.5951    3.1659 C.3     1  UNL1        0.0897
      3 O          -0.7342    3.6401    2.2655 O.3     1  UNL1       -0.4644
      4 C          -0.2158    3.4008    1.0214 C.2     1  UNL1        0.3167
      5 O           0.7961    4.0390    0.6650 O.2     1  UNL1       -0.2501
      6 C          -0.8072    2.4088    0.0698 C.3     1  UNL1        0.1052
      7 C          -2.1942    2.7467   -0.2439 C.2     1  UNL1        0.0328
      8 C          -2.5596    4.1933   -0.5285 C.3     1  UNL1       -0.0254
      9 N          -3.1523    1.9050   -0.2996 N.2     1  UNL1       -0.2362
     10 C          -2.8770    0.5290   -0.0382 C.ar    1  UNL1        0.1583
     11 N          -3.9133   -0.3727   -0.1345 N.ar    1  UNL1       -0.2322
     12 C          -3.7301   -1.6876    0.0688 C.ar    1  UNL1        0.0486
     13 C          -2.4749   -2.1230    0.3787 C.ar    1  UNL1       -0.0050
     14 C          -1.3963   -1.2813    0.4917 C.ar    1  UNL1        0.0369
     15 N          -0.1061   -1.8009    0.8204 N.pl3   1  UNL1       -0.3574
     16 C          -1.6303    0.0900    0.2714 C.ar    1  UNL1        0.0261
     17 C          -0.5303    1.0301    0.4073 C.3     1  UNL1        0.0326
     18 C           0.7548    0.5065   -0.1097 C.ar    1  UNL1       -0.0386
     19 C           1.8177    0.2976    0.7092 C.ar    1  UNL1       -0.0574
     20 C           3.0106   -0.2027    0.1693 C.ar    1  UNL1       -0.0538
     21 C           3.1239   -0.4866   -1.1800 C.ar    1  UNL1       -0.0179
     22 C           4.3915   -1.0069   -1.6925 C.ar    1  UNL1       -0.0179
     23 C           4.7795   -0.7123   -2.9761 C.ar    1  UNL1       -0.0540
     24 C           5.9801   -1.2201   -3.4232 C.ar    1  UNL1       -0.0612
     25 C           6.7947   -1.9954   -2.6560 C.ar    1  UNL1       -0.0617
     26 C           6.3963   -2.2908   -1.3560 C.ar    1  UNL1       -0.0612
     27 C           5.1969   -1.7951   -0.8809 C.ar    1  UNL1       -0.0540
     28 C           2.0359   -0.2682   -1.9941 C.ar    1  UNL1       -0.0538
     29 C           0.8473    0.2330   -1.4410 C.ar    1  UNL1       -0.0574
     30 C          -2.2366   -3.5776    0.6102 C.3     1  UNL1       -0.0242
     31 C          -3.1179   -4.3275   -0.3442 C.3     1  UNL1       -0.0486
     32 C          -4.5690   -4.0141   -0.2237 C.3     1  UNL1       -0.0473
     33 C          -4.9072   -2.5747   -0.0586 C.3     1  UNL1       -0.0100
     34 H          -0.4465    4.1005    5.2623 H       1  UNL1        0.0262
     35 H          -1.2779    5.5888    4.7709 H       1  UNL1        0.0262
     36 H          -1.9862    4.0526    4.2417 H       1  UNL1        0.0262
     37 H           0.8770    4.3397    3.4282 H       1  UNL1        0.0694
     38 H          -0.2657    5.6193    2.7325 H       1  UNL1        0.0694
     39 H          -0.2501    2.6286   -0.9226 H       1  UNL1        0.0484
     40 H          -2.8972    4.6475    0.4053 H       1  UNL1        0.0290
     41 H          -3.3608    4.1759   -1.2760 H       1  UNL1        0.0290
     42 H          -1.6854    4.6961   -0.9929 H       1  UNL1        0.0290
     43 H           0.5493   -2.1994    0.1308 H       1  UNL1        0.1423
     44 H           0.1786   -1.7766    1.8197 H       1  UNL1        0.1423
     45 H          -0.3422    1.0402    1.5633 H       1  UNL1        0.0411
     46 H           1.8176    0.4915    1.7763 H       1  UNL1        0.0621
     47 H           3.8458   -0.3597    0.8522 H       1  UNL1        0.0624
     48 H           4.1435   -0.0966   -3.6002 H       1  UNL1        0.0624
     49 H           6.2690   -0.9762   -4.4407 H       1  UNL1        0.0618
     50 H           7.7305   -2.3826   -3.0269 H       1  UNL1        0.0618
     51 H           7.0639   -2.9052   -0.7802 H       1  UNL1        0.0618
     52 H           4.9125   -2.0355    0.1205 H       1  UNL1        0.0624
     53 H           2.1242   -0.4898   -3.0463 H       1  UNL1        0.0624
     54 H           0.0472    0.3713   -2.1611 H       1  UNL1        0.0621
     55 H          -1.1976   -3.8646    0.4166 H       1  UNL1        0.0314
     56 H          -2.5756   -3.7898    1.6467 H       1  UNL1        0.0314
     57 H          -2.9901   -5.4232   -0.1065 H       1  UNL1        0.0269
     58 H          -2.7288   -4.2024   -1.3912 H       1  UNL1        0.0269
     59 H          -5.0183   -4.6683    0.5616 H       1  UNL1        0.0269
     60 H          -5.0565   -4.3580   -1.1832 H       1  UNL1        0.0269
     61 H          -5.4861   -2.4721    0.8993 H       1  UNL1        0.0328
     62 H          -5.5997   -2.1890   -0.8545 H       1  UNL1        0.0328
@<TRIPOS>BOND
     1     1     2    1
     2     2     3    1
     3     3     4    1
     4     4     5    2
     5     4     6    1
     6     6     7    1
     7     7     8    1
     8     7     9    2
     9     9    10    1
    10    10    11   ar
    11    11    12   ar
    12    12    13   ar
    13    13    14   ar
    14    14    15    1
    15    14    16   ar
    16    16    17    1
    17    17    18    1
    18    18    19   ar
    19    19    20   ar
    20    20    21   ar
    21    21    22    1
    22    22    23   ar
    23    23    24   ar
    24    24    25   ar
    25    25    26   ar
    26    26    27   ar
    27    21    28   ar
    28    28    29   ar
    29    13    30    1
    30    30    31    1
    31    31    32    1
    32    32    33    1
    33    17     6    1
    34    29    18   ar
    35    16    10   ar
    36    27    22   ar
    37    33    12    1
    38     1    34    1
    39     1    35    1
    40     1    36    1
    41     2    37    1
    42     2    38    1
    43     6    39    1
    44     8    40    1
    45     8    41    1
    46     8    42    1
    47    15    43    1
    48    15    44    1
    49    17    45    1
    50    19    46    1
    51    20    47    1
    52    23    48    1
    53    24    49    1
    54    25    50    1
    55    26    51    1
    56    27    52    1
    57    28    53    1
    58    29    54    1
    59    30    55    1
    60    30    56    1
    61    31    57    1
    62    31    58    1
    63    32    59    1
    64    32    60    1
    65    33    61    1
    66    33    62    1
