@<TRIPOS>MOLECULE
*****
 64 68 0 0 0
SMALL
GASTEIGER

@<TRIPOS>ATOM
      1 C           9.6279    0.9984    0.5749 C.3     1  UNL1       -0.0397
      2 C           8.1461    0.9435    0.4264 C.ar    1  UNL1       -0.0496
      3 C           7.3876    2.0867    0.2775 C.ar    1  UNL1       -0.0570
      4 C           6.0145    2.0226    0.1406 C.ar    1  UNL1       -0.0393
      5 C           5.3505    0.8188    0.1472 C.ar    1  UNL1        0.0471
      6 C           6.1420   -0.3210    0.2993 C.ar    1  UNL1        0.0588
      7 C           7.5102   -0.2607    0.4361 C.ar    1  UNL1       -0.0449
      8 C           5.6594   -1.6785    0.3343 C.2     1  UNL1        0.2525
      9 O           6.4767   -2.5286    0.8136 O.2     1  UNL1       -0.2696
     10 N           4.4022   -2.2374   -0.0836 N.am    1  UNL1       -0.2663
     11 C           4.3236   -3.6746   -0.2621 C.3     1  UNL1        0.0087
     12 C           3.2427   -1.4543   -0.3252 C.ar    1  UNL1        0.0952
     13 C           2.1567   -2.2367   -0.6417 C.ar    1  UNL1        0.0560
     14 N           0.9436   -1.7318   -0.9060 N.ar    1  UNL1       -0.2207
     15 C           0.7430   -0.4058   -0.8691 C.ar    1  UNL1        0.2213
     16 N          -0.5391    0.1452   -1.1447 N.pl3   1  UNL1       -0.2835
     17 C          -1.5147    0.2258   -0.1177 C.ar    1  UNL1        0.0354
     18 C          -1.2378   -0.3608    1.1082 C.ar    1  UNL1       -0.0404
     19 C          -2.1333   -0.3072    2.1248 C.ar    1  UNL1       -0.0582
     20 C          -3.3544    0.3497    1.9347 C.ar    1  UNL1       -0.0352
     21 C          -3.6601    0.9421    0.7317 C.ar    1  UNL1        0.1072
     22 S          -5.1603    1.7485    0.5179 S.O2    1  UNL1        0.0609
     23 O          -5.6588    2.3363    1.8318 O.2     1  UNL1       -0.1528
     24 O          -5.0178    2.9423   -0.4054 O.2     1  UNL1       -0.1528
     25 N          -6.4205    0.7571   -0.0724 N.3     1  UNL1       -0.1764
     26 C          -6.1619    0.1936   -1.3808 C.3     1  UNL1        0.0228
     27 C          -7.5462   -0.0353   -2.0037 C.3     1  UNL1       -0.0124
     28 C          -8.5048   -0.3908   -0.8636 C.3     1  UNL1        0.0577
     29 O          -8.8475    0.7698   -0.1513 O.3     1  UNL1       -0.3917
     30 C          -7.6953   -1.2512    0.1086 C.3     1  UNL1       -0.0124
     31 C          -6.8291   -0.2557    0.8809 C.3     1  UNL1        0.0228
     32 C          -2.7264    0.8661   -0.2749 C.ar    1  UNL1       -0.0141
     33 N           1.8017    0.3767   -0.5600 N.ar    1  UNL1       -0.1970
     34 C           3.0294   -0.0944   -0.2903 C.ar    1  UNL1        0.1520
     35 N           3.9450    0.9544   -0.0070 N.pl3   1  UNL1       -0.2860
     36 C           3.4110    2.3094    0.1398 C.3     1  UNL1        0.0072
     37 H           9.8948    0.6146    1.5633 H       1  UNL1        0.0278
     38 H           9.9596    2.0668    0.4879 H       1  UNL1        0.0278
     39 H          10.1392    0.4541   -0.2374 H       1  UNL1        0.0278
     40 H           7.8930    3.0639    0.2688 H       1  UNL1        0.0621
     41 H           5.4470    2.9189    0.0253 H       1  UNL1        0.0636
     42 H           8.0736   -1.1732    0.5512 H       1  UNL1        0.0628
     43 H           4.1041   -3.9853   -1.2900 H       1  UNL1        0.0433
     44 H           5.3604   -4.0710   -0.0488 H       1  UNL1        0.0433
     45 H           3.6929   -4.1704    0.5119 H       1  UNL1        0.0433
     46 H           2.2894   -3.3120   -0.6778 H       1  UNL1        0.0851
     47 H          -0.7313    0.4792   -2.1072 H       1  UNL1        0.1550
     48 H          -0.2955   -0.8782    1.2805 H       1  UNL1        0.0636
     49 H          -1.9218   -0.7625    3.0759 H       1  UNL1        0.0619
     50 H          -4.0214    0.3561    2.7784 H       1  UNL1        0.0637
     51 H          -5.6524    0.9511   -1.9898 H       1  UNL1        0.0445
     52 H          -5.6605   -0.7740   -1.3655 H       1  UNL1        0.0445
     53 H          -7.9115    0.8666   -2.5269 H       1  UNL1        0.0303
     54 H          -7.5593   -0.8965   -2.6892 H       1  UNL1        0.0303
     55 H          -9.4137   -0.8902   -1.2142 H       1  UNL1        0.0594
     56 H          -8.6287    1.5936   -0.6350 H       1  UNL1        0.2098
     57 H          -7.1074   -1.9801   -0.4533 H       1  UNL1        0.0303
     58 H          -8.4221   -1.7294    0.7920 H       1  UNL1        0.0303
     59 H          -5.9684   -0.7523    1.3551 H       1  UNL1        0.0445
     60 H          -7.5106    0.2343    1.6068 H       1  UNL1        0.0445
     61 H          -2.9253    1.3201   -1.2414 H       1  UNL1        0.0656
     62 H           2.2897    2.1820    0.1981 H       1  UNL1        0.0432
     63 H           3.7076    2.7904    1.0793 H       1  UNL1        0.0432
     64 H           3.5730    2.9213   -0.7670 H       1  UNL1        0.0432
@<TRIPOS>BOND
     1     1     2    1
     2     2     3   ar
     3     3     4   ar
     4     4     5   ar
     5     5     6   ar
     6     6     7   ar
     7     6     8    1
     8     8     9    2
     9     8    10   am
    10    10    11    1
    11    10    12    1
    12    12    13   ar
    13    13    14   ar
    14    14    15   ar
    15    15    16    1
    16    16    17    1
    17    17    18   ar
    18    18    19   ar
    19    19    20   ar
    20    20    21   ar
    21    21    22    1
    22    22    23    2
    23    22    24    2
    24    22    25    1
    25    25    26    1
    26    26    27    1
    27    27    28    1
    28    28    29    1
    29    28    30    1
    30    30    31    1
    31    21    32   ar
    32    15    33   ar
    33    33    34   ar
    34    34    35    1
    35    35    36    1
    36     7     2   ar
    37    34    12   ar
    38    35     5    1
    39    32    17   ar
    40    31    25    1
    41     1    37    1
    42     1    38    1
    43     1    39    1
    44     3    40    1
    45     4    41    1
    46     7    42    1
    47    11    43    1
    48    11    44    1
    49    11    45    1
    50    13    46    1
    51    16    47    1
    52    18    48    1
    53    19    49    1
    54    20    50    1
    55    26    51    1
    56    26    52    1
    57    27    53    1
    58    27    54    1
    59    28    55    1
    60    29    56    1
    61    30    57    1
    62    30    58    1
    63    31    59    1
    64    31    60    1
    65    32    61    1
    66    36    62    1
    67    36    63    1
    68    36    64    1
