
     RDKit          3D

 64 68  0  0  0  0  0  0  0  0999 V2000
    9.6279    0.9984    0.5749 C   0  0  0  0  0  0  0  0  0  0  0  0
    8.1461    0.9435    0.4264 C   0  0  0  0  0  0  0  0  0  0  0  0
    7.3876    2.0867    0.2775 C   0  0  0  0  0  0  0  0  0  0  0  0
    6.0145    2.0226    0.1406 C   0  0  0  0  0  0  0  0  0  0  0  0
    5.3505    0.8188    0.1472 C   0  0  0  0  0  0  0  0  0  0  0  0
    6.1420   -0.3210    0.2993 C   0  0  0  0  0  0  0  0  0  0  0  0
    7.5102   -0.2607    0.4361 C   0  0  0  0  0  0  0  0  0  0  0  0
    5.6594   -1.6785    0.3343 C   0  0  0  0  0  0  0  0  0  0  0  0
    6.4767   -2.5286    0.8136 O   0  0  0  0  0  0  0  0  0  0  0  0
    4.4022   -2.2374   -0.0836 N   0  0  0  0  0  0  0  0  0  0  0  0
    4.3236   -3.6746   -0.2621 C   0  0  0  0  0  0  0  0  0  0  0  0
    3.2427   -1.4543   -0.3252 C   0  0  0  0  0  0  0  0  0  0  0  0
    2.1567   -2.2367   -0.6417 C   0  0  0  0  0  0  0  0  0  0  0  0
    0.9436   -1.7318   -0.9060 N   0  0  0  0  0  0  0  0  0  0  0  0
    0.7430   -0.4058   -0.8691 C   0  0  0  0  0  0  0  0  0  0  0  0
   -0.5391    0.1452   -1.1447 N   0  0  0  0  0  0  0  0  0  0  0  0
   -1.5147    0.2258   -0.1177 C   0  0  0  0  0  0  0  0  0  0  0  0
   -1.2378   -0.3608    1.1082 C   0  0  0  0  0  0  0  0  0  0  0  0
   -2.1333   -0.3072    2.1248 C   0  0  0  0  0  0  0  0  0  0  0  0
   -3.3544    0.3497    1.9347 C   0  0  0  0  0  0  0  0  0  0  0  0
   -3.6601    0.9421    0.7317 C   0  0  0  0  0  0  0  0  0  0  0  0
   -5.1603    1.7485    0.5179 S   0  0  0  0  0  6  0  0  0  0  0  0
   -5.6588    2.3363    1.8318 O   0  0  0  0  0  0  0  0  0  0  0  0
   -5.0178    2.9423   -0.4054 O   0  0  0  0  0  0  0  0  0  0  0  0
   -6.4205    0.7571   -0.0724 N   0  0  0  0  0  0  0  0  0  0  0  0
   -6.1619    0.1936   -1.3808 C   0  0  0  0  0  0  0  0  0  0  0  0
   -7.5462   -0.0353   -2.0037 C   0  0  0  0  0  0  0  0  0  0  0  0
   -8.5048   -0.3908   -0.8636 C   0  0  0  0  0  0  0  0  0  0  0  0
   -8.8475    0.7698   -0.1513 O   0  0  0  0  0  0  0  0  0  0  0  0
   -7.6953   -1.2512    0.1086 C   0  0  0  0  0  0  0  0  0  0  0  0
   -6.8291   -0.2557    0.8809 C   0  0  0  0  0  0  0  0  0  0  0  0
   -2.7264    0.8661   -0.2749 C   0  0  0  0  0  0  0  0  0  0  0  0
    1.8017    0.3767   -0.5600 N   0  0  0  0  0  0  0  0  0  0  0  0
    3.0294   -0.0944   -0.2903 C   0  0  0  0  0  0  0  0  0  0  0  0
    3.9450    0.9544   -0.0070 N   0  0  0  0  0  0  0  0  0  0  0  0
    3.4110    2.3094    0.1398 C   0  0  0  0  0  0  0  0  0  0  0  0
    9.8948    0.6146    1.5633 H   0  0  0  0  0  0  0  0  0  0  0  0
    9.9596    2.0668    0.4879 H   0  0  0  0  0  0  0  0  0  0  0  0
   10.1392    0.4541   -0.2374 H   0  0  0  0  0  0  0  0  0  0  0  0
    7.8930    3.0639    0.2688 H   0  0  0  0  0  0  0  0  0  0  0  0
    5.4470    2.9189    0.0253 H   0  0  0  0  0  0  0  0  0  0  0  0
    8.0736   -1.1732    0.5512 H   0  0  0  0  0  0  0  0  0  0  0  0
    4.1041   -3.9853   -1.2900 H   0  0  0  0  0  0  0  0  0  0  0  0
    5.3604   -4.0710   -0.0488 H   0  0  0  0  0  0  0  0  0  0  0  0
    3.6929   -4.1704    0.5119 H   0  0  0  0  0  0  0  0  0  0  0  0
    2.2894   -3.3120   -0.6778 H   0  0  0  0  0  0  0  0  0  0  0  0
   -0.7313    0.4792   -2.1072 H   0  0  0  0  0  0  0  0  0  0  0  0
   -0.2955   -0.8782    1.2805 H   0  0  0  0  0  0  0  0  0  0  0  0
   -1.9218   -0.7625    3.0759 H   0  0  0  0  0  0  0  0  0  0  0  0
   -4.0214    0.3561    2.7784 H   0  0  0  0  0  0  0  0  0  0  0  0
   -5.6524    0.9511   -1.9898 H   0  0  0  0  0  0  0  0  0  0  0  0
   -5.6605   -0.7740   -1.3655 H   0  0  0  0  0  0  0  0  0  0  0  0
   -7.9115    0.8666   -2.5269 H   0  0  0  0  0  0  0  0  0  0  0  0
   -7.5593   -0.8965   -2.6892 H   0  0  0  0  0  0  0  0  0  0  0  0
   -9.4137   -0.8902   -1.2142 H   0  0  0  0  0  0  0  0  0  0  0  0
   -8.6287    1.5936   -0.6350 H   0  0  0  0  0  0  0  0  0  0  0  0
   -7.1074   -1.9801   -0.4533 H   0  0  0  0  0  0  0  0  0  0  0  0
   -8.4221   -1.7294    0.7920 H   0  0  0  0  0  0  0  0  0  0  0  0
   -5.9684   -0.7523    1.3551 H   0  0  0  0  0  0  0  0  0  0  0  0
   -7.5106    0.2343    1.6068 H   0  0  0  0  0  0  0  0  0  0  0  0
   -2.9253    1.3201   -1.2414 H   0  0  0  0  0  0  0  0  0  0  0  0
    2.2897    2.1820    0.1981 H   0  0  0  0  0  0  0  0  0  0  0  0
    3.7076    2.7904    1.0793 H   0  0  0  0  0  0  0  0  0  0  0  0
    3.5730    2.9213   -0.7670 H   0  0  0  0  0  0  0  0  0  0  0  0
  1  2  1  0
  2  3  2  0
  3  4  1  0
  4  5  2  0
  5  6  1  0
  6  7  2  0
  6  8  1  0
  8  9  2  0
  8 10  1  0
 10 11  1  0
 10 12  1  0
 12 13  2  0
 13 14  1  0
 14 15  2  0
 15 16  1  0
 16 17  1  0
 17 18  2  0
 18 19  1  0
 19 20  2  0
 20 21  1  0
 21 22  1  0
 22 23  2  0
 22 24  2  0
 22 25  1  0
 25 26  1  0
 26 27  1  0
 27 28  1  0
 28 29  1  0
 28 30  1  0
 30 31  1  0
 21 32  2  0
 15 33  1  0
 33 34  2  0
 34 35  1  0
 35 36  1  0
  7  2  1  0
 34 12  1  0
 35  5  1  0
 32 17  1  0
 31 25  1  0
  1 37  1  0
  1 38  1  0
  1 39  1  0
  3 40  1  0
  4 41  1  0
  7 42  1  0
 11 43  1  0
 11 44  1  0
 11 45  1  0
 13 46  1  0
 16 47  1  0
 18 48  1  0
 19 49  1  0
 20 50  1  0
 26 51  1  0
 26 52  1  0
 27 53  1  0
 27 54  1  0
 28 55  1  0
 29 56  1  0
 30 57  1  0
 30 58  1  0
 31 59  1  0
 31 60  1  0
 32 61  1  0
 36 62  1  0
 36 63  1  0
 36 64  1  0
M  END
$$$$
