
     RDKit          3D

 53 58  0  0  0  0  0  0  0  0999 V2000
    3.9578    3.1334    0.3191 C   0  0  0  0  0  0  0  0  0  0  0  0
    4.4805    1.8489    0.6334 O   0  0  0  0  0  0  0  0  0  0  0  0
    3.7220    0.6973    0.5002 C   0  0  0  0  0  0  0  0  0  0  0  0
    2.3970    0.7400    0.0476 C   0  0  0  0  0  0  0  0  0  0  0  0
    1.6734   -0.4246   -0.0723 C   0  0  0  0  0  0  0  0  0  0  0  0
    0.3251   -0.3579   -0.5321 N   0  0  0  0  0  0  0  0  0  0  0  0
   -0.5769   -1.4330   -0.7458 C   0  0  0  0  0  0  0  0  0  0  0  0
   -0.3259   -2.6706   -0.5440 O   0  0  0  0  0  0  0  0  0  0  0  0
   -1.8710   -0.9543   -1.2397 C   0  0  0  0  0  0  0  0  0  0  0  0
   -3.1278   -1.3459   -1.6483 C   0  0  0  0  0  0  0  0  0  0  0  0
   -3.5891   -2.7388   -1.6828 C   0  0  0  0  0  0  0  0  0  0  0  0
   -4.2424   -3.2090   -0.4009 C   0  0  0  0  0  0  0  0  0  0  0  0
   -5.0214   -3.1041   -1.6558 C   0  0  0  0  0  0  0  0  0  0  0  0
   -3.7565   -0.2005   -1.9768 N   0  0  0  0  0  0  0  0  0  0  0  0
   -2.9476    0.8276   -1.7853 N   0  0  0  0  0  0  0  0  0  0  0  0
   -3.3059    2.2103   -2.0401 C   0  0  0  0  0  0  0  0  0  0  0  0
   -1.7479    0.4112   -1.3219 C   0  0  0  0  0  0  0  0  0  0  0  0
   -0.4042    0.8530   -0.8787 C   0  0  1  0  0  0  0  0  0  0  0  0
   -0.6422    1.7271    0.3111 C   0  0  0  0  0  0  0  0  0  0  0  0
   -1.0474    1.2228    1.5264 C   0  0  0  0  0  0  0  0  0  0  0  0
   -1.2674    2.0526    2.6118 C   0  0  0  0  0  0  0  0  0  0  0  0
   -1.0812    3.4153    2.4894 C   0  0  0  0  0  0  0  0  0  0  0  0
   -1.3660    4.4627    3.8841 Cl  0  0  0  0  0  0  0  0  0  0  0  0
   -0.6762    3.9358    1.2806 C   0  0  0  0  0  0  0  0  0  0  0  0
   -0.4639    3.0905    0.2162 C   0  0  0  0  0  0  0  0  0  0  0  0
    2.2856   -1.5965    0.2601 C   0  0  0  0  0  0  0  0  0  0  0  0
    3.5793   -1.6176    0.6998 N   0  0  0  0  0  0  0  0  0  0  0  0
    4.3726   -2.6354    1.0769 C   0  0  0  0  0  0  0  0  0  0  0  0
    4.0514   -4.0918    1.1242 C   0  0  0  0  0  0  0  0  0  0  0  0
    5.5554   -2.1163    1.4212 N   0  0  0  0  0  0  0  0  0  0  0  0
    5.5043   -0.8117    1.2643 N   0  0  0  0  0  0  0  0  0  0  0  0
    4.2933   -0.5016    0.8217 C   0  0  0  0  0  0  0  0  0  0  0  0
    3.4458    3.1085   -0.6776 H   0  0  0  0  0  0  0  0  0  0  0  0
    3.2082    3.4007    1.0718 H   0  0  0  0  0  0  0  0  0  0  0  0
    4.7921    3.8623    0.2731 H   0  0  0  0  0  0  0  0  0  0  0  0
    2.0348    1.7213   -0.1820 H   0  0  0  0  0  0  0  0  0  0  0  0
   -2.8920   -3.4366   -2.2046 H   0  0  0  0  0  0  0  0  0  0  0  0
   -3.8709   -4.1707   -0.0257 H   0  0  0  0  0  0  0  0  0  0  0  0
   -4.4447   -2.4657    0.4033 H   0  0  0  0  0  0  0  0  0  0  0  0
   -5.2972   -4.0731   -2.1341 H   0  0  0  0  0  0  0  0  0  0  0  0
   -5.7745   -2.3187   -1.7715 H   0  0  0  0  0  0  0  0  0  0  0  0
   -2.4477    2.7240   -2.5241 H   0  0  0  0  0  0  0  0  0  0  0  0
   -3.5785    2.7355   -1.1042 H   0  0  0  0  0  0  0  0  0  0  0  0
   -4.1890    2.2595   -2.7100 H   0  0  0  0  0  0  0  0  0  0  0  0
    0.0827    1.4321   -1.6630 H   0  0  0  0  0  0  0  0  0  0  0  0
   -1.1907    0.1557    1.6138 H   0  0  0  0  0  0  0  0  0  0  0  0
   -1.5859    1.6798    3.5764 H   0  0  0  0  0  0  0  0  0  0  0  0
   -0.5248    4.9863    1.1589 H   0  0  0  0  0  0  0  0  0  0  0  0
   -0.1494    3.4821   -0.7272 H   0  0  0  0  0  0  0  0  0  0  0  0
    1.8065   -2.5605    0.2017 H   0  0  0  0  0  0  0  0  0  0  0  0
    2.9639   -4.2098    0.8993 H   0  0  0  0  0  0  0  0  0  0  0  0
    4.2104   -4.4785    2.1535 H   0  0  0  0  0  0  0  0  0  0  0  0
    4.6641   -4.6533    0.4086 H   0  0  0  0  0  0  0  0  0  0  0  0
  1  2  1  0
  2  3  1  0
  3  4  2  0
  4  5  1  0
  5  6  1  0
  6  7  1  0
  7  8  2  0
  7  9  1  0
  9 10  1  0
 10 11  1  0
 11 12  1  0
 12 13  1  0
 10 14  2  0
 14 15  1  0
 15 16  1  0
 15 17  1  0
 17 18  1  0
 18 19  1  0
 19 20  2  0
 20 21  1  0
 21 22  2  0
 22 23  1  0
 22 24  1  0
 24 25  2  0
  5 26  2  0
 26 27  1  0
 27 28  1  0
 28 29  1  0
 28 30  2  0
 30 31  1  0
 31 32  2  0
 32  3  1  0
 18  6  1  0
 25 19  1  0
 32 27  1  0
 17  9  2  0
 13 11  1  0
  1 33  1  0
  1 34  1  0
  1 35  1  0
  4 36  1  0
 11 37  1  0
 12 38  1  0
 12 39  1  0
 13 40  1  0
 13 41  1  0
 16 42  1  0
 16 43  1  0
 16 44  1  0
 18 45  1  6
 20 46  1  0
 21 47  1  0
 24 48  1  0
 25 49  1  0
 26 50  1  0
 29 51  1  0
 29 52  1  0
 29 53  1  0
M  END
$$$$
