@<TRIPOS>MOLECULE
*****
 53 58 0 0 0
SMALL
GASTEIGER

@<TRIPOS>ATOM
      1 C           3.9578    3.1334    0.3191 C.3     1  UNL1        0.0790
      2 O           4.4805    1.8489    0.6334 O.3     1  UNL1       -0.4913
      3 C           3.7220    0.6973    0.5002 C.ar    1  UNL1        0.1663
      4 C           2.3970    0.7400    0.0476 C.ar    1  UNL1        0.0067
      5 C           1.6734   -0.4246   -0.0723 C.ar    1  UNL1        0.0577
      6 N           0.3251   -0.3579   -0.5321 N.am    1  UNL1       -0.2528
      7 C          -0.5769   -1.4330   -0.7458 C.2     1  UNL1        0.2553
      8 O          -0.3259   -2.6706   -0.5440 O.2     1  UNL1       -0.2695
      9 C          -1.8710   -0.9543   -1.2397 C.ar    1  UNL1        0.0834
     10 C          -3.1278   -1.3459   -1.6483 C.ar    1  UNL1        0.0785
     11 C          -3.5891   -2.7388   -1.6828 C.3     1  UNL1        0.0039
     12 C          -4.2424   -3.2090   -0.4009 C.3     1  UNL1       -0.0441
     13 C          -5.0214   -3.1041   -1.6558 C.3     1  UNL1       -0.0441
     14 N          -3.7565   -0.2005   -1.9768 N.ar    1  UNL1       -0.1751
     15 N          -2.9476    0.8276   -1.7853 N.ar    1  UNL1       -0.2682
     16 C          -3.3059    2.2103   -2.0401 C.3     1  UNL1        0.0306
     17 C          -1.7479    0.4112   -1.3219 C.ar    1  UNL1        0.0765
     18 C          -0.4042    0.8530   -0.8787 C.3     1  UNL1        0.0988
     19 C          -0.6422    1.7271    0.3111 C.ar    1  UNL1       -0.0207
     20 C          -1.0474    1.2228    1.5264 C.ar    1  UNL1       -0.0550
     21 C          -1.2674    2.0526    2.6118 C.ar    1  UNL1       -0.0431
     22 C          -1.0812    3.4153    2.4894 C.ar    1  UNL1        0.0410
     23 CL         -1.3660    4.4627    3.8841 Cl      1  UNL1       -0.0835
     24 C          -0.6762    3.9358    1.2806 C.ar    1  UNL1       -0.0431
     25 C          -0.4639    3.0905    0.2162 C.ar    1  UNL1       -0.0550
     26 C           2.2856   -1.5965    0.2601 C.ar    1  UNL1        0.0346
     27 N           3.5793   -1.6176    0.6998 N.ar    1  UNL1       -0.2819
     28 C           4.3726   -2.6354    1.0769 C.ar    1  UNL1        0.1348
     29 C           4.0514   -4.0918    1.1242 C.3     1  UNL1       -0.0041
     30 N           5.5554   -2.1163    1.4212 N.ar    1  UNL1       -0.1339
     31 N           5.5043   -0.8117    1.2643 N.ar    1  UNL1       -0.1256
     32 C           4.2933   -0.5016    0.8217 C.ar    1  UNL1        0.2032
     33 H           3.4458    3.1085   -0.6776 H       1  UNL1        0.0660
     34 H           3.2082    3.4007    1.0718 H       1  UNL1        0.0660
     35 H           4.7921    3.8623    0.2731 H       1  UNL1        0.0660
     36 H           2.0348    1.7213   -0.1820 H       1  UNL1        0.0674
     37 H          -2.8920   -3.4366   -2.2046 H       1  UNL1        0.0365
     38 H          -3.8709   -4.1707   -0.0257 H       1  UNL1        0.0272
     39 H          -4.4447   -2.4657    0.4033 H       1  UNL1        0.0272
     40 H          -5.2972   -4.0731   -2.1341 H       1  UNL1        0.0272
     41 H          -5.7745   -2.3187   -1.7715 H       1  UNL1        0.0272
     42 H          -2.4477    2.7240   -2.5241 H       1  UNL1        0.0473
     43 H          -3.5785    2.7355   -1.1042 H       1  UNL1        0.0473
     44 H          -4.1890    2.2595   -2.7100 H       1  UNL1        0.0473
     45 H           0.0827    1.4321   -1.6630 H       1  UNL1        0.0620
     46 H          -1.1907    0.1557    1.6138 H       1  UNL1        0.0621
     47 H          -1.5859    1.6798    3.5764 H       1  UNL1        0.0632
     48 H          -0.5248    4.9863    1.1589 H       1  UNL1        0.0632
     49 H          -0.1494    3.4821   -0.7272 H       1  UNL1        0.0621
     50 H           1.8065   -2.5605    0.2017 H       1  UNL1        0.0833
     51 H           2.9639   -4.2098    0.8993 H       1  UNL1        0.0308
     52 H           4.2104   -4.4785    2.1535 H       1  UNL1        0.0308
     53 H           4.6641   -4.6533    0.4086 H       1  UNL1        0.0308
@<TRIPOS>BOND
     1     1     2    1
     2     2     3    1
     3     3     4   ar
     4     4     5   ar
     5     5     6    1
     6     6     7   am
     7     7     8    2
     8     7     9    1
     9     9    10   ar
    10    10    11    1
    11    11    12    1
    12    12    13    1
    13    10    14   ar
    14    14    15   ar
    15    15    16    1
    16    15    17   ar
    17    17    18    1
    18    18    19    1
    19    19    20   ar
    20    20    21   ar
    21    21    22   ar
    22    22    23    1
    23    22    24   ar
    24    24    25   ar
    25     5    26   ar
    26    26    27   ar
    27    27    28   ar
    28    28    29    1
    29    28    30   ar
    30    30    31   ar
    31    31    32   ar
    32    32     3   ar
    33    18     6    1
    34    25    19   ar
    35    32    27   ar
    36    17     9   ar
    37    13    11    1
    38     1    33    1
    39     1    34    1
    40     1    35    1
    41     4    36    1
    42    11    37    1
    43    12    38    1
    44    12    39    1
    45    13    40    1
    46    13    41    1
    47    16    42    1
    48    16    43    1
    49    16    44    1
    50    18    45    1
    51    20    46    1
    52    21    47    1
    53    24    48    1
    54    25    49    1
    55    26    50    1
    56    29    51    1
    57    29    52    1
    58    29    53    1
