
     RDKit          3D

 75 75  0  0  0  0  0  0  0  0999 V2000
    2.7536   -4.6378    3.2236 C   0  0  0  0  0  0  0  0  0  0  0  0
    1.6088   -4.4301    2.3124 C   0  0  0  0  0  0  0  0  0  0  0  0
    1.6979   -3.7284    1.1833 C   0  0  0  0  0  0  0  0  0  0  0  0
    3.0269   -3.1584    0.8917 N   0  0  0  0  0  0  0  0  0  0  0  0
    3.1057   -1.8188    0.5133 C   0  0  0  0  0  0  0  0  0  0  0  0
    1.8910   -1.3670    0.4913 O   0  0  0  0  0  0  0  0  0  0  0  0
    4.0733   -0.7664    0.1415 C   0  0  1  0  0  0  0  0  0  0  0  0
    4.8191   -1.1831   -1.0795 C   0  0  0  0  0  0  0  0  0  0  0  0
    5.7218   -2.7485   -0.7656 S   0  0  0  0  0  0  0  0  0  0  0  0
    3.2479    0.4304   -0.2656 N   0  0  0  0  0  0  0  0  0  0  0  0
    3.0855    1.5251    0.5503 C   0  0  0  0  0  0  0  0  0  0  0  0
    3.7671    1.2905    1.6506 O   0  0  0  0  0  0  0  0  0  0  0  0
    2.3780    2.8224    0.5033 C   0  0  1  0  0  0  0  0  0  0  0  0
    2.7624    3.7243   -0.6376 C   0  0  0  0  0  0  0  0  0  0  0  0
    1.9667    5.0047   -0.5286 C   0  0  0  0  0  0  0  0  0  0  0  0
    2.6013    3.1589   -2.0019 C   0  0  0  0  0  0  0  0  0  0  0  0
    0.9524    2.8534    0.8761 C   0  0  0  0  0  0  0  0  0  0  0  0
   -0.0152    2.0317    0.1214 C   0  0  0  0  0  0  0  0  0  0  0  0
    0.3843    1.1572   -0.6051 O   0  0  0  0  0  0  0  0  0  0  0  0
   -1.4906    2.2775    0.2462 C   0  0  0  0  0  0  0  0  0  0  0  0
   -2.3087    1.0756    0.6031 C   0  0  1  0  0  0  0  0  0  0  0  0
   -3.7390    1.3605    0.7171 C   0  0  0  0  0  0  0  0  0  0  0  0
   -4.4125    2.1096   -0.1683 C   0  0  0  0  0  0  0  0  0  0  0  0
   -5.8661    2.3629    0.0004 C   0  0  0  0  0  0  0  0  0  0  0  0
   -6.1926    3.8257    0.1310 C   0  0  0  0  0  0  0  0  0  0  0  0
   -8.0096    3.9976    0.3171 S   0  0  0  0  0  0  0  0  0  0  0  0
   -2.0648    0.0527   -0.3859 O   0  0  0  0  0  0  0  0  0  0  0  0
   -1.3749   -1.0928   -0.0404 C   0  0  0  0  0  0  0  0  0  0  0  0
   -1.0128   -1.1652    1.1668 O   0  0  0  0  0  0  0  0  0  0  0  0
   -1.0923   -2.1218   -1.0697 C   0  0  2  0  0  0  0  0  0  0  0  0
   -2.2014   -2.9899   -1.4380 C   0  0  0  0  0  0  0  0  0  0  0  0
   -1.7940   -4.0212   -2.4833 C   0  0  0  0  0  0  0  0  0  0  0  0
   -3.0309   -3.6284   -0.3887 C   0  0  0  0  0  0  0  0  0  0  0  0
    0.2095   -2.7532   -0.7730 N   0  0  0  0  0  0  0  0  0  0  0  0
    0.5013   -3.3886    0.4299 C   0  0  0  0  0  0  0  0  0  0  0  0
   -0.5983   -3.7373    0.9496 O   0  0  0  0  0  0  0  0  0  0  0  0
    3.5106   -3.8143    3.0779 H   0  0  0  0  0  0  0  0  0  0  0  0
    3.2487   -5.6237    3.1023 H   0  0  0  0  0  0  0  0  0  0  0  0
    2.4416   -4.5356    4.2911 H   0  0  0  0  0  0  0  0  0  0  0  0
    0.6303   -4.8791    2.5763 H   0  0  0  0  0  0  0  0  0  0  0  0
    3.7405   -3.8667    1.0269 H   0  0  0  0  0  0  0  0  0  0  0  0
    4.7641   -0.5124    0.9380 H   0  0  0  0  0  0  0  0  0  0  0  0
    5.5809   -0.4578   -1.4174 H   0  0  0  0  0  0  0  0  0  0  0  0
    4.1291   -1.3337   -1.9565 H   0  0  0  0  0  0  0  0  0  0  0  0
    6.7868   -2.4612    0.1264 H   0  0  0  0  0  0  0  0  0  0  0  0
    2.8715    0.2557   -1.1697 H   0  0  0  0  0  0  0  0  0  0  0  0
    2.8825    3.4021    1.3971 H   0  0  0  0  0  0  0  0  0  0  0  0
    3.8552    3.9755   -0.5224 H   0  0  0  0  0  0  0  0  0  0  0  0
    0.9288    4.8109   -0.8441 H   0  0  0  0  0  0  0  0  0  0  0  0
    1.9573    5.3336    0.5416 H   0  0  0  0  0  0  0  0  0  0  0  0
    2.3620    5.8210   -1.1736 H   0  0  0  0  0  0  0  0  0  0  0  0
    3.3229    2.3279   -2.2134 H   0  0  0  0  0  0  0  0  0  0  0  0
    2.9521    3.9741   -2.7093 H   0  0  0  0  0  0  0  0  0  0  0  0
    1.5697    2.9463   -2.3156 H   0  0  0  0  0  0  0  0  0  0  0  0
    0.8237    2.5276    1.9697 H   0  0  0  0  0  0  0  0  0  0  0  0
    0.5659    3.9240    0.9516 H   0  0  0  0  0  0  0  0  0  0  0  0
   -1.6166    3.1189    0.9626 H   0  0  0  0  0  0  0  0  0  0  0  0
   -1.8721    2.6698   -0.7292 H   0  0  0  0  0  0  0  0  0  0  0  0
   -1.9121    0.7143    1.5730 H   0  0  0  0  0  0  0  0  0  0  0  0
   -4.3373    0.9677    1.5487 H   0  0  0  0  0  0  0  0  0  0  0  0
   -3.8758    2.5228   -1.0009 H   0  0  0  0  0  0  0  0  0  0  0  0
   -6.1998    1.8903    0.9693 H   0  0  0  0  0  0  0  0  0  0  0  0
   -6.4443    1.8477   -0.7925 H   0  0  0  0  0  0  0  0  0  0  0  0
   -5.8320    4.3348   -0.7735 H   0  0  0  0  0  0  0  0  0  0  0  0
   -5.7094    4.2137    1.0550 H   0  0  0  0  0  0  0  0  0  0  0  0
   -8.2975    4.5333    1.5815 H   0  0  0  0  0  0  0  0  0  0  0  0
   -0.8679   -1.4788   -1.9918 H   0  0  0  0  0  0  0  0  0  0  0  0
   -2.9274   -2.3212   -2.0414 H   0  0  0  0  0  0  0  0  0  0  0  0
   -2.6181   -4.2497   -3.1880 H   0  0  0  0  0  0  0  0  0  0  0  0
   -0.9340   -3.7003   -3.0920 H   0  0  0  0  0  0  0  0  0  0  0  0
   -1.5734   -5.0125   -1.9906 H   0  0  0  0  0  0  0  0  0  0  0  0
   -4.0934   -3.7188   -0.8046 H   0  0  0  0  0  0  0  0  0  0  0  0
   -2.7749   -4.7225   -0.2546 H   0  0  0  0  0  0  0  0  0  0  0  0
   -3.1689   -3.0823    0.5422 H   0  0  0  0  0  0  0  0  0  0  0  0
    0.7801   -2.6650   -1.6389 H   0  0  0  0  0  0  0  0  0  0  0  0
  1  2  1  0
  2  3  2  0
  3  4  1  0
  4  5  1  0
  5  6  2  0
  5  7  1  0
  7  8  1  0
  8  9  1  0
  7 10  1  0
 10 11  1  0
 11 12  2  0
 11 13  1  0
 13 14  1  0
 14 15  1  0
 14 16  1  0
 13 17  1  0
 17 18  1  0
 18 19  2  0
 18 20  1  0
 20 21  1  0
 21 22  1  0
 22 23  2  0
 23 24  1  0
 24 25  1  0
 25 26  1  0
 21 27  1  0
 27 28  1  0
 28 29  2  0
 28 30  1  0
 30 31  1  0
 31 32  1  0
 31 33  1  0
 30 34  1  0
 34 35  1  0
 35 36  2  0
 35  3  1  0
  1 37  1  0
  1 38  1  0
  1 39  1  0
  2 40  1  0
  4 41  1  0
  7 42  1  1
  8 43  1  0
  8 44  1  0
  9 45  1  0
 10 46  1  0
 13 47  1  1
 14 48  1  0
 15 49  1  0
 15 50  1  0
 15 51  1  0
 16 52  1  0
 16 53  1  0
 16 54  1  0
 17 55  1  0
 17 56  1  0
 20 57  1  0
 20 58  1  0
 21 59  1  1
 22 60  1  0
 23 61  1  0
 24 62  1  0
 24 63  1  0
 25 64  1  0
 25 65  1  0
 26 66  1  0
 30 67  1  6
 31 68  1  0
 32 69  1  0
 32 70  1  0
 32 71  1  0
 33 72  1  0
 33 73  1  0
 33 74  1  0
 34 75  1  0
M  END
$$$$
