@<TRIPOS>MOLECULE
*****
 75 75 0 0 0
SMALL
GASTEIGER

@<TRIPOS>ATOM
      1 C           2.7536   -4.6378    3.2236 C.3     1  UNL1       -0.0446
      2 C           1.6088   -4.4301    2.3124 C.2     1  UNL1       -0.0608
      3 C           1.6979   -3.7284    1.1833 C.2     1  UNL1        0.0917
      4 N           3.0269   -3.1584    0.8917 N.am    1  UNL1       -0.2801
      5 C           3.1057   -1.8188    0.5133 C.2     1  UNL1        0.2384
      6 O           1.8910   -1.3670    0.4913 O.2     1  UNL1       -0.2734
      7 C           4.0733   -0.7664    0.1415 C.3     1  UNL1        0.1084
      8 C           4.8191   -1.1831   -1.0795 C.3     1  UNL1        0.0177
      9 S           5.7218   -2.7485   -0.7656 S.3     1  UNL1       -0.1759
     10 N           3.2479    0.4304   -0.2656 N.am    1  UNL1       -0.3030
     11 C           3.0855    1.5251    0.5503 C.2     1  UNL1        0.2174
     12 O           3.7671    1.2905    1.6506 O.2     1  UNL1       -0.2755
     13 C           2.3780    2.8224    0.5033 C.3     1  UNL1        0.0445
     14 C           2.7624    3.7243   -0.6376 C.3     1  UNL1       -0.0352
     15 C           1.9667    5.0047   -0.5286 C.3     1  UNL1       -0.0620
     16 C           2.6013    3.1589   -2.0019 C.3     1  UNL1       -0.0620
     17 C           0.9524    2.8534    0.8761 C.3     1  UNL1        0.0173
     18 C          -0.0152    2.0317    0.1214 C.2     1  UNL1        0.1379
     19 O           0.3843    1.1572   -0.6051 O.2     1  UNL1       -0.2972
     20 C          -1.4906    2.2775    0.2462 C.3     1  UNL1        0.0467
     21 C          -2.3087    1.0756    0.6031 C.3     1  UNL1        0.1279
     22 C          -3.7390    1.3605    0.7171 C.2     1  UNL1       -0.0475
     23 C          -4.4125    2.1096   -0.1683 C.2     1  UNL1       -0.0837
     24 C          -5.8661    2.3629    0.0004 C.3     1  UNL1       -0.0258
     25 C          -6.1926    3.8257    0.1310 C.3     1  UNL1       -0.0059
     26 S          -8.0096    3.9976    0.3171 S.3     1  UNL1       -0.1779
     27 O          -2.0648    0.0527   -0.3859 O.3     1  UNL1       -0.4555
     28 C          -1.3749   -1.0928   -0.0404 C.2     1  UNL1        0.3285
     29 O          -1.0128   -1.1652    1.1668 O.2     1  UNL1       -0.2487
     30 C          -1.0923   -2.1218   -1.0697 C.3     1  UNL1        0.1230
     31 C          -2.2014   -2.9899   -1.4380 C.3     1  UNL1       -0.0178
     32 C          -1.7940   -4.0212   -2.4833 C.3     1  UNL1       -0.0605
     33 C          -3.0309   -3.6284   -0.3887 C.3     1  UNL1       -0.0605
     34 N           0.2095   -2.7532   -0.7730 N.am    1  UNL1       -0.2971
     35 C           0.5013   -3.3886    0.4299 C.2     1  UNL1        0.2586
     36 O          -0.5983   -3.7373    0.9496 O.2     1  UNL1       -0.2688
     37 H           3.5106   -3.8143    3.0779 H       1  UNL1        0.0272
     38 H           3.2487   -5.6237    3.1023 H       1  UNL1        0.0272
     39 H           2.4416   -4.5356    4.2911 H       1  UNL1        0.0272
     40 H           0.6303   -4.8791    2.5763 H       1  UNL1        0.0589
     41 H           3.7405   -3.8667    1.0269 H       1  UNL1        0.1550
     42 H           4.7641   -0.5124    0.9380 H       1  UNL1        0.0603
     43 H           5.5809   -0.4578   -1.4174 H       1  UNL1        0.0397
     44 H           4.1291   -1.3337   -1.9565 H       1  UNL1        0.0397
     45 H           6.7868   -2.4612    0.1264 H       1  UNL1        0.1017
     46 H           2.8715    0.2557   -1.1697 H       1  UNL1        0.1495
     47 H           2.8825    3.4021    1.3971 H       1  UNL1        0.0401
     48 H           3.8552    3.9755   -0.5224 H       1  UNL1        0.0303
     49 H           0.9288    4.8109   -0.8441 H       1  UNL1        0.0233
     50 H           1.9573    5.3336    0.5416 H       1  UNL1        0.0233
     51 H           2.3620    5.8210   -1.1736 H       1  UNL1        0.0233
     52 H           3.3229    2.3279   -2.2134 H       1  UNL1        0.0233
     53 H           2.9521    3.9741   -2.7093 H       1  UNL1        0.0233
     54 H           1.5697    2.9463   -2.3156 H       1  UNL1        0.0233
     55 H           0.8237    2.5276    1.9697 H       1  UNL1        0.0349
     56 H           0.5659    3.9240    0.9516 H       1  UNL1        0.0349
     57 H          -1.6166    3.1189    0.9626 H       1  UNL1        0.0381
     58 H          -1.8721    2.6698   -0.7292 H       1  UNL1        0.0381
     59 H          -1.9121    0.7143    1.5730 H       1  UNL1        0.0783
     60 H          -4.3373    0.9677    1.5487 H       1  UNL1        0.0605
     61 H          -3.8758    2.5228   -1.0009 H       1  UNL1        0.0570
     62 H          -6.1998    1.8903    0.9693 H       1  UNL1        0.0315
     63 H          -6.4443    1.8477   -0.7925 H       1  UNL1        0.0315
     64 H          -5.8320    4.3348   -0.7735 H       1  UNL1        0.0377
     65 H          -5.7094    4.2137    1.0550 H       1  UNL1        0.0377
     66 H          -8.2975    4.5333    1.5815 H       1  UNL1        0.1016
     67 H          -0.8679   -1.4788   -1.9918 H       1  UNL1        0.0617
     68 H          -2.9274   -2.3212   -2.0414 H       1  UNL1        0.0319
     69 H          -2.6181   -4.2497   -3.1880 H       1  UNL1        0.0233
     70 H          -0.9340   -3.7003   -3.0920 H       1  UNL1        0.0233
     71 H          -1.5734   -5.0125   -1.9906 H       1  UNL1        0.0233
     72 H          -4.0934   -3.7188   -0.8046 H       1  UNL1        0.0233
     73 H          -2.7749   -4.7225   -0.2546 H       1  UNL1        0.0233
     74 H          -3.1689   -3.0823    0.5422 H       1  UNL1        0.0233
     75 H           0.7801   -2.6650   -1.6389 H       1  UNL1        0.1499
@<TRIPOS>BOND
     1     1     2    1
     2     2     3    2
     3     3     4    1
     4     4     5   am
     5     5     6    2
     6     5     7    1
     7     7     8    1
     8     8     9    1
     9     7    10    1
    10    10    11   am
    11    11    12    2
    12    11    13    1
    13    13    14    1
    14    14    15    1
    15    14    16    1
    16    13    17    1
    17    17    18    1
    18    18    19    2
    19    18    20    1
    20    20    21    1
    21    21    22    1
    22    22    23    2
    23    23    24    1
    24    24    25    1
    25    25    26    1
    26    21    27    1
    27    27    28    1
    28    28    29    2
    29    28    30    1
    30    30    31    1
    31    31    32    1
    32    31    33    1
    33    30    34    1
    34    34    35   am
    35    35    36    2
    36    35     3    1
    37     1    37    1
    38     1    38    1
    39     1    39    1
    40     2    40    1
    41     4    41    1
    42     7    42    1
    43     8    43    1
    44     8    44    1
    45     9    45    1
    46    10    46    1
    47    13    47    1
    48    14    48    1
    49    15    49    1
    50    15    50    1
    51    15    51    1
    52    16    52    1
    53    16    53    1
    54    16    54    1
    55    17    55    1
    56    17    56    1
    57    20    57    1
    58    20    58    1
    59    21    59    1
    60    22    60    1
    61    23    61    1
    62    24    62    1
    63    24    63    1
    64    25    64    1
    65    25    65    1
    66    26    66    1
    67    30    67    1
    68    31    68    1
    69    32    69    1
    70    32    70    1
    71    32    71    1
    72    33    72    1
    73    33    73    1
    74    33    74    1
    75    34    75    1
