
     RDKit          3D

 16 16  0  0  0  0  0  0  0  0999 V2000
    2.6231   -1.3531   -1.1634 O   0  0  0  0  0  0  0  0  0  0  0  0
    1.8937   -0.2501   -0.7528 C   0  0  0  0  0  0  0  0  0  0  0  0
    2.5882    0.7978   -0.8096 O   0  0  0  0  0  0  0  0  0  0  0  0
    0.5065   -0.2089   -0.2994 C   0  0  0  0  0  0  0  0  0  0  0  0
    0.0587    1.0513    0.0454 C   0  0  0  0  0  0  0  0  0  0  0  0
    0.8368    2.2050   -0.0216 O   0  0  0  0  0  0  0  0  0  0  0  0
   -1.2649    1.1624    0.4895 C   0  0  0  0  0  0  0  0  0  0  0  0
   -2.0712    3.0274    1.0461 I   0  0  0  0  0  0  0  0  0  0  0  0
   -2.0509    0.0329    0.5628 C   0  0  0  0  0  0  0  0  0  0  0  0
   -1.5344   -1.1976    0.2006 C   0  0  0  0  0  0  0  0  0  0  0  0
   -2.8370   -2.8412    0.3585 I   0  0  0  0  0  0  0  0  0  0  0  0
   -0.2405   -1.3463   -0.2399 C   0  0  0  0  0  0  0  0  0  0  0  0
    3.4962   -1.6270   -0.6888 H   0  0  0  0  0  0  0  0  0  0  0  0
    0.9230    2.6988    0.8782 H   0  0  0  0  0  0  0  0  0  0  0  0
   -3.0709    0.1471    0.9096 H   0  0  0  0  0  0  0  0  0  0  0  0
    0.1436   -2.2986   -0.5152 H   0  0  0  0  0  0  0  0  0  0  0  0
  1  2  1  0
  2  3  2  0
  2  4  1  0
  4  5  2  0
  5  6  1  0
  5  7  1  0
  7  8  1  0
  7  9  2  0
  9 10  1  0
 10 11  1  0
 10 12  2  0
 12  4  1  0
  1 13  1  0
  6 14  1  0
  9 15  1  0
 12 16  1  0
M  END
$$$$
