@<TRIPOS>MOLECULE
*****
 16 16 0 0 0
SMALL
GASTEIGER

@<TRIPOS>ATOM
      1 O           2.6231   -1.3531   -1.1634 O.3     1  UNL1       -0.4770
      2 C           1.8937   -0.2501   -0.7528 C.2     1  UNL1        0.3404
      3 O           2.5882    0.7978   -0.8096 O.2     1  UNL1       -0.2450
      4 C           0.5065   -0.2089   -0.2994 C.ar    1  UNL1        0.1021
      5 C           0.0587    1.0513    0.0454 C.ar    1  UNL1        0.1439
      6 O           0.8368    2.2050   -0.0216 O.3     1  UNL1       -0.5049
      7 C          -1.2649    1.1624    0.4895 C.ar    1  UNL1        0.0565
      8 I          -2.0712    3.0274    1.0461 I       1  UNL1       -0.0400
      9 C          -2.0509    0.0329    0.5628 C.ar    1  UNL1       -0.0319
     10 C          -1.5344   -1.1976    0.2006 C.ar    1  UNL1        0.0154
     11 I          -2.8370   -2.8412    0.3585 I       1  UNL1       -0.0438
     12 C          -0.2405   -1.3463   -0.2399 C.ar    1  UNL1       -0.0310
     13 H           3.4962   -1.6270   -0.6888 H       1  UNL1        0.2954
     14 H           0.9230    2.6988    0.8782 H       1  UNL1        0.2922
     15 H          -3.0709    0.1471    0.9096 H       1  UNL1        0.0639
     16 H           0.1436   -2.2986   -0.5152 H       1  UNL1        0.0637
@<TRIPOS>BOND
     1     1     2    1
     2     2     3    2
     3     2     4    1
     4     4     5   ar
     5     5     6    1
     6     5     7   ar
     7     7     8    1
     8     7     9   ar
     9     9    10   ar
    10    10    11    1
    11    10    12   ar
    12    12     4   ar
    13     1    13    1
    14     6    14    1
    15     9    15    1
    16    12    16    1
