@<TRIPOS>MOLECULE
*****
 65 70 0 0 0
SMALL
GASTEIGER

@<TRIPOS>ATOM
      1 O           1.1319    0.4730    2.5672 O.2     1  UNL1       -0.2701
      2 C           0.6697    0.3897    1.3826 C.2     1  UNL1        0.2475
      3 N           1.6706    0.2763    0.3631 N.am    1  UNL1       -0.3079
      4 C           3.0800    0.2590    0.6676 C.3     1  UNL1        0.0292
      5 C           3.7962   -0.9840    0.2345 C.3     1  UNL1       -0.0195
      6 C           3.8992   -1.0730   -1.2599 C.3     1  UNL1       -0.0455
      7 C           4.6362    0.1281   -1.7960 C.3     1  UNL1       -0.0378
      8 C           3.8437    1.3453   -1.4538 C.3     1  UNL1       -0.0455
      9 C           3.7191    1.4698    0.0482 C.3     1  UNL1       -0.0195
     10 C           5.1302    1.5842    0.6183 C.3     1  UNL1       -0.0195
     11 C           5.9034    0.3361    0.2825 C.3     1  UNL1        0.0670
     12 O           7.1538    0.4269    0.8752 O.3     1  UNL1       -0.3885
     13 C           6.0196    0.2556   -1.2274 C.3     1  UNL1       -0.0211
     14 C           5.2074   -0.8853    0.7969 C.3     1  UNL1       -0.0195
     15 C          -0.7608    0.4111    1.1234 C.ar    1  UNL1        0.0764
     16 C          -1.4887    1.5386    0.8076 C.ar    1  UNL1        0.0450
     17 N          -2.8005    1.5179    0.5845 N.ar    1  UNL1       -0.2222
     18 C          -3.4897    0.3754    0.6582 C.ar    1  UNL1        0.2156
     19 N          -4.8771    0.3654    0.4304 N.pl3   1  UNL1       -0.3105
     20 C          -5.5585    1.5936    0.1058 C.3     1  UNL1        0.0275
     21 C          -7.0497    1.3058    0.0799 C.3     1  UNL1       -0.0109
     22 C          -7.4419    0.6634   -1.2087 C.3     1  UNL1        0.0493
     23 O          -6.3004    0.0861   -1.7933 O.3     1  UNL1       -0.3796
     24 C          -5.5995    1.1678   -2.3706 C.3     1  UNL1        0.0493
     25 C          -5.1193    2.0728   -1.2570 C.3     1  UNL1       -0.0109
     26 N          -2.8052   -0.7644    0.9680 N.ar    1  UNL1       -0.2184
     27 C          -1.4856   -0.7756    1.1978 C.ar    1  UNL1        0.0615
     28 C          -0.7549   -2.0189    1.5325 C.3     1  UNL1        0.0023
     29 C          -0.2235   -2.7979    0.3745 C.3     1  UNL1       -0.0447
     30 C          -1.0565   -3.9714    0.7736 C.3     1  UNL1       -0.0519
     31 C          -1.7295   -3.1384    1.8146 C.3     1  UNL1       -0.0447
     32 H           1.3117    0.2069   -0.6197 H       1  UNL1        0.1493
     33 H           3.2085    0.3592    1.7650 H       1  UNL1        0.0504
     34 H           3.3264   -1.8727    0.6648 H       1  UNL1        0.0320
     35 H           2.8694   -1.0192   -1.6927 H       1  UNL1        0.0271
     36 H           4.3721   -2.0245   -1.5187 H       1  UNL1        0.0271
     37 H           4.7166    0.0259   -2.9071 H       1  UNL1        0.0302
     38 H           2.8553    1.2760   -1.9176 H       1  UNL1        0.0271
     39 H           4.3178    2.2849   -1.8275 H       1  UNL1        0.0271
     40 H           3.1926    2.3937    0.3545 H       1  UNL1        0.0320
     41 H           5.6491    2.4213    0.0870 H       1  UNL1        0.0296
     42 H           5.0859    1.7810    1.7004 H       1  UNL1        0.0296
     43 H           7.2410    1.1913    1.5064 H       1  UNL1        0.2102
     44 H           6.6636   -0.6073   -1.4940 H       1  UNL1        0.0296
     45 H           6.4940    1.1618   -1.6046 H       1  UNL1        0.0296
     46 H           5.7468   -1.7963    0.5365 H       1  UNL1        0.0296
     47 H           5.1944   -0.8034    1.9082 H       1  UNL1        0.0296
     48 H          -0.9346    2.4665    0.7459 H       1  UNL1        0.0839
     49 H          -5.4235   -0.5412    0.4954 H       1  UNL1        0.1492
     50 H          -5.3584    2.4149    0.8266 H       1  UNL1        0.0500
     51 H          -7.6171    2.2366    0.2686 H       1  UNL1        0.0305
     52 H          -7.2472    0.6261    0.9459 H       1  UNL1        0.0305
     53 H          -8.2598   -0.0845   -1.0946 H       1  UNL1        0.0560
     54 H          -7.8366    1.4557   -1.8995 H       1  UNL1        0.0560
     55 H          -4.7648    0.7578   -2.9772 H       1  UNL1        0.0560
     56 H          -6.2770    1.7164   -3.0596 H       1  UNL1        0.0560
     57 H          -5.5230    3.1021   -1.4296 H       1  UNL1        0.0305
     58 H          -4.0355    2.1451   -1.2936 H       1  UNL1        0.0305
     59 H          -0.0166   -1.8534    2.3467 H       1  UNL1        0.0364
     60 H           0.8546   -3.0256    0.4584 H       1  UNL1        0.0272
     61 H          -0.5073   -2.4149   -0.6263 H       1  UNL1        0.0272
     62 H          -0.4812   -4.7986    1.2264 H       1  UNL1        0.0266
     63 H          -1.7300   -4.3668   -0.0222 H       1  UNL1        0.0266
     64 H          -1.6240   -3.5463    2.8443 H       1  UNL1        0.0272
     65 H          -2.7826   -2.9020    1.5629 H       1  UNL1        0.0272
@<TRIPOS>BOND
     1     1     2    2
     2     2     3   am
     3     3     4    1
     4     4     5    1
     5     5     6    1
     6     6     7    1
     7     7     8    1
     8     8     9    1
     9     9    10    1
    10    10    11    1
    11    11    12    1
    12    11    13    1
    13    11    14    1
    14     2    15    1
    15    15    16   ar
    16    16    17   ar
    17    17    18   ar
    18    18    19    1
    19    19    20    1
    20    20    21    1
    21    21    22    1
    22    22    23    1
    23    23    24    1
    24    24    25    1
    25    18    26   ar
    26    26    27   ar
    27    27    28    1
    28    28    29    1
    29    29    30    1
    30    30    31    1
    31     9     4    1
    32    27    15   ar
    33    31    28    1
    34    14     5    1
    35    25    20    1
    36    13     7    1
    37     3    32    1
    38     4    33    1
    39     5    34    1
    40     6    35    1
    41     6    36    1
    42     7    37    1
    43     8    38    1
    44     8    39    1
    45     9    40    1
    46    10    41    1
    47    10    42    1
    48    12    43    1
    49    13    44    1
    50    13    45    1
    51    14    46    1
    52    14    47    1
    53    16    48    1
    54    19    49    1
    55    20    50    1
    56    21    51    1
    57    21    52    1
    58    22    53    1
    59    22    54    1
    60    24    55    1
    61    24    56    1
    62    25    57    1
    63    25    58    1
    64    28    59    1
    65    29    60    1
    66    29    61    1
    67    30    62    1
    68    30    63    1
    69    31    64    1
    70    31    65    1
