
     RDKit          3D

 45 48  0  0  0  0  0  0  0  0999 V2000
   -0.8539    0.4809    3.3082 C   0  0  0  0  0  0  0  0  0  0  0  0
    0.2581    0.4865    2.3353 C   0  0  0  0  0  0  0  0  0  0  0  0
    1.5178    0.7202    2.9088 C   0  0  0  0  0  0  0  0  0  0  0  0
    2.5966    0.7368    2.1232 N   0  0  0  0  0  0  0  0  0  0  0  0
    2.5672    0.5398    0.7863 C   0  0  0  0  0  0  0  0  0  0  0  0
    3.7996    0.5577    0.0095 C   0  0  0  0  0  0  0  0  0  0  0  0
    3.9077    0.3594   -1.3311 C   0  0  0  0  0  0  0  0  0  0  0  0
    5.1281    0.3795   -1.9853 C   0  0  0  0  0  0  0  0  0  0  0  0
    5.1813    0.1137   -3.7244 Cl  0  0  0  0  0  0  0  0  0  0  0  0
    6.2787    0.6031   -1.2907 C   0  0  0  0  0  0  0  0  0  0  0  0
    6.2065    0.8082    0.0698 C   0  0  0  0  0  0  0  0  0  0  0  0
    4.9836    0.7848    0.7031 C   0  0  0  0  0  0  0  0  0  0  0  0
    4.9431    0.9920    2.0290 F   0  0  0  0  0  0  0  0  0  0  0  0
    1.3146    0.3111    0.2462 C   0  0  0  0  0  0  0  0  0  0  0  0
    0.1457    0.2779    0.9720 C   0  0  0  0  0  0  0  0  0  0  0  0
   -1.1343    0.1182    0.3967 N   0  0  0  0  0  0  0  0  0  0  0  0
   -1.5049    0.2079   -0.9567 C   0  0  0  0  0  0  0  0  0  0  0  0
   -0.7525    0.9430   -1.8572 C   0  0  0  0  0  0  0  0  0  0  0  0
   -1.0824    0.9064   -3.1846 C   0  0  0  0  0  0  0  0  0  0  0  0
   -2.1146    0.1791   -3.6260 N   0  0  0  0  0  0  0  0  0  0  0  0
   -2.8664   -0.5418   -2.7913 C   0  0  0  0  0  0  0  0  0  0  0  0
   -3.9588   -1.3775   -3.0096 C   0  0  0  0  0  0  0  0  0  0  0  0
   -4.3021   -1.8521   -1.8471 N   0  0  0  0  0  0  0  0  0  0  0  0
   -3.4873   -1.3691   -0.8614 N   0  0  0  0  0  0  0  0  0  0  0  0
   -3.6691   -1.7310    0.5226 C   0  0  0  0  0  0  0  0  0  0  0  0
   -4.6662   -0.8299    1.1203 C   0  0  0  0  0  0  0  0  0  0  0  0
   -4.4810    0.5259    1.4713 N   0  0  0  0  0  0  0  0  0  0  0  0
   -5.8492   -1.2971    1.3617 O   0  0  0  0  0  0  0  0  0  0  0  0
   -2.5924   -0.5572   -1.4204 C   0  0  0  0  0  0  0  0  0  0  0  0
   -1.7802    0.0165    2.9993 H   0  0  0  0  0  0  0  0  0  0  0  0
   -0.9643    1.5013    3.7803 H   0  0  0  0  0  0  0  0  0  0  0  0
   -0.4867   -0.1692    4.1735 H   0  0  0  0  0  0  0  0  0  0  0  0
    1.5922    0.8858    3.9959 H   0  0  0  0  0  0  0  0  0  0  0  0
    3.0011    0.1806   -1.9043 H   0  0  0  0  0  0  0  0  0  0  0  0
    7.2448    0.6162   -1.8126 H   0  0  0  0  0  0  0  0  0  0  0  0
    7.1362    0.9837    0.5949 H   0  0  0  0  0  0  0  0  0  0  0  0
    1.3471    0.0982   -0.8287 H   0  0  0  0  0  0  0  0  0  0  0  0
   -1.8962   -0.0429    1.0763 H   0  0  0  0  0  0  0  0  0  0  0  0
    0.0325    1.5664   -1.4717 H   0  0  0  0  0  0  0  0  0  0  0  0
   -0.4679    1.4998   -3.8860 H   0  0  0  0  0  0  0  0  0  0  0  0
   -4.3855   -1.5491   -3.9881 H   0  0  0  0  0  0  0  0  0  0  0  0
   -4.1556   -2.7897    0.5337 H   0  0  0  0  0  0  0  0  0  0  0  0
   -2.8072   -1.8556    1.1438 H   0  0  0  0  0  0  0  0  0  0  0  0
   -5.1089    1.2145    0.9632 H   0  0  0  0  0  0  0  0  0  0  0  0
   -3.8146    0.8839    2.1526 H   0  0  0  0  0  0  0  0  0  0  0  0
  1  2  1  0
  2  3  2  0
  3  4  1  0
  4  5  2  0
  5  6  1  0
  6  7  2  0
  7  8  1  0
  8  9  1  0
  8 10  2  0
 10 11  1  0
 11 12  2  0
 12 13  1  0
  5 14  1  0
 14 15  2  0
 15 16  1  0
 16 17  1  0
 17 18  2  0
 18 19  1  0
 19 20  2  0
 20 21  1  0
 21 22  1  0
 22 23  2  0
 23 24  1  0
 24 25  1  0
 25 26  1  0
 26 27  1  0
 26 28  2  0
 24 29  1  0
 15  2  1  0
 29 17  1  0
 12  6  1  0
 29 21  2  0
  1 30  1  0
  1 31  1  0
  1 32  1  0
  3 33  1  0
  7 34  1  0
 10 35  1  0
 11 36  1  0
 14 37  1  0
 16 38  1  0
 18 39  1  0
 19 40  1  0
 22 41  1  0
 25 42  1  0
 25 43  1  0
 27 44  1  0
 27 45  1  0
M  END
$$$$
