@<TRIPOS>MOLECULE
*****
 45 48 0 0 0
SMALL
GASTEIGER

@<TRIPOS>ATOM
      1 C          -0.8539    0.4809    3.3082 C.3     1  UNL1       -0.0365
      2 C           0.2581    0.4865    2.3353 C.ar    1  UNL1       -0.0112
      3 C           1.5178    0.7202    2.9088 C.ar    1  UNL1        0.0329
      4 N           2.5966    0.7368    2.1232 N.ar    1  UNL1       -0.2545
      5 C           2.5672    0.5398    0.7863 C.ar    1  UNL1        0.0755
      6 C           3.7996    0.5577    0.0095 C.ar    1  UNL1        0.0369
      7 C           3.9077    0.3594   -1.3311 C.ar    1  UNL1       -0.0314
      8 C           5.1281    0.3795   -1.9853 C.ar    1  UNL1        0.0418
      9 CL          5.1813    0.1137   -3.7244 Cl      1  UNL1       -0.0835
     10 C           6.2787    0.6031   -1.2907 C.ar    1  UNL1       -0.0406
     11 C           6.2065    0.8082    0.0698 C.ar    1  UNL1       -0.0244
     12 C           4.9836    0.7848    0.7031 C.ar    1  UNL1        0.1326
     13 F           4.9431    0.9920    2.0290 F       1  UNL1       -0.2048
     14 C           1.3146    0.3111    0.2462 C.ar    1  UNL1       -0.0142
     15 C           0.1457    0.2779    0.9720 C.ar    1  UNL1        0.0378
     16 N          -1.1343    0.1182    0.3967 N.pl3   1  UNL1       -0.3125
     17 C          -1.5049    0.2079   -0.9567 C.ar    1  UNL1        0.0603
     18 C          -0.7525    0.9430   -1.8572 C.ar    1  UNL1       -0.0203
     19 C          -1.0824    0.9064   -3.1846 C.ar    1  UNL1        0.0302
     20 N          -2.1146    0.1791   -3.6260 N.ar    1  UNL1       -0.2517
     21 C          -2.8664   -0.5418   -2.7913 C.ar    1  UNL1        0.1102
     22 C          -3.9588   -1.3775   -3.0096 C.ar    1  UNL1        0.0754
     23 N          -4.3021   -1.8521   -1.8471 N.ar    1  UNL1       -0.1764
     24 N          -3.4873   -1.3691   -0.8614 N.ar    1  UNL1       -0.2515
     25 C          -3.6691   -1.7310    0.5226 C.3     1  UNL1        0.1181
     26 C          -4.6662   -0.8299    1.1203 C.2     1  UNL1        0.2320
     27 N          -4.4810    0.5259    1.4713 N.am    1  UNL1       -0.3278
     28 O          -5.8492   -1.2971    1.3617 O.2     1  UNL1       -0.2740
     29 C          -2.5924   -0.5572   -1.4204 C.ar    1  UNL1        0.1087
     30 H          -1.7802    0.0165    2.9993 H       1  UNL1        0.0279
     31 H          -0.9643    1.5013    3.7803 H       1  UNL1        0.0279
     32 H          -0.4867   -0.1692    4.1735 H       1  UNL1        0.0279
     33 H           1.5922    0.8858    3.9959 H       1  UNL1        0.0833
     34 H           3.0011    0.1806   -1.9043 H       1  UNL1        0.0639
     35 H           7.2448    0.6162   -1.8126 H       1  UNL1        0.0633
     36 H           7.1362    0.9837    0.5949 H       1  UNL1        0.0647
     37 H           1.3471    0.0982   -0.8287 H       1  UNL1        0.0658
     38 H          -1.8962   -0.0429    1.0763 H       1  UNL1        0.1522
     39 H           0.0325    1.5664   -1.4717 H       1  UNL1        0.0652
     40 H          -0.4679    1.4998   -3.8860 H       1  UNL1        0.0830
     41 H          -4.3855   -1.5491   -3.9881 H       1  UNL1        0.0870
     42 H          -4.1556   -2.7897    0.5337 H       1  UNL1        0.0605
     43 H          -2.8072   -1.8556    1.1438 H       1  UNL1        0.0605
     44 H          -5.1089    1.2145    0.9632 H       1  UNL1        0.1450
     45 H          -3.8146    0.8839    2.1526 H       1  UNL1        0.1450
@<TRIPOS>BOND
     1     1     2    1
     2     2     3   ar
     3     3     4   ar
     4     4     5   ar
     5     5     6    1
     6     6     7   ar
     7     7     8   ar
     8     8     9    1
     9     8    10   ar
    10    10    11   ar
    11    11    12   ar
    12    12    13    1
    13     5    14   ar
    14    14    15   ar
    15    15    16    1
    16    16    17    1
    17    17    18   ar
    18    18    19   ar
    19    19    20   ar
    20    20    21   ar
    21    21    22   ar
    22    22    23   ar
    23    23    24   ar
    24    24    25    1
    25    25    26    1
    26    26    27   am
    27    26    28    2
    28    24    29   ar
    29    15     2   ar
    30    29    17   ar
    31    12     6   ar
    32    29    21   ar
    33     1    30    1
    34     1    31    1
    35     1    32    1
    36     3    33    1
    37     7    34    1
    38    10    35    1
    39    11    36    1
    40    14    37    1
    41    16    38    1
    42    18    39    1
    43    19    40    1
    44    22    41    1
    45    25    42    1
    46    25    43    1
    47    27    44    1
    48    27    45    1
