@<TRIPOS>MOLECULE
*****
 74 79 0 0 0
SMALL
GASTEIGER

@<TRIPOS>ATOM
      1 C          -6.4723    4.5630    0.2720 C.3     1  UNL1       -0.0151
      2 N          -5.7997    5.1117   -0.8704 N.3     1  UNL1       -0.3089
      3 C          -5.3927    4.1079   -1.8259 C.3     1  UNL1        0.0820
      4 C          -4.6986    4.7868   -2.9816 C.3     1  UNL1       -0.0411
      5 C          -4.5489    3.1146   -1.1436 C.2     1  UNL1        0.2350
      6 O          -4.3011    3.2380    0.0808 O.2     1  UNL1       -0.2737
      7 N          -3.9756    1.9879   -1.7944 N.am    1  UNL1       -0.2691
      8 C          -3.1636    1.0356   -1.1246 C.ar    1  UNL1        0.1263
      9 C          -3.7920   -0.0528   -0.5594 C.ar    1  UNL1       -0.0208
     10 C          -3.0657   -1.0378    0.1175 C.ar    1  UNL1       -0.0466
     11 C          -1.6974   -0.9091    0.2158 C.ar    1  UNL1        0.0349
     12 C          -0.9576   -1.9493    0.9226 C.ar    1  UNL1        0.0837
     13 C          -0.7115   -3.2152    0.4391 C.ar    1  UNL1        0.1006
     14 C          -1.1185   -3.7690   -0.8700 C.ar    1  UNL1        0.0387
     15 C          -0.6464   -3.2115   -2.0382 C.ar    1  UNL1        0.0403
     16 N          -1.0338   -3.7376   -3.1911 N.ar    1  UNL1       -0.2399
     17 C          -1.8641   -4.7893   -3.3111 C.ar    1  UNL1        0.1259
     18 C          -2.2376   -5.3051   -4.6752 C.3     1  UNL1       -0.0046
     19 N          -2.3343   -5.3456   -2.1812 N.ar    1  UNL1       -0.2399
     20 C          -1.9695   -4.8461   -0.9718 C.ar    1  UNL1        0.0403
     21 N          -0.0178   -3.8430    1.4032 N.ar    1  UNL1       -0.2271
     22 C           0.1856   -3.0414    2.4652 C.ar    1  UNL1        0.1390
     23 C           0.8268   -3.2074    3.6892 C.ar    1  UNL1       -0.0158
     24 C           0.8873   -2.1952    4.6219 C.ar    1  UNL1       -0.0456
     25 C           1.5720   -2.3655    5.9362 C.3     1  UNL1       -0.0395
     26 C           0.2814   -1.0025    4.2887 C.ar    1  UNL1       -0.0421
     27 C          -0.3430   -0.8697    3.0744 C.ar    1  UNL1        0.0120
     28 N          -0.4030   -1.8744    2.1490 N.ar    1  UNL1       -0.2986
     29 C          -1.1011    0.1835   -0.3566 C.ar    1  UNL1        0.1250
     30 C           0.3211    0.3304   -0.2798 C.1     1  UNL1       -0.0404
     31 C           1.5273    0.4715   -0.2023 C.1     1  UNL1       -0.0595
     32 C           2.9661    0.6245   -0.1192 C.ar    1  UNL1        0.0260
     33 C           3.7929   -0.4519    0.1230 C.ar    1  UNL1       -0.0443
     34 C           5.1745   -0.3142    0.2037 C.ar    1  UNL1       -0.0364
     35 C           5.7520    0.9381    0.0376 C.ar    1  UNL1        0.0518
     36 C           4.9366    2.0089   -0.2027 C.ar    1  UNL1       -0.0001
     37 C           5.5357    3.2576   -0.3664 C.ar    1  UNL1       -0.0475
     38 C           6.8974    3.4360   -0.2937 C.ar    1  UNL1        0.0036
     39 C           7.6617    2.3201   -0.0497 C.ar    1  UNL1        0.2515
     40 O           8.9245    2.4586    0.0222 O.2     1  UNL1       -0.2677
     41 N           7.0897    1.1047    0.1103 N.ar    1  UNL1       -0.3112
     42 C           7.8858   -0.0586    0.3639 C.3     1  UNL1        0.0153
     43 C           3.5658    1.8573   -0.2804 C.ar    1  UNL1       -0.0372
     44 N          -1.8350    1.1310   -1.0118 N.ar    1  UNL1       -0.2229
     45 H          -5.8343    4.6375    1.1507 H       1  UNL1        0.0388
     46 H          -6.7701    3.5046    0.0377 H       1  UNL1        0.0388
     47 H          -7.3720    5.1873    0.4598 H       1  UNL1        0.0388
     48 H          -5.0308    5.7255   -0.5434 H       1  UNL1        0.1223
     49 H          -6.3254    3.6629   -2.2443 H       1  UNL1        0.0554
     50 H          -4.8014    4.1571   -3.8955 H       1  UNL1        0.0249
     51 H          -3.6208    4.9123   -2.8091 H       1  UNL1        0.0249
     52 H          -5.2207    5.7500   -3.1585 H       1  UNL1        0.0249
     53 H          -4.1744    1.8767   -2.8125 H       1  UNL1        0.1563
     54 H          -4.8697   -0.1936   -0.6128 H       1  UNL1        0.0652
     55 H          -3.5372   -1.8948    0.5652 H       1  UNL1        0.0626
     56 H           0.0224   -2.3638   -1.9297 H       1  UNL1        0.0837
     57 H          -2.9966   -6.0951   -4.5284 H       1  UNL1        0.0308
     58 H          -1.3756   -5.7606   -5.1898 H       1  UNL1        0.0308
     59 H          -2.7265   -4.5056   -5.2681 H       1  UNL1        0.0308
     60 H          -2.3363   -5.2795   -0.0525 H       1  UNL1        0.0837
     61 H           1.2747   -4.1628    3.8760 H       1  UNL1        0.0657
     62 H           1.1141   -3.2390    6.4851 H       1  UNL1        0.0278
     63 H           1.3335   -1.4802    6.5622 H       1  UNL1        0.0278
     64 H           2.6403   -2.5664    5.8482 H       1  UNL1        0.0278
     65 H           0.3212   -0.1919    5.0155 H       1  UNL1        0.0635
     66 H          -0.8273    0.0525    2.7839 H       1  UNL1        0.0813
     67 H           3.3386   -1.4310    0.2523 H       1  UNL1        0.0630
     68 H           5.8391   -1.1468    0.3931 H       1  UNL1        0.0639
     69 H           4.9070    4.1043   -0.5551 H       1  UNL1        0.0626
     70 H           7.3476    4.4088   -0.4227 H       1  UNL1        0.0672
     71 H           7.7813   -0.4575    1.3934 H       1  UNL1        0.0457
     72 H           8.9557    0.2089    0.2487 H       1  UNL1        0.0457
     73 H           7.6835   -0.8277   -0.4121 H       1  UNL1        0.0457
     74 H           2.9566    2.7321   -0.4722 H       1  UNL1        0.0636
@<TRIPOS>BOND
     1     1     2    1
     2     2     3    1
     3     3     4    1
     4     3     5    1
     5     5     6    2
     6     5     7   am
     7     7     8    1
     8     8     9   ar
     9     9    10   ar
    10    10    11   ar
    11    11    12    1
    12    12    13   ar
    13    13    14    1
    14    14    15   ar
    15    15    16   ar
    16    16    17   ar
    17    17    18    1
    18    17    19   ar
    19    19    20   ar
    20    13    21   ar
    21    21    22   ar
    22    22    23   ar
    23    23    24   ar
    24    24    25    1
    25    24    26   ar
    26    26    27   ar
    27    27    28   ar
    28    11    29   ar
    29    29    30    1
    30    30    31    3
    31    31    32    1
    32    32    33   ar
    33    33    34   ar
    34    34    35   ar
    35    35    36   ar
    36    36    37   ar
    37    37    38   ar
    38    38    39   ar
    39    39    40    2
    40    39    41   ar
    41    41    42    1
    42    36    43   ar
    43    29    44   ar
    44    44     8   ar
    45    28    12   ar
    46    43    32   ar
    47    20    14   ar
    48    28    22   ar
    49    41    35   ar
    50     1    45    1
    51     1    46    1
    52     1    47    1
    53     2    48    1
    54     3    49    1
    55     4    50    1
    56     4    51    1
    57     4    52    1
    58     7    53    1
    59     9    54    1
    60    10    55    1
    61    15    56    1
    62    18    57    1
    63    18    58    1
    64    18    59    1
    65    20    60    1
    66    23    61    1
    67    25    62    1
    68    25    63    1
    69    25    64    1
    70    26    65    1
    71    27    66    1
    72    33    67    1
    73    34    68    1
    74    37    69    1
    75    38    70    1
    76    42    71    1
    77    42    72    1
    78    42    73    1
    79    43    74    1
