@<TRIPOS>MOLECULE
*****
 52 55 0 0 0
SMALL
GASTEIGER

@<TRIPOS>ATOM
      1 C          -3.2431   -0.7252   -0.2024 C.3     1  UNL1        0.0373
      2 C          -3.2194   -1.8248   -1.2116 C.3     1  UNL1       -0.0205
      3 C          -2.2775   -2.8644   -0.6610 C.3     1  UNL1        0.0012
      4 N          -2.1888   -2.6435    0.7557 N.3     1  UNL1       -0.2922
      5 C          -0.8159   -2.8348    1.2257 C.3     1  UNL1        0.0761
      6 C           0.0771   -1.7863    0.7179 C.2     1  UNL1        0.2313
      7 O          -0.0612   -0.7607   -0.0263 O.2     1  UNL1       -0.2741
      8 N           1.4081   -1.9547    1.1599 N.am    1  UNL1       -0.2821
      9 C           2.5071   -1.1093    0.8425 C.ar    1  UNL1        0.0692
     10 C           2.8900   -0.0034    1.5968 C.ar    1  UNL1        0.1464
     11 F           2.1706    0.2882    2.7067 F       1  UNL1       -0.2035
     12 C           3.9782    0.7300    1.1712 C.ar    1  UNL1       -0.0006
     13 C           4.7270    0.4584    0.0502 C.ar    1  UNL1        0.0523
     14 C           4.2918   -0.6513   -0.6502 C.ar    1  UNL1       -0.0358
     15 C           3.2145   -1.4456   -0.3014 C.ar    1  UNL1       -0.0357
     16 N           5.8352    1.2208   -0.3683 N.ar    1  UNL1       -0.2841
     17 C           6.6193    1.6546    0.6609 C.ar    1  UNL1        0.0132
     18 C           7.7455    2.4145    0.4175 C.ar    1  UNL1       -0.0449
     19 C           8.1334    2.7724   -0.8742 C.ar    1  UNL1       -0.0552
     20 C           7.3063    2.3082   -1.8783 C.ar    1  UNL1        0.0033
     21 C           6.1789    1.5464   -1.6228 C.ar    1  UNL1        0.2557
     22 O           5.4134    1.1150   -2.5287 O.2     1  UNL1       -0.2673
     23 C          -2.6847   -1.3344    1.0385 C.3     1  UNL1        0.0179
     24 N          -4.6075   -0.2482    0.0491 N.am    1  UNL1       -0.3068
     25 C          -4.9390    1.1232   -0.1088 C.2     1  UNL1        0.2510
     26 O          -4.0481    1.9399   -0.4689 O.2     1  UNL1       -0.2696
     27 C          -6.2321    1.5930    0.1255 C.ar    1  UNL1        0.0752
     28 C          -7.4336    1.0269    0.5150 C.ar    1  UNL1       -0.0411
     29 C          -8.5638    1.7742    0.6593 C.ar    1  UNL1       -0.0355
     30 C          -8.4078    3.2340    0.3684 C.ar    1  UNL1        0.0787
     31 CL         -9.8026    4.3319    0.5157 Cl      1  UNL1       -0.0758
     32 S          -6.5778    3.3734   -0.0994 S.2     1  UNL1       -0.0722
     33 H          -2.6073    0.1545   -0.5146 H       1  UNL1        0.0511
     34 H          -4.2522   -2.2430   -1.2775 H       1  UNL1        0.0296
     35 H          -2.8582   -1.4192   -2.1805 H       1  UNL1        0.0296
     36 H          -2.6605   -3.8892   -0.8593 H       1  UNL1        0.0427
     37 H          -1.2786   -2.7692   -1.1172 H       1  UNL1        0.0427
     38 H          -0.4618   -3.8274    0.9342 H       1  UNL1        0.0522
     39 H          -0.8290   -2.8235    2.3420 H       1  UNL1        0.0522
     40 H           1.8055   -2.6993    1.7726 H       1  UNL1        0.1549
     41 H           4.2778    1.6029    1.7702 H       1  UNL1        0.0668
     42 H           4.8403   -0.9336   -1.5605 H       1  UNL1        0.0639
     43 H           2.9650   -2.3032   -0.9392 H       1  UNL1        0.0638
     44 H           6.4065    1.4309    1.7177 H       1  UNL1        0.0814
     45 H           8.3673    2.7563    1.2552 H       1  UNL1        0.0632
     46 H           9.0124    3.3629   -1.0393 H       1  UNL1        0.0620
     47 H           7.5596    2.5574   -2.9171 H       1  UNL1        0.0672
     48 H          -1.9206   -0.6556    1.4726 H       1  UNL1        0.0445
     49 H          -3.5071   -1.4492    1.7969 H       1  UNL1        0.0445
     50 H          -5.3482   -0.9156    0.3470 H       1  UNL1        0.1494
     51 H          -7.3935   -0.0309    0.6885 H       1  UNL1        0.0631
     52 H          -9.5110    1.3757    0.9581 H       1  UNL1        0.0638
@<TRIPOS>BOND
     1     1     2    1
     2     2     3    1
     3     3     4    1
     4     4     5    1
     5     5     6    1
     6     6     7    2
     7     6     8   am
     8     8     9    1
     9     9    10   ar
    10    10    11    1
    11    10    12   ar
    12    12    13   ar
    13    13    14   ar
    14    14    15   ar
    15    13    16    1
    16    16    17   ar
    17    17    18   ar
    18    18    19   ar
    19    19    20   ar
    20    20    21   ar
    21    21    22    2
    22     4    23    1
    23     1    24    1
    24    24    25   am
    25    25    26    2
    26    25    27    1
    27    27    28   ar
    28    28    29   ar
    29    29    30   ar
    30    30    31    1
    31    30    32   ar
    32    23     1    1
    33    32    27   ar
    34    15     9   ar
    35    21    16   ar
    36     1    33    1
    37     2    34    1
    38     2    35    1
    39     3    36    1
    40     3    37    1
    41     5    38    1
    42     5    39    1
    43     8    40    1
    44    12    41    1
    45    14    42    1
    46    15    43    1
    47    17    44    1
    48    18    45    1
    49    19    46    1
    50    20    47    1
    51    23    48    1
    52    23    49    1
    53    24    50    1
    54    28    51    1
    55    29    52    1
