
     RDKit          3D

 52 55  0  0  0  0  0  0  0  0999 V2000
   -3.2431   -0.7252   -0.2024 C   0  0  2  0  0  0  0  0  0  0  0  0
   -3.2194   -1.8248   -1.2116 C   0  0  0  0  0  0  0  0  0  0  0  0
   -2.2775   -2.8644   -0.6610 C   0  0  0  0  0  0  0  0  0  0  0  0
   -2.1888   -2.6435    0.7557 N   0  0  0  0  0  0  0  0  0  0  0  0
   -0.8159   -2.8348    1.2257 C   0  0  0  0  0  0  0  0  0  0  0  0
    0.0771   -1.7863    0.7179 C   0  0  0  0  0  0  0  0  0  0  0  0
   -0.0612   -0.7607   -0.0263 O   0  0  0  0  0  0  0  0  0  0  0  0
    1.4081   -1.9547    1.1599 N   0  0  0  0  0  0  0  0  0  0  0  0
    2.5071   -1.1093    0.8425 C   0  0  0  0  0  0  0  0  0  0  0  0
    2.8900   -0.0034    1.5968 C   0  0  0  0  0  0  0  0  0  0  0  0
    2.1706    0.2882    2.7067 F   0  0  0  0  0  0  0  0  0  0  0  0
    3.9782    0.7300    1.1712 C   0  0  0  0  0  0  0  0  0  0  0  0
    4.7270    0.4584    0.0502 C   0  0  0  0  0  0  0  0  0  0  0  0
    4.2918   -0.6513   -0.6502 C   0  0  0  0  0  0  0  0  0  0  0  0
    3.2145   -1.4456   -0.3014 C   0  0  0  0  0  0  0  0  0  0  0  0
    5.8352    1.2208   -0.3683 N   0  0  0  0  0  0  0  0  0  0  0  0
    6.6193    1.6546    0.6609 C   0  0  0  0  0  0  0  0  0  0  0  0
    7.7455    2.4145    0.4175 C   0  0  0  0  0  0  0  0  0  0  0  0
    8.1334    2.7724   -0.8742 C   0  0  0  0  0  0  0  0  0  0  0  0
    7.3063    2.3082   -1.8783 C   0  0  0  0  0  0  0  0  0  0  0  0
    6.1789    1.5464   -1.6228 C   0  0  0  0  0  0  0  0  0  0  0  0
    5.4134    1.1150   -2.5287 O   0  0  0  0  0  0  0  0  0  0  0  0
   -2.6847   -1.3344    1.0385 C   0  0  0  0  0  0  0  0  0  0  0  0
   -4.6075   -0.2482    0.0491 N   0  0  0  0  0  0  0  0  0  0  0  0
   -4.9390    1.1232   -0.1088 C   0  0  0  0  0  0  0  0  0  0  0  0
   -4.0481    1.9399   -0.4689 O   0  0  0  0  0  0  0  0  0  0  0  0
   -6.2321    1.5930    0.1255 C   0  0  0  0  0  0  0  0  0  0  0  0
   -7.4336    1.0269    0.5150 C   0  0  0  0  0  0  0  0  0  0  0  0
   -8.5638    1.7742    0.6593 C   0  0  0  0  0  0  0  0  0  0  0  0
   -8.4078    3.2340    0.3684 C   0  0  0  0  0  0  0  0  0  0  0  0
   -9.8026    4.3319    0.5157 Cl  0  0  0  0  0  0  0  0  0  0  0  0
   -6.5778    3.3734   -0.0994 S   0  0  0  0  0  0  0  0  0  0  0  0
   -2.6073    0.1545   -0.5146 H   0  0  0  0  0  0  0  0  0  0  0  0
   -4.2522   -2.2430   -1.2775 H   0  0  0  0  0  0  0  0  0  0  0  0
   -2.8582   -1.4192   -2.1805 H   0  0  0  0  0  0  0  0  0  0  0  0
   -2.6605   -3.8892   -0.8593 H   0  0  0  0  0  0  0  0  0  0  0  0
   -1.2786   -2.7692   -1.1172 H   0  0  0  0  0  0  0  0  0  0  0  0
   -0.4618   -3.8274    0.9342 H   0  0  0  0  0  0  0  0  0  0  0  0
   -0.8290   -2.8235    2.3420 H   0  0  0  0  0  0  0  0  0  0  0  0
    1.8055   -2.6993    1.7726 H   0  0  0  0  0  0  0  0  0  0  0  0
    4.2778    1.6029    1.7702 H   0  0  0  0  0  0  0  0  0  0  0  0
    4.8403   -0.9336   -1.5605 H   0  0  0  0  0  0  0  0  0  0  0  0
    2.9650   -2.3032   -0.9392 H   0  0  0  0  0  0  0  0  0  0  0  0
    6.4065    1.4309    1.7177 H   0  0  0  0  0  0  0  0  0  0  0  0
    8.3673    2.7563    1.2552 H   0  0  0  0  0  0  0  0  0  0  0  0
    9.0124    3.3629   -1.0393 H   0  0  0  0  0  0  0  0  0  0  0  0
    7.5596    2.5574   -2.9171 H   0  0  0  0  0  0  0  0  0  0  0  0
   -1.9206   -0.6556    1.4726 H   0  0  0  0  0  0  0  0  0  0  0  0
   -3.5071   -1.4492    1.7969 H   0  0  0  0  0  0  0  0  0  0  0  0
   -5.3482   -0.9156    0.3470 H   0  0  0  0  0  0  0  0  0  0  0  0
   -7.3935   -0.0309    0.6885 H   0  0  0  0  0  0  0  0  0  0  0  0
   -9.5110    1.3757    0.9581 H   0  0  0  0  0  0  0  0  0  0  0  0
  1  2  1  0
  2  3  1  0
  3  4  1  0
  4  5  1  0
  5  6  1  0
  6  7  2  0
  6  8  1  0
  8  9  1  0
  9 10  2  0
 10 11  1  0
 10 12  1  0
 12 13  2  0
 13 14  1  0
 14 15  2  0
 13 16  1  0
 16 17  1  0
 17 18  2  0
 18 19  1  0
 19 20  2  0
 20 21  1  0
 21 22  2  0
  4 23  1  0
  1 24  1  0
 24 25  1  0
 25 26  2  0
 25 27  1  0
 27 28  2  0
 28 29  1  0
 29 30  2  0
 30 31  1  0
 30 32  1  0
 23  1  1  0
 32 27  1  0
 15  9  1  0
 21 16  1  0
  1 33  1  6
  2 34  1  0
  2 35  1  0
  3 36  1  0
  3 37  1  0
  5 38  1  0
  5 39  1  0
  8 40  1  0
 12 41  1  0
 14 42  1  0
 15 43  1  0
 17 44  1  0
 18 45  1  0
 19 46  1  0
 20 47  1  0
 23 48  1  0
 23 49  1  0
 24 50  1  0
 28 51  1  0
 29 52  1  0
M  END
$$$$
