
     RDKit          3D

 46 48  0  0  0  0  0  0  0  0999 V2000
    3.2772    2.8875   -2.4086 C   0  0  0  0  0  0  0  0  0  0  0  0
    3.4730    1.4158   -2.2153 C   0  0  0  0  0  0  0  0  0  0  0  0
    2.4241    0.8725   -1.4424 O   0  0  0  0  0  0  0  0  0  0  0  0
    2.3995   -0.4856   -1.1354 C   0  0  0  0  0  0  0  0  0  0  0  0
    3.4179   -1.2944   -1.5981 C   0  0  0  0  0  0  0  0  0  0  0  0
    3.4389   -2.6267   -1.3253 C   0  0  0  0  0  0  0  0  0  0  0  0
    2.4341   -3.1799   -0.5786 C   0  0  0  0  0  0  0  0  0  0  0  0
    1.4232   -2.3561   -0.1237 C   0  0  0  0  0  0  0  0  0  0  0  0
    1.3551   -1.0032   -0.3717 C   0  0  0  0  0  0  0  0  0  0  0  0
    0.4007   -0.1362    0.0386 O   0  0  0  0  0  0  0  0  0  0  0  0
   -0.7506   -0.3621    0.8086 C   0  0  0  0  0  0  0  0  0  0  0  0
   -0.7281    0.3098    2.1011 C   0  0  0  0  0  0  0  0  0  0  0  0
   -1.7525    1.1273    2.4966 C   0  0  0  0  0  0  0  0  0  0  0  0
   -1.6629    1.7250    3.7590 C   0  0  0  0  0  0  0  0  0  0  0  0
   -0.5905    1.5157    4.5970 C   0  0  0  0  0  0  0  0  0  0  0  0
    0.4501    0.6890    4.2011 C   0  0  0  0  0  0  0  0  0  0  0  0
    0.3593    0.1037    2.9618 C   0  0  0  0  0  0  0  0  0  0  0  0
   -1.9565   -0.1486   -0.0193 C   0  0  0  0  0  0  0  0  0  0  0  0
   -1.9612   -1.0412   -1.2499 C   0  0  0  0  0  0  0  0  0  0  0  0
   -2.8715   -0.4728   -2.1965 N   0  0  0  0  0  0  0  0  0  0  0  0
   -4.1826   -0.3821   -1.5911 C   0  0  0  0  0  0  0  0  0  0  0  0
   -4.1583    0.1757   -0.2087 C   0  0  0  0  0  0  0  0  0  0  0  0
   -3.1762   -0.3784    0.6089 O   0  0  0  0  0  0  0  0  0  0  0  0
    4.2003    3.2659   -2.9282 H   0  0  0  0  0  0  0  0  0  0  0  0
    2.3703    3.0799   -2.9931 H   0  0  0  0  0  0  0  0  0  0  0  0
    3.2736    3.3786   -1.4192 H   0  0  0  0  0  0  0  0  0  0  0  0
    3.4274    0.8873   -3.2102 H   0  0  0  0  0  0  0  0  0  0  0  0
    4.4425    1.1927   -1.7175 H   0  0  0  0  0  0  0  0  0  0  0  0
    4.2303   -0.8859   -2.1931 H   0  0  0  0  0  0  0  0  0  0  0  0
    4.2434   -3.2749   -1.6887 H   0  0  0  0  0  0  0  0  0  0  0  0
    2.4403   -4.2574   -0.3507 H   0  0  0  0  0  0  0  0  0  0  0  0
    0.6499   -2.8201    0.4587 H   0  0  0  0  0  0  0  0  0  0  0  0
   -0.7276   -1.4738    1.0427 H   0  0  0  0  0  0  0  0  0  0  0  0
   -2.6257    1.3649    1.9236 H   0  0  0  0  0  0  0  0  0  0  0  0
   -2.4896    2.3793    4.0672 H   0  0  0  0  0  0  0  0  0  0  0  0
   -0.5448    1.9916    5.5726 H   0  0  0  0  0  0  0  0  0  0  0  0
    1.2765    0.5454    4.8815 H   0  0  0  0  0  0  0  0  0  0  0  0
    1.1804   -0.5425    2.6614 H   0  0  0  0  0  0  0  0  0  0  0  0
   -1.9808    0.9386   -0.3213 H   0  0  0  0  0  0  0  0  0  0  0  0
   -2.3530   -2.0383   -0.8928 H   0  0  0  0  0  0  0  0  0  0  0  0
   -0.9586   -1.2345   -1.6438 H   0  0  0  0  0  0  0  0  0  0  0  0
   -2.5068    0.4196   -2.5513 H   0  0  0  0  0  0  0  0  0  0  0  0
   -4.5953   -1.4285   -1.5771 H   0  0  0  0  0  0  0  0  0  0  0  0
   -4.8328    0.2490   -2.2164 H   0  0  0  0  0  0  0  0  0  0  0  0
   -4.0235    1.2892   -0.2564 H   0  0  0  0  0  0  0  0  0  0  0  0
   -5.1587    0.0193    0.2441 H   0  0  0  0  0  0  0  0  0  0  0  0
  1  2  1  0
  2  3  1  0
  3  4  1  0
  4  5  2  0
  5  6  1  0
  6  7  2  0
  7  8  1  0
  8  9  2  0
  9 10  1  0
 10 11  1  0
 11 12  1  0
 12 13  2  0
 13 14  1  0
 14 15  2  0
 15 16  1  0
 16 17  2  0
 11 18  1  0
 18 19  1  0
 19 20  1  0
 20 21  1  0
 21 22  1  0
 22 23  1  0
  9  4  1  0
 17 12  1  0
 23 18  1  0
  1 24  1  0
  1 25  1  0
  1 26  1  0
  2 27  1  0
  2 28  1  0
  5 29  1  0
  6 30  1  0
  7 31  1  0
  8 32  1  0
 11 33  1  0
 13 34  1  0
 14 35  1  0
 15 36  1  0
 16 37  1  0
 17 38  1  0
 18 39  1  0
 19 40  1  0
 19 41  1  0
 20 42  1  0
 21 43  1  0
 21 44  1  0
 22 45  1  0
 22 46  1  0
M  END
$$$$
