@<TRIPOS>MOLECULE
*****
 46 48 0 0 0
SMALL
GASTEIGER

@<TRIPOS>ATOM
      1 C           3.2772    2.8875   -2.4086 C.3     1  UNL1       -0.0307
      2 C           3.4730    1.4158   -2.2153 C.3     1  UNL1        0.0870
      3 O           2.4241    0.8725   -1.4424 O.3     1  UNL1       -0.4886
      4 C           2.3995   -0.4856   -1.1354 C.ar    1  UNL1        0.1619
      5 C           3.4179   -1.2944   -1.5981 C.ar    1  UNL1       -0.0163
      6 C           3.4389   -2.6267   -1.3253 C.ar    1  UNL1       -0.0581
      7 C           2.4341   -3.1799   -0.5786 C.ar    1  UNL1       -0.0581
      8 C           1.4232   -2.3561   -0.1237 C.ar    1  UNL1       -0.0163
      9 C           1.3551   -1.0032   -0.3717 C.ar    1  UNL1        0.1629
     10 O           0.4007   -0.1362    0.0386 O.3     1  UNL1       -0.4779
     11 C          -0.7506   -0.3621    0.8086 C.3     1  UNL1        0.1525
     12 C          -0.7281    0.3098    2.1011 C.ar    1  UNL1       -0.0048
     13 C          -1.7525    1.1273    2.4966 C.ar    1  UNL1       -0.0550
     14 C          -1.6629    1.7250    3.7590 C.ar    1  UNL1       -0.0614
     15 C          -0.5905    1.5157    4.5970 C.ar    1  UNL1       -0.0617
     16 C           0.4501    0.6890    4.2011 C.ar    1  UNL1       -0.0614
     17 C           0.3593    0.1037    2.9618 C.ar    1  UNL1       -0.0550
     18 C          -1.9565   -0.1486   -0.0193 C.3     1  UNL1        0.1120
     19 C          -1.9612   -1.0412   -1.2499 C.3     1  UNL1        0.0261
     20 N          -2.8715   -0.4728   -2.1965 N.3     1  UNL1       -0.3112
     21 C          -4.1826   -0.3821   -1.5911 C.3     1  UNL1        0.0195
     22 C          -4.1583    0.1757   -0.2087 C.3     1  UNL1        0.0607
     23 O          -3.1762   -0.3784    0.6089 O.3     1  UNL1       -0.3700
     24 H           4.2003    3.2659   -2.9282 H       1  UNL1        0.0262
     25 H           2.3703    3.0799   -2.9931 H       1  UNL1        0.0262
     26 H           3.2736    3.3786   -1.4192 H       1  UNL1        0.0262
     27 H           3.4274    0.8873   -3.2102 H       1  UNL1        0.0694
     28 H           4.4425    1.1927   -1.7175 H       1  UNL1        0.0694
     29 H           4.2303   -0.8859   -2.1931 H       1  UNL1        0.0655
     30 H           4.2434   -3.2749   -1.6887 H       1  UNL1        0.0619
     31 H           2.4403   -4.2574   -0.3507 H       1  UNL1        0.0619
     32 H           0.6499   -2.8201    0.4587 H       1  UNL1        0.0655
     33 H          -0.7276   -1.4738    1.0427 H       1  UNL1        0.0811
     34 H          -2.6257    1.3649    1.9236 H       1  UNL1        0.0621
     35 H          -2.4896    2.3793    4.0672 H       1  UNL1        0.0618
     36 H          -0.5448    1.9916    5.5726 H       1  UNL1        0.0618
     37 H           1.2765    0.5454    4.8815 H       1  UNL1        0.0618
     38 H           1.1804   -0.5425    2.6614 H       1  UNL1        0.0621
     39 H          -1.9808    0.9386   -0.3213 H       1  UNL1        0.0649
     40 H          -2.3530   -2.0383   -0.8928 H       1  UNL1        0.0451
     41 H          -0.9586   -1.2345   -1.6438 H       1  UNL1        0.0451
     42 H          -2.5068    0.4196   -2.5513 H       1  UNL1        0.1221
     43 H          -4.5953   -1.4285   -1.5771 H       1  UNL1        0.0446
     44 H          -4.8328    0.2490   -2.2164 H       1  UNL1        0.0446
     45 H          -4.0235    1.2892   -0.2564 H       1  UNL1        0.0573
     46 H          -5.1587    0.0193    0.2441 H       1  UNL1        0.0573
@<TRIPOS>BOND
     1     1     2    1
     2     2     3    1
     3     3     4    1
     4     4     5   ar
     5     5     6   ar
     6     6     7   ar
     7     7     8   ar
     8     8     9   ar
     9     9    10    1
    10    10    11    1
    11    11    12    1
    12    12    13   ar
    13    13    14   ar
    14    14    15   ar
    15    15    16   ar
    16    16    17   ar
    17    11    18    1
    18    18    19    1
    19    19    20    1
    20    20    21    1
    21    21    22    1
    22    22    23    1
    23     9     4   ar
    24    17    12   ar
    25    23    18    1
    26     1    24    1
    27     1    25    1
    28     1    26    1
    29     2    27    1
    30     2    28    1
    31     5    29    1
    32     6    30    1
    33     7    31    1
    34     8    32    1
    35    11    33    1
    36    13    34    1
    37    14    35    1
    38    15    36    1
    39    16    37    1
    40    17    38    1
    41    18    39    1
    42    19    40    1
    43    19    41    1
    44    20    42    1
    45    21    43    1
    46    21    44    1
    47    22    45    1
    48    22    46    1
