@<TRIPOS>MOLECULE
*****
 53 56 0 0 0
SMALL
GASTEIGER

@<TRIPOS>ATOM
      1 C           9.0718   -0.2178   -1.5992 C.3     1  UNL1       -0.0244
      2 C           7.7998   -0.1046   -0.8315 C.ar    1  UNL1        0.0140
      3 C           6.5407   -0.3614   -1.3111 C.ar    1  UNL1       -0.0308
      4 C           5.6626   -0.1338   -0.2791 C.ar    1  UNL1        0.0387
      5 C           4.2763   -0.2201   -0.1469 C.ar    1  UNL1        0.1746
      6 F           3.5689   -0.6055   -1.2264 F       1  UNL1       -0.2009
      7 C           3.6157    0.0698    1.0282 C.ar    1  UNL1        0.1662
      8 O           2.2308   -0.0319    1.1081 O.3     1  UNL1       -0.4332
      9 C           1.4719    0.7576    0.2575 C.ar    1  UNL1        0.2483
     10 N           2.0397    1.6058   -0.6288 N.ar    1  UNL1       -0.1975
     11 C           1.2390    2.3392   -1.4208 C.ar    1  UNL1        0.1405
     12 N          -0.0945    2.2305   -1.3326 N.ar    1  UNL1       -0.1546
     13 N          -0.6693    1.3925   -0.4573 N.ar    1  UNL1       -0.2294
     14 C          -1.9590    1.1027   -0.1762 C.ar    1  UNL1        0.0719
     15 C          -2.0569    0.1595    0.8191 C.ar    1  UNL1        0.1438
     16 O          -3.1336   -0.4388    1.4330 O.3     1  UNL1       -0.4865
     17 C          -4.4684   -0.2277    1.1652 C.3     1  UNL1        0.1262
     18 C          -4.9549   -0.5790   -0.1992 C.3     1  UNL1        0.1341
     19 C          -4.8019   -2.0532   -0.5090 C.3     1  UNL1       -0.0244
     20 O          -6.3530   -0.3058   -0.3253 O.3     1  UNL1       -0.4573
     21 C          -6.8610    0.5522   -1.2908 C.2     1  UNL1        0.3213
     22 O          -6.0309    1.0926   -2.0676 O.2     1  UNL1       -0.2494
     23 C          -8.3007    0.8398   -1.4281 C.3     1  UNL1        0.0920
     24 N          -9.0519    0.1048   -0.4272 N.3     1  UNL1       -0.3209
     25 C          -0.7130   -0.1245    1.1469 C.ar    1  UNL1        0.0233
     26 C          -0.2889   -1.1010    2.1887 C.3     1  UNL1       -0.0340
     27 C           0.0970    0.6456    0.3484 C.ar    1  UNL1        0.1336
     28 C           4.3929    0.4605    2.1043 C.ar    1  UNL1       -0.0144
     29 C           5.7537    0.5654    2.0426 C.ar    1  UNL1       -0.0341
     30 C           6.3812    0.2656    0.8441 C.ar    1  UNL1        0.0497
     31 N           7.6656    0.2649    0.4510 N.ar    1  UNL1       -0.3581
     32 H           8.9605   -1.0391   -2.3404 H       1  UNL1        0.0292
     33 H           9.9056   -0.3570   -0.9094 H       1  UNL1        0.0292
     34 H           9.2073    0.7205   -2.1988 H       1  UNL1        0.0292
     35 H           6.2556   -0.6801   -2.2951 H       1  UNL1        0.0642
     36 H           1.7176    3.0250   -2.1369 H       1  UNL1        0.1066
     37 H          -2.7928    1.5759   -0.6803 H       1  UNL1        0.0868
     38 H          -5.1104   -0.8058    1.8998 H       1  UNL1        0.0734
     39 H          -4.7473    0.8462    1.3997 H       1  UNL1        0.0734
     40 H          -4.4578    0.0069   -0.9824 H       1  UNL1        0.0765
     41 H          -3.9748   -2.5312    0.0169 H       1  UNL1        0.0266
     42 H          -4.6225   -2.1555   -1.5989 H       1  UNL1        0.0266
     43 H          -5.7465   -2.6146   -0.3073 H       1  UNL1        0.0266
     44 H          -8.6811    0.6201   -2.4472 H       1  UNL1        0.0537
     45 H          -8.5263    1.9264   -1.2558 H       1  UNL1        0.0537
     46 H          -8.5183   -0.7744   -0.2298 H       1  UNL1        0.1187
     47 H          -9.1898    0.6415    0.4471 H       1  UNL1        0.1187
     48 H           0.0076   -2.0576    1.7117 H       1  UNL1        0.0279
     49 H           0.6112   -0.7266    2.7371 H       1  UNL1        0.0279
     50 H          -1.1130   -1.2821    2.9170 H       1  UNL1        0.0279
     51 H           3.8933    0.6890    3.0241 H       1  UNL1        0.0656
     52 H           6.3864    0.8677    2.8656 H       1  UNL1        0.0639
     53 H           8.4662    0.5258    1.0838 H       1  UNL1        0.1656
@<TRIPOS>BOND
     1     1     2    1
     2     2     3   ar
     3     3     4   ar
     4     4     5   ar
     5     5     6    1
     6     5     7   ar
     7     7     8    1
     8     8     9    1
     9     9    10   ar
    10    10    11   ar
    11    11    12   ar
    12    12    13   ar
    13    13    14   ar
    14    14    15   ar
    15    15    16    1
    16    16    17    1
    17    17    18    1
    18    18    19    1
    19    18    20    1
    20    20    21    1
    21    21    22    2
    22    21    23    1
    23    23    24    1
    24    15    25   ar
    25    25    26    1
    26    25    27   ar
    27     7    28   ar
    28    28    29   ar
    29    29    30   ar
    30    30    31   ar
    31    31     2   ar
    32    30     4   ar
    33    27     9   ar
    34    27    13   ar
    35     1    32    1
    36     1    33    1
    37     1    34    1
    38     3    35    1
    39    11    36    1
    40    14    37    1
    41    17    38    1
    42    17    39    1
    43    18    40    1
    44    19    41    1
    45    19    42    1
    46    19    43    1
    47    23    44    1
    48    23    45    1
    49    24    46    1
    50    24    47    1
    51    26    48    1
    52    26    49    1
    53    26    50    1
    54    28    51    1
    55    29    52    1
    56    31    53    1
