
     RDKit          3D

 53 56  0  0  0  0  0  0  0  0999 V2000
    9.0718   -0.2178   -1.5992 C   0  0  0  0  0  0  0  0  0  0  0  0
    7.7998   -0.1046   -0.8315 C   0  0  0  0  0  0  0  0  0  0  0  0
    6.5407   -0.3614   -1.3111 C   0  0  0  0  0  0  0  0  0  0  0  0
    5.6626   -0.1338   -0.2791 C   0  0  0  0  0  0  0  0  0  0  0  0
    4.2763   -0.2201   -0.1469 C   0  0  0  0  0  0  0  0  0  0  0  0
    3.5689   -0.6055   -1.2264 F   0  0  0  0  0  0  0  0  0  0  0  0
    3.6157    0.0698    1.0282 C   0  0  0  0  0  0  0  0  0  0  0  0
    2.2308   -0.0319    1.1081 O   0  0  0  0  0  0  0  0  0  0  0  0
    1.4719    0.7576    0.2575 C   0  0  0  0  0  0  0  0  0  0  0  0
    2.0397    1.6058   -0.6288 N   0  0  0  0  0  0  0  0  0  0  0  0
    1.2390    2.3392   -1.4208 C   0  0  0  0  0  0  0  0  0  0  0  0
   -0.0945    2.2305   -1.3326 N   0  0  0  0  0  0  0  0  0  0  0  0
   -0.6693    1.3925   -0.4573 N   0  0  0  0  0  0  0  0  0  0  0  0
   -1.9590    1.1027   -0.1762 C   0  0  0  0  0  0  0  0  0  0  0  0
   -2.0569    0.1595    0.8191 C   0  0  0  0  0  0  0  0  0  0  0  0
   -3.1336   -0.4388    1.4330 O   0  0  0  0  0  0  0  0  0  0  0  0
   -4.4684   -0.2277    1.1652 C   0  0  0  0  0  0  0  0  0  0  0  0
   -4.9549   -0.5790   -0.1992 C   0  0  1  0  0  0  0  0  0  0  0  0
   -4.8019   -2.0532   -0.5090 C   0  0  0  0  0  0  0  0  0  0  0  0
   -6.3530   -0.3058   -0.3253 O   0  0  0  0  0  0  0  0  0  0  0  0
   -6.8610    0.5522   -1.2908 C   0  0  0  0  0  0  0  0  0  0  0  0
   -6.0309    1.0926   -2.0676 O   0  0  0  0  0  0  0  0  0  0  0  0
   -8.3007    0.8398   -1.4281 C   0  0  0  0  0  0  0  0  0  0  0  0
   -9.0519    0.1048   -0.4272 N   0  0  0  0  0  0  0  0  0  0  0  0
   -0.7130   -0.1245    1.1469 C   0  0  0  0  0  0  0  0  0  0  0  0
   -0.2889   -1.1010    2.1887 C   0  0  0  0  0  0  0  0  0  0  0  0
    0.0970    0.6456    0.3484 C   0  0  0  0  0  0  0  0  0  0  0  0
    4.3929    0.4605    2.1043 C   0  0  0  0  0  0  0  0  0  0  0  0
    5.7537    0.5654    2.0426 C   0  0  0  0  0  0  0  0  0  0  0  0
    6.3812    0.2656    0.8441 C   0  0  0  0  0  0  0  0  0  0  0  0
    7.6656    0.2649    0.4510 N   0  0  0  0  0  0  0  0  0  0  0  0
    8.9605   -1.0391   -2.3404 H   0  0  0  0  0  0  0  0  0  0  0  0
    9.9056   -0.3570   -0.9094 H   0  0  0  0  0  0  0  0  0  0  0  0
    9.2073    0.7205   -2.1988 H   0  0  0  0  0  0  0  0  0  0  0  0
    6.2556   -0.6801   -2.2951 H   0  0  0  0  0  0  0  0  0  0  0  0
    1.7176    3.0250   -2.1369 H   0  0  0  0  0  0  0  0  0  0  0  0
   -2.7928    1.5759   -0.6803 H   0  0  0  0  0  0  0  0  0  0  0  0
   -5.1104   -0.8058    1.8998 H   0  0  0  0  0  0  0  0  0  0  0  0
   -4.7473    0.8462    1.3997 H   0  0  0  0  0  0  0  0  0  0  0  0
   -4.4578    0.0069   -0.9824 H   0  0  0  0  0  0  0  0  0  0  0  0
   -3.9748   -2.5312    0.0169 H   0  0  0  0  0  0  0  0  0  0  0  0
   -4.6225   -2.1555   -1.5989 H   0  0  0  0  0  0  0  0  0  0  0  0
   -5.7465   -2.6146   -0.3073 H   0  0  0  0  0  0  0  0  0  0  0  0
   -8.6811    0.6201   -2.4472 H   0  0  0  0  0  0  0  0  0  0  0  0
   -8.5263    1.9264   -1.2558 H   0  0  0  0  0  0  0  0  0  0  0  0
   -8.5183   -0.7744   -0.2298 H   0  0  0  0  0  0  0  0  0  0  0  0
   -9.1898    0.6415    0.4471 H   0  0  0  0  0  0  0  0  0  0  0  0
    0.0076   -2.0576    1.7117 H   0  0  0  0  0  0  0  0  0  0  0  0
    0.6112   -0.7266    2.7371 H   0  0  0  0  0  0  0  0  0  0  0  0
   -1.1130   -1.2821    2.9170 H   0  0  0  0  0  0  0  0  0  0  0  0
    3.8933    0.6890    3.0241 H   0  0  0  0  0  0  0  0  0  0  0  0
    6.3864    0.8677    2.8656 H   0  0  0  0  0  0  0  0  0  0  0  0
    8.4662    0.5258    1.0838 H   0  0  0  0  0  0  0  0  0  0  0  0
  1  2  1  0
  2  3  2  0
  3  4  1  0
  4  5  2  0
  5  6  1  0
  5  7  1  0
  7  8  1  0
  8  9  1  0
  9 10  2  0
 10 11  1  0
 11 12  2  0
 12 13  1  0
 13 14  1  0
 14 15  2  0
 15 16  1  0
 16 17  1  0
 17 18  1  0
 18 19  1  0
 18 20  1  0
 20 21  1  0
 21 22  2  0
 21 23  1  0
 23 24  1  0
 15 25  1  0
 25 26  1  0
 25 27  2  0
  7 28  2  0
 28 29  1  0
 29 30  2  0
 30 31  1  0
 31  2  1  0
 30  4  1  0
 27  9  1  0
 27 13  1  0
  1 32  1  0
  1 33  1  0
  1 34  1  0
  3 35  1  0
 11 36  1  0
 14 37  1  0
 17 38  1  0
 17 39  1  0
 18 40  1  6
 19 41  1  0
 19 42  1  0
 19 43  1  0
 23 44  1  0
 23 45  1  0
 24 46  1  0
 24 47  1  0
 26 48  1  0
 26 49  1  0
 26 50  1  0
 28 51  1  0
 29 52  1  0
 31 53  1  0
M  END
$$$$
