@<TRIPOS>MOLECULE
*****
 63 64 0 0 0
SMALL
GASTEIGER

@<TRIPOS>ATOM
      1 C          -2.4402    0.2969    0.0478 C.3     1  UNL1        0.1033
      2 C          -3.3241    0.9950   -0.9465 C.3     1  UNL1       -0.0007
      3 C          -4.6295    1.4442   -0.4436 C.ar    1  UNL1       -0.0451
      4 C          -4.7542    2.6862    0.1616 C.ar    1  UNL1       -0.0585
      5 C          -5.9015    3.2617    0.6671 C.ar    1  UNL1       -0.0615
      6 C          -7.0566    2.5138    0.5568 C.ar    1  UNL1       -0.0617
      7 C          -7.0175    1.2717   -0.0308 C.ar    1  UNL1       -0.0615
      8 C          -5.8423    0.7471   -0.5183 C.ar    1  UNL1       -0.0585
      9 N          -1.1803   -0.0886   -0.6266 N.am    1  UNL1       -0.3034
     10 C           0.1626    0.4235   -0.4400 C.2     1  UNL1        0.2175
     11 O          -0.0237    1.2875    0.4540 O.2     1  UNL1       -0.2755
     12 C           1.1198   -0.2491   -1.3302 C.3     1  UNL1        0.0477
     13 C           1.2494   -1.6779   -1.0978 C.3     1  UNL1       -0.0388
     14 C           1.6919   -2.2749    0.1627 C.3     1  UNL1       -0.0460
     15 C           1.6616   -3.8064   -0.1132 C.3     1  UNL1       -0.0626
     16 C           0.8358   -2.1146    1.3675 C.3     1  UNL1       -0.0626
     17 C           2.3516    0.5674   -1.5627 C.3     1  UNL1        0.0578
     18 C           3.3303   -0.1084   -2.4622 C.3     1  UNL1        0.0107
     19 S           4.8135    0.8133   -2.8598 S.3     1  UNL1       -0.1174
     20 C           5.9274    1.1332   -1.5542 C.ar    1  UNL1        0.0450
     21 C           6.3887    1.9438   -0.5547 C.ar    1  UNL1       -0.0412
     22 C           7.4318    1.5987    0.2394 C.ar    1  UNL1       -0.0537
     23 C           8.0735    0.3257    0.0136 C.ar    1  UNL1       -0.0233
     24 S           7.0578   -0.3484   -1.4398 S.2     1  UNL1       -0.0904
     25 C           2.9224    1.1792   -0.3505 C.2     1  UNL1        0.2400
     26 O           3.7842    0.3550    0.0597 O.2     1  UNL1       -0.2734
     27 N           2.7039    2.3952    0.3598 N.am    1  UNL1       -0.1972
     28 O           3.5209    2.4191    1.4166 O.3     1  UNL1       -0.2952
     29 C          -3.0250   -0.8479    0.7344 C.2     1  UNL1        0.2334
     30 O          -2.1841   -1.7080    0.2948 O.2     1  UNL1       -0.2738
     31 N          -4.0798   -1.1692    1.5931 N.am    1  UNL1       -0.3168
     32 C          -4.0393   -2.6105    1.8691 C.3     1  UNL1        0.0001
     33 H          -2.1583    1.0614    0.7994 H       1  UNL1        0.0598
     34 H          -3.4067    0.4391   -1.9082 H       1  UNL1        0.0336
     35 H          -2.7629    1.9309   -1.2371 H       1  UNL1        0.0336
     36 H          -3.8439    3.2739    0.2475 H       1  UNL1        0.0620
     37 H          -5.8590    4.2439    1.1167 H       1  UNL1        0.0618
     38 H          -7.9858    2.9085    0.9328 H       1  UNL1        0.0618
     39 H          -7.9099    0.6583   -0.1329 H       1  UNL1        0.0618
     40 H          -5.7682   -0.2418   -0.9951 H       1  UNL1        0.0620
     41 H          -1.5350   -0.8454   -1.2888 H       1  UNL1        0.1495
     42 H           0.6108   -0.1918   -2.3654 H       1  UNL1        0.0402
     43 H           0.2330   -2.1401   -1.3147 H       1  UNL1        0.0275
     44 H           1.8783   -2.1670   -1.9084 H       1  UNL1        0.0275
     45 H           2.7912   -2.1502    0.3958 H       1  UNL1        0.0296
     46 H           2.0693   -4.0106   -1.1120 H       1  UNL1        0.0232
     47 H           0.6032   -4.1462   -0.1073 H       1  UNL1        0.0232
     48 H           2.2004   -4.3556    0.6696 H       1  UNL1        0.0232
     49 H           1.5258   -2.2074    2.2579 H       1  UNL1        0.0232
     50 H           0.1053   -2.9386    1.5165 H       1  UNL1        0.0232
     51 H           0.2882   -1.1909    1.4838 H       1  UNL1        0.0232
     52 H           1.9927    1.4612   -2.1737 H       1  UNL1        0.0410
     53 H           3.7176   -0.9950   -1.8585 H       1  UNL1        0.0387
     54 H           2.8573   -0.5024   -3.3911 H       1  UNL1        0.0387
     55 H           5.7656    2.8163   -0.5805 H       1  UNL1        0.0634
     56 H           7.7204    2.3052    0.9993 H       1  UNL1        0.0623
     57 H           8.9231    0.0627    0.6728 H       1  UNL1        0.0694
     58 H           1.9730    2.9590   -0.1273 H       1  UNL1        0.1822
     59 H           3.0406    2.5267    2.2554 H       1  UNL1        0.2414
     60 H          -4.5795   -0.3000    1.7909 H       1  UNL1        0.1484
     61 H          -3.0485   -2.8892    2.2854 H       1  UNL1        0.0426
     62 H          -4.1546   -3.1493    0.9182 H       1  UNL1        0.0426
     63 H          -4.8127   -2.8798    2.6015 H       1  UNL1        0.0426
@<TRIPOS>BOND
     1     1     2    1
     2     2     3    1
     3     3     4   ar
     4     4     5   ar
     5     5     6   ar
     6     6     7   ar
     7     7     8   ar
     8     1     9    1
     9     9    10   am
    10    10    11    2
    11    10    12    1
    12    12    13    1
    13    13    14    1
    14    14    15    1
    15    14    16    1
    16    12    17    1
    17    17    18    1
    18    18    19    1
    19    19    20    1
    20    20    21   ar
    21    21    22   ar
    22    22    23   ar
    23    23    24   ar
    24    17    25    1
    25    25    26    2
    26    25    27   am
    27    27    28    1
    28     1    29    1
    29    29    30    2
    30    29    31   am
    31    31    32    1
    32     8     3   ar
    33    24    20   ar
    34     1    33    1
    35     2    34    1
    36     2    35    1
    37     4    36    1
    38     5    37    1
    39     6    38    1
    40     7    39    1
    41     8    40    1
    42     9    41    1
    43    12    42    1
    44    13    43    1
    45    13    44    1
    46    14    45    1
    47    15    46    1
    48    15    47    1
    49    15    48    1
    50    16    49    1
    51    16    50    1
    52    16    51    1
    53    17    52    1
    54    18    53    1
    55    18    54    1
    56    21    55    1
    57    22    56    1
    58    23    57    1
    59    27    58    1
    60    28    59    1
    61    31    60    1
    62    32    61    1
    63    32    62    1
    64    32    63    1
