@<TRIPOS>MOLECULE
*****
 47 49 0 0 0
SMALL
GASTEIGER

@<TRIPOS>ATOM
      1 C           1.0849   -4.2912    0.3054 C.3     1  UNL1       -0.0641
      2 C           1.1441   -3.0102   -0.4612 C.3     1  UNL1       -0.0430
      3 C           0.5556   -1.8470    0.3559 C.3     1  UNL1       -0.0011
      4 N           0.5983   -0.6307   -0.3337 N.3     1  UNL1       -0.2988
      5 C           1.8485   -0.0034   -0.5607 C.3     1  UNL1        0.0036
      6 C           2.5025    0.5233    0.6901 C.3     1  UNL1       -0.0086
      7 C           3.7752    1.2041    0.2940 C.ar    1  UNL1       -0.0090
      8 C           5.0419    0.8569    0.1710 C.ar    1  UNL1       -0.0515
      9 C           5.9799    1.7790   -0.2022 C.ar    1  UNL1       -0.0545
     10 C           5.5545    3.0701   -0.4428 C.ar    1  UNL1       -0.0241
     11 S           3.7232    2.9250   -0.1119 S.2     1  UNL1       -0.1016
     12 C          -0.5734    0.1460   -0.4518 C.3     1  UNL1        0.0147
     13 C          -1.6603   -0.6526   -1.1698 C.3     1  UNL1       -0.0329
     14 C          -2.7035    0.3596   -1.6207 C.3     1  UNL1       -0.0225
     15 C          -3.3999    0.8008   -0.3928 C.ar    1  UNL1       -0.0027
     16 C          -4.7394    1.0282   -0.3756 C.ar    1  UNL1        0.1203
     17 O          -5.5194    0.8536   -1.5215 O.3     1  UNL1       -0.5065
     18 C          -5.3081    1.4415    0.8282 C.ar    1  UNL1       -0.0199
     19 C          -4.5126    1.6063    1.9572 C.ar    1  UNL1       -0.0580
     20 C          -3.1586    1.3647    1.9041 C.ar    1  UNL1       -0.0580
     21 C          -2.5810    0.9512    0.7012 C.ar    1  UNL1       -0.0393
     22 C          -1.1182    0.7273    0.8056 C.3     1  UNL1       -0.0116
     23 H           2.0703   -4.7522    0.4451 H       1  UNL1        0.0230
     24 H           0.4374   -5.0236   -0.2311 H       1  UNL1        0.0230
     25 H           0.6266   -4.1375    1.3306 H       1  UNL1        0.0230
     26 H           0.5146   -3.1417   -1.3921 H       1  UNL1        0.0275
     27 H           2.1778   -2.8012   -0.7638 H       1  UNL1        0.0275
     28 H          -0.4726   -2.1634    0.6282 H       1  UNL1        0.0426
     29 H           1.1293   -1.8585    1.3157 H       1  UNL1        0.0426
     30 H           2.5822   -0.6498   -1.0815 H       1  UNL1        0.0430
     31 H           1.6689    0.8721   -1.2295 H       1  UNL1        0.0430
     32 H           1.8731    1.2642    1.2003 H       1  UNL1        0.0331
     33 H           2.8332   -0.2978    1.3640 H       1  UNL1        0.0331
     34 H           5.3232   -0.1860    0.3735 H       1  UNL1        0.0626
     35 H           7.0406    1.5952   -0.3220 H       1  UNL1        0.0623
     36 H           6.1359    3.9397   -0.7445 H       1  UNL1        0.0693
     37 H          -0.3509    0.9980   -1.1568 H       1  UNL1        0.0466
     38 H          -2.1721   -1.3731   -0.4978 H       1  UNL1        0.0284
     39 H          -1.2381   -1.1365   -2.0733 H       1  UNL1        0.0284
     40 H          -3.4005   -0.0783   -2.3590 H       1  UNL1        0.0315
     41 H          -2.1380    1.2271   -2.0245 H       1  UNL1        0.0315
     42 H          -5.5220    1.6209   -2.2003 H       1  UNL1        0.2921
     43 H          -6.3700    1.6367    0.8814 H       1  UNL1        0.0654
     44 H          -5.0350    1.9292    2.8568 H       1  UNL1        0.0619
     45 H          -2.6726    1.5320    2.8526 H       1  UNL1        0.0620
     46 H          -0.6673    1.7356    1.0180 H       1  UNL1        0.0328
     47 H          -0.9083    0.0464    1.6319 H       1  UNL1        0.0328
@<TRIPOS>BOND
     1     1     2    1
     2     2     3    1
     3     3     4    1
     4     4     5    1
     5     5     6    1
     6     6     7    1
     7     7     8   ar
     8     8     9   ar
     9     9    10   ar
    10    10    11   ar
    11     4    12    1
    12    12    13    1
    13    13    14    1
    14    14    15    1
    15    15    16   ar
    16    16    17    1
    17    16    18   ar
    18    18    19   ar
    19    19    20   ar
    20    20    21   ar
    21    21    22    1
    22    11     7   ar
    23    22    12    1
    24    21    15   ar
    25     1    23    1
    26     1    24    1
    27     1    25    1
    28     2    26    1
    29     2    27    1
    30     3    28    1
    31     3    29    1
    32     5    30    1
    33     5    31    1
    34     6    32    1
    35     6    33    1
    36     8    34    1
    37     9    35    1
    38    10    36    1
    39    12    37    1
    40    13    38    1
    41    13    39    1
    42    14    40    1
    43    14    41    1
    44    17    42    1
    45    18    43    1
    46    19    44    1
    47    20    45    1
    48    22    46    1
    49    22    47    1
