@<TRIPOS>MOLECULE
*****
 46 47 0 0 0
SMALL
GASTEIGER

@<TRIPOS>ATOM
      1 C           4.4094    4.6551    0.2806 C.2     1  UNL1       -0.0938
      2 C           4.8168    3.4141    0.4166 C.2     1  UNL1       -0.0066
      3 C           3.8227    2.3516    0.4046 C.2     1  UNL1        0.2405
      4 O           2.5994    2.5966    0.2684 O.2     1  UNL1       -0.2705
      5 N           4.2158    1.0147    0.5468 N.am    1  UNL1       -0.2820
      6 C           3.3086   -0.0884    0.5462 C.ar    1  UNL1        0.0338
      7 C           2.9575   -0.7420   -0.6164 C.ar    1  UNL1       -0.0386
      8 C           2.0781   -1.8121   -0.6217 C.ar    1  UNL1       -0.0336
      9 C           1.5102   -2.2727    0.5556 C.ar    1  UNL1        0.1056
     10 S           0.4166   -3.6083    0.5242 S.O2    1  UNL1        0.0609
     11 O           0.7093   -4.5850   -0.5792 O.2     1  UNL1       -0.1528
     12 O           0.4466   -4.4056    1.8206 O.2     1  UNL1       -0.1528
     13 N          -1.2394   -3.1169    0.3147 N.3     1  UNL1       -0.1736
     14 C          -1.5570   -2.2918    1.4603 C.3     1  UNL1        0.0364
     15 C          -2.9223   -1.6494    1.3448 C.3     1  UNL1        0.0323
     16 N          -2.9454   -0.9149    0.1099 N.am    1  UNL1       -0.2649
     17 C          -3.2754    0.4533    0.1127 C.2     1  UNL1        0.4029
     18 O          -3.5537    1.0560    1.1818 O.2     1  UNL1       -0.2263
     19 O          -3.3140    1.2157   -1.0514 O.3     1  UNL1       -0.4505
     20 C          -3.6497    2.5945   -1.0232 C.3     1  UNL1        0.0913
     21 C          -3.5880    3.0836   -2.4642 C.3     1  UNL1       -0.0305
     22 C          -2.6217   -1.6407   -1.0858 C.3     1  UNL1        0.0323
     23 C          -1.3461   -2.4339   -0.9285 C.3     1  UNL1        0.0364
     24 C           1.8698   -1.6100    1.7125 C.ar    1  UNL1       -0.0336
     25 C           2.7444   -0.5455    1.7190 C.ar    1  UNL1       -0.0386
     26 H           3.3729    4.8975    0.1625 H       1  UNL1        0.0536
     27 H           5.1297    5.4502    0.2873 H       1  UNL1        0.0536
     28 H           5.8614    3.1659    0.5359 H       1  UNL1        0.0663
     29 H           5.2499    0.8148    0.6614 H       1  UNL1        0.1551
     30 H           3.4026   -0.3808   -1.5391 H       1  UNL1        0.0637
     31 H           1.8225   -2.3062   -1.5619 H       1  UNL1        0.0638
     32 H          -1.5497   -2.8568    2.4058 H       1  UNL1        0.0459
     33 H          -0.8171   -1.4729    1.5612 H       1  UNL1        0.0459
     34 H          -3.0229   -0.9609    2.1982 H       1  UNL1        0.0479
     35 H          -3.7355   -2.4189    1.3831 H       1  UNL1        0.0479
     36 H          -2.9307    3.1613   -0.4085 H       1  UNL1        0.0695
     37 H          -4.6913    2.7455   -0.6604 H       1  UNL1        0.0695
     38 H          -4.4718    3.6917   -2.7261 H       1  UNL1        0.0262
     39 H          -2.6880    3.7338   -2.5858 H       1  UNL1        0.0262
     40 H          -3.4899    2.2637   -3.1860 H       1  UNL1        0.0262
     41 H          -2.6407   -1.0252   -1.9795 H       1  UNL1        0.0479
     42 H          -3.4403   -2.4088   -1.2169 H       1  UNL1        0.0479
     43 H          -0.5080   -1.6983   -0.9941 H       1  UNL1        0.0459
     44 H          -1.2119   -3.1374   -1.7726 H       1  UNL1        0.0459
     45 H           1.4335   -1.9591    2.6414 H       1  UNL1        0.0638
     46 H           3.0326   -0.0175    2.6295 H       1  UNL1        0.0637
@<TRIPOS>BOND
     1     1     2    2
     2     2     3    1
     3     3     4    2
     4     3     5   am
     5     5     6    1
     6     6     7   ar
     7     7     8   ar
     8     8     9   ar
     9     9    10    1
    10    10    11    2
    11    10    12    2
    12    10    13    1
    13    13    14    1
    14    14    15    1
    15    15    16    1
    16    16    17   am
    17    17    18    2
    18    17    19    1
    19    19    20    1
    20    20    21    1
    21    16    22    1
    22    22    23    1
    23     9    24   ar
    24    24    25   ar
    25    25     6   ar
    26    23    13    1
    27     1    26    1
    28     1    27    1
    29     2    28    1
    30     5    29    1
    31     7    30    1
    32     8    31    1
    33    14    32    1
    34    14    33    1
    35    15    34    1
    36    15    35    1
    37    20    36    1
    38    20    37    1
    39    21    38    1
    40    21    39    1
    41    21    40    1
    42    22    41    1
    43    22    42    1
    44    23    43    1
    45    23    44    1
    46    24    45    1
    47    25    46    1
