
     RDKit          3D

 46 47  0  0  0  0  0  0  0  0999 V2000
    4.4094    4.6551    0.2806 C   0  0  0  0  0  0  0  0  0  0  0  0
    4.8168    3.4141    0.4166 C   0  0  0  0  0  0  0  0  0  0  0  0
    3.8227    2.3516    0.4046 C   0  0  0  0  0  0  0  0  0  0  0  0
    2.5994    2.5966    0.2684 O   0  0  0  0  0  0  0  0  0  0  0  0
    4.2158    1.0147    0.5468 N   0  0  0  0  0  0  0  0  0  0  0  0
    3.3086   -0.0884    0.5462 C   0  0  0  0  0  0  0  0  0  0  0  0
    2.9575   -0.7420   -0.6164 C   0  0  0  0  0  0  0  0  0  0  0  0
    2.0781   -1.8121   -0.6217 C   0  0  0  0  0  0  0  0  0  0  0  0
    1.5102   -2.2727    0.5556 C   0  0  0  0  0  0  0  0  0  0  0  0
    0.4166   -3.6083    0.5242 S   0  0  0  0  0  6  0  0  0  0  0  0
    0.7093   -4.5850   -0.5792 O   0  0  0  0  0  0  0  0  0  0  0  0
    0.4466   -4.4056    1.8206 O   0  0  0  0  0  0  0  0  0  0  0  0
   -1.2394   -3.1169    0.3147 N   0  0  0  0  0  0  0  0  0  0  0  0
   -1.5570   -2.2918    1.4603 C   0  0  0  0  0  0  0  0  0  0  0  0
   -2.9223   -1.6494    1.3448 C   0  0  0  0  0  0  0  0  0  0  0  0
   -2.9454   -0.9149    0.1099 N   0  0  0  0  0  0  0  0  0  0  0  0
   -3.2754    0.4533    0.1127 C   0  0  0  0  0  0  0  0  0  0  0  0
   -3.5537    1.0560    1.1818 O   0  0  0  0  0  0  0  0  0  0  0  0
   -3.3140    1.2157   -1.0514 O   0  0  0  0  0  0  0  0  0  0  0  0
   -3.6497    2.5945   -1.0232 C   0  0  0  0  0  0  0  0  0  0  0  0
   -3.5880    3.0836   -2.4642 C   0  0  0  0  0  0  0  0  0  0  0  0
   -2.6217   -1.6407   -1.0858 C   0  0  0  0  0  0  0  0  0  0  0  0
   -1.3461   -2.4339   -0.9285 C   0  0  0  0  0  0  0  0  0  0  0  0
    1.8698   -1.6100    1.7125 C   0  0  0  0  0  0  0  0  0  0  0  0
    2.7444   -0.5455    1.7190 C   0  0  0  0  0  0  0  0  0  0  0  0
    3.3729    4.8975    0.1625 H   0  0  0  0  0  0  0  0  0  0  0  0
    5.1297    5.4502    0.2873 H   0  0  0  0  0  0  0  0  0  0  0  0
    5.8614    3.1659    0.5359 H   0  0  0  0  0  0  0  0  0  0  0  0
    5.2499    0.8148    0.6614 H   0  0  0  0  0  0  0  0  0  0  0  0
    3.4026   -0.3808   -1.5391 H   0  0  0  0  0  0  0  0  0  0  0  0
    1.8225   -2.3062   -1.5619 H   0  0  0  0  0  0  0  0  0  0  0  0
   -1.5497   -2.8568    2.4058 H   0  0  0  0  0  0  0  0  0  0  0  0
   -0.8171   -1.4729    1.5612 H   0  0  0  0  0  0  0  0  0  0  0  0
   -3.0229   -0.9609    2.1982 H   0  0  0  0  0  0  0  0  0  0  0  0
   -3.7355   -2.4189    1.3831 H   0  0  0  0  0  0  0  0  0  0  0  0
   -2.9307    3.1613   -0.4085 H   0  0  0  0  0  0  0  0  0  0  0  0
   -4.6913    2.7455   -0.6604 H   0  0  0  0  0  0  0  0  0  0  0  0
   -4.4718    3.6917   -2.7261 H   0  0  0  0  0  0  0  0  0  0  0  0
   -2.6880    3.7338   -2.5858 H   0  0  0  0  0  0  0  0  0  0  0  0
   -3.4899    2.2637   -3.1860 H   0  0  0  0  0  0  0  0  0  0  0  0
   -2.6407   -1.0252   -1.9795 H   0  0  0  0  0  0  0  0  0  0  0  0
   -3.4403   -2.4088   -1.2169 H   0  0  0  0  0  0  0  0  0  0  0  0
   -0.5080   -1.6983   -0.9941 H   0  0  0  0  0  0  0  0  0  0  0  0
   -1.2119   -3.1374   -1.7726 H   0  0  0  0  0  0  0  0  0  0  0  0
    1.4335   -1.9591    2.6414 H   0  0  0  0  0  0  0  0  0  0  0  0
    3.0326   -0.0175    2.6295 H   0  0  0  0  0  0  0  0  0  0  0  0
  1  2  2  3
  2  3  1  0
  3  4  2  0
  3  5  1  0
  5  6  1  0
  6  7  2  0
  7  8  1  0
  8  9  2  0
  9 10  1  0
 10 11  2  0
 10 12  2  0
 10 13  1  0
 13 14  1  0
 14 15  1  0
 15 16  1  0
 16 17  1  0
 17 18  2  0
 17 19  1  0
 19 20  1  0
 20 21  1  0
 16 22  1  0
 22 23  1  0
  9 24  1  0
 24 25  2  0
 25  6  1  0
 23 13  1  0
  1 26  1  0
  1 27  1  0
  2 28  1  0
  5 29  1  0
  7 30  1  0
  8 31  1  0
 14 32  1  0
 14 33  1  0
 15 34  1  0
 15 35  1  0
 20 36  1  0
 20 37  1  0
 21 38  1  0
 21 39  1  0
 21 40  1  0
 22 41  1  0
 22 42  1  0
 23 43  1  0
 23 44  1  0
 24 45  1  0
 25 46  1  0
M  END
$$$$
