@<TRIPOS>MOLECULE
*****
 60 64 0 0 0
SMALL
GASTEIGER

@<TRIPOS>ATOM
      1 C          -3.5464    4.2048    2.2386 C.3     1  UNL1       -0.0443
      2 C          -4.6461    3.3795    1.6415 C.3     1  UNL1        0.0466
      3 C          -5.4175    2.7682    2.8202 C.3     1  UNL1        0.0660
      4 O          -6.2917    1.7921    2.3987 O.3     1  UNL1       -0.3764
      5 C          -6.4913    1.8313    1.0239 C.3     1  UNL1        0.0635
      6 C          -5.2140    1.4152    0.2795 C.3     1  UNL1        0.0385
      7 N          -4.1533    2.2825    0.8252 N.am    1  UNL1       -0.2932
      8 C          -2.7872    2.0721    0.5575 C.2     1  UNL1        0.2328
      9 O          -1.8645    2.7341    0.9537 O.2     1  UNL1       -0.2740
     10 C          -2.4638    0.8777   -0.3281 C.3     1  UNL1        0.1054
     11 C          -2.7519   -0.4946    0.2620 C.3     1  UNL1       -0.0220
     12 C          -1.3891   -0.0671   -0.0871 C.3     1  UNL1        0.0135
     13 C          -0.6449   -0.5330   -1.2894 C.3     1  UNL1        0.0950
     14 C          -0.0826    0.6987   -2.0064 C.3     1  UNL1       -0.0351
     15 C           0.4091   -1.5078   -1.0201 C.ar    1  UNL1        0.0349
     16 C           1.7734   -1.3162   -1.0561 C.ar    1  UNL1       -0.0433
     17 C           2.6901   -2.3336   -0.7322 C.ar    1  UNL1       -0.0036
     18 C           4.0884   -2.0381   -0.6569 C.2     1  UNL1       -0.0157
     19 C           5.0739   -2.5767   -0.0535 C.2     1  UNL1        0.1492
     20 F           4.8191   -3.6921    0.7024 F       1  UNL1       -0.2032
     21 C           6.4313   -2.0634   -0.0694 C.ar    1  UNL1        0.0990
     22 C           7.3805   -2.7663    0.7733 C.ar    1  UNL1       -0.0322
     23 C           8.6097   -2.2623    0.8035 C.ar    1  UNL1       -0.0408
     24 C           9.1065   -1.1694    0.1492 C.ar    1  UNL1        0.0699
     25 C          10.3817   -0.6628    0.3211 C.1     1  UNL1        0.1007
     26 N          11.5392   -0.2256    0.4796 N.1     1  UNL1       -0.1908
     27 C           8.1220   -0.5304   -0.6658 C.ar    1  UNL1        0.0457
     28 N           6.8670   -0.9956   -0.7343 N.ar    1  UNL1       -0.2514
     29 C           2.1960   -3.6114   -0.3530 C.ar    1  UNL1        0.0379
     30 N           0.8878   -3.7133   -0.3392 N.ar    1  UNL1       -0.2267
     31 C          -0.0070   -2.8013   -0.6270 C.ar    1  UNL1        0.2187
     32 F          -1.3321   -3.0027   -0.5688 F       1  UNL1       -0.1835
     33 N          -1.5319   -1.1885   -2.3059 N.2     1  UNL1       -0.2520
     34 C          -2.5572   -0.6477   -2.7614 C.2     1  UNL1        0.1485
     35 N          -3.4765   -1.1102   -3.6861 N.pl3   1  UNL1       -0.3380
     36 S          -2.9646    1.0230   -2.0643 S.3     1  UNL1       -0.0746
     37 H          -2.8389    3.5874    2.8588 H       1  UNL1        0.0248
     38 H          -2.9971    4.7685    1.4519 H       1  UNL1        0.0248
     39 H          -4.0199    4.9688    2.9032 H       1  UNL1        0.0248
     40 H          -5.3247    4.0587    1.0772 H       1  UNL1        0.0520
     41 H          -4.6398    2.4025    3.5236 H       1  UNL1        0.0578
     42 H          -5.9995    3.5714    3.2949 H       1  UNL1        0.0578
     43 H          -7.2329    1.0490    0.7789 H       1  UNL1        0.0575
     44 H          -6.8287    2.8037    0.6436 H       1  UNL1        0.0575
     45 H          -5.0539    0.3708    0.5206 H       1  UNL1        0.0487
     46 H          -5.3780    1.6155   -0.7952 H       1  UNL1        0.0487
     47 H          -3.0417   -0.5189    1.3502 H       1  UNL1        0.0287
     48 H          -3.3002   -1.2283   -0.3601 H       1  UNL1        0.0287
     49 H          -0.7145    0.1256    0.8074 H       1  UNL1        0.0346
     50 H           0.9272    0.9094   -1.7608 H       1  UNL1        0.0256
     51 H          -0.3056    0.6439   -3.1191 H       1  UNL1        0.0256
     52 H          -0.6615    1.6358   -1.6973 H       1  UNL1        0.0256
     53 H           2.1767   -0.3815   -1.3357 H       1  UNL1        0.0629
     54 H           4.4100   -1.1207   -1.2535 H       1  UNL1        0.0653
     55 H           7.0655   -3.6222    1.3128 H       1  UNL1        0.0640
     56 H           9.3856   -2.7929    1.4669 H       1  UNL1        0.0631
     57 H           8.4495    0.3274   -1.2112 H       1  UNL1        0.0843
     58 H           2.9086   -4.3572   -0.1375 H       1  UNL1        0.0836
     59 H          -4.4239   -1.3950   -3.2880 H       1  UNL1        0.1442
     60 H          -3.3240   -1.1910   -4.6936 H       1  UNL1        0.1442
@<TRIPOS>BOND
     1     1     2    1
     2     2     3    1
     3     3     4    1
     4     4     5    1
     5     5     6    1
     6     6     7    1
     7     7     8   am
     8     8     9    2
     9    10     8    1
    10    10    11    1
    11    11    12    1
    12    12    13    1
    13    13    14    1
    14    13    15    1
    15    15    16   ar
    16    16    17   ar
    17    17    18    1
    18    18    19    2
    19    19    20    1
    20    19    21    1
    21    21    22   ar
    22    22    23   ar
    23    23    24   ar
    24    24    25    1
    25    25    26    3
    26    24    27   ar
    27    27    28   ar
    28    17    29   ar
    29    29    30   ar
    30    30    31   ar
    31    31    32    1
    32    13    33    1
    33    33    34    2
    34    34    35    1
    35    34    36    1
    36     7     2    1
    37    12    10    1
    38    31    15   ar
    39    36    10    1
    40    28    21   ar
    41     1    37    1
    42     1    38    1
    43     1    39    1
    44     2    40    1
    45     3    41    1
    46     3    42    1
    47     5    43    1
    48     5    44    1
    49     6    45    1
    50     6    46    1
    51    11    47    1
    52    11    48    1
    53    12    49    1
    54    14    50    1
    55    14    51    1
    56    14    52    1
    57    16    53    1
    58    18    54    1
    59    22    55    1
    60    23    56    1
    61    27    57    1
    62    29    58    1
    63    35    59    1
    64    35    60    1
