@<TRIPOS>MOLECULE
*****
 51 53 0 0 0
SMALL
GASTEIGER

@<TRIPOS>ATOM
      1 C           1.0631    0.3413   -2.6178 C.3     1  UNL1       -0.0421
      2 C           1.3511   -0.5382   -1.4018 C.3     1  UNL1        0.0515
      3 C           2.6866   -0.1864   -0.9072 C.ar    1  UNL1       -0.0269
      4 C           3.7066   -1.1241   -1.0164 C.ar    1  UNL1       -0.0534
      5 C           5.0079   -0.8775   -0.5975 C.ar    1  UNL1       -0.0194
      6 C           5.3619    0.3285   -0.0427 C.ar    1  UNL1        0.1269
      7 O           6.6350    0.6381    0.3941 O.3     1  UNL1       -0.4342
      8 C           7.7705   -0.1672    0.3668 C.3     1  UNL1        0.3893
      9 F           8.3773   -0.2515    1.6137 F       1  UNL1       -0.1663
     10 F           8.7667    0.3795   -0.4619 F       1  UNL1       -0.1663
     11 C           4.3368    1.2779    0.0694 C.ar    1  UNL1       -0.0194
     12 C           3.0496    1.0151   -0.3527 C.ar    1  UNL1       -0.0534
     13 N           0.2799   -0.4793   -0.4529 N.am    1  UNL1       -0.2605
     14 C          -0.1080    0.6977    0.2983 C.3     1  UNL1        0.0224
     15 C          -1.4211    0.5304    0.9864 C.3     1  UNL1        0.0075
     16 C          -2.4150   -0.3133    0.2362 C.3     1  UNL1        0.1435
     17 C          -2.7309    0.2320   -1.1094 C.3     1  UNL1        0.0148
     18 C          -3.3365    1.5842   -1.1724 C.3     1  UNL1        0.0482
     19 O          -2.5669    2.5993   -0.6336 O.3     1  UNL1       -0.3949
     20 C          -3.6131   -0.5425    1.0665 C.ar    1  UNL1       -0.0039
     21 C          -3.7166   -0.0052    2.3206 C.ar    1  UNL1       -0.0521
     22 C          -4.8376   -0.2122    3.1165 C.ar    1  UNL1       -0.0261
     23 C          -5.8731   -0.9747    2.6393 C.ar    1  UNL1        0.1234
     24 F          -7.0005   -1.2049    3.3907 F       1  UNL1       -0.2055
     25 C          -5.7765   -1.5216    1.3722 C.ar    1  UNL1       -0.0261
     26 C          -4.6397   -1.3046    0.5803 C.ar    1  UNL1       -0.0521
     27 O          -1.8698   -1.6310    0.0117 O.3     1  UNL1       -0.4388
     28 C          -0.4936   -1.6763   -0.2120 C.2     1  UNL1        0.4042
     29 O           0.1464   -2.7849   -0.2139 O.2     1  UNL1       -0.2262
     30 H           0.3259   -0.1944   -3.2512 H       1  UNL1        0.0251
     31 H           0.7350    1.3519   -2.3308 H       1  UNL1        0.0251
     32 H           2.0155    0.3656   -3.2153 H       1  UNL1        0.0251
     33 H           1.4036   -1.5705   -1.8218 H       1  UNL1        0.0549
     34 H           3.4934   -2.1079   -1.4503 H       1  UNL1        0.0622
     35 H           5.7754   -1.6575   -0.7086 H       1  UNL1        0.0654
     36 H           7.5634   -1.1618   -0.0553 H       1  UNL1        0.1520
     37 H           4.5881    2.2217    0.4972 H       1  UNL1        0.0654
     38 H           2.2761    1.7817   -0.2660 H       1  UNL1        0.0622
     39 H          -0.0638    1.6169   -0.3287 H       1  UNL1        0.0467
     40 H           0.6460    0.8734    1.1265 H       1  UNL1        0.0467
     41 H          -1.2021   -0.0361    1.9372 H       1  UNL1        0.0322
     42 H          -1.8724    1.4846    1.2508 H       1  UNL1        0.0322
     43 H          -1.7463    0.2962   -1.6610 H       1  UNL1        0.0329
     44 H          -3.3012   -0.5318   -1.6792 H       1  UNL1        0.0329
     45 H          -3.4245    1.8390   -2.2717 H       1  UNL1        0.0558
     46 H          -4.3487    1.6452   -0.7167 H       1  UNL1        0.0558
     47 H          -1.9561    3.0120   -1.3125 H       1  UNL1        0.2094
     48 H          -2.9283    0.6161    2.7668 H       1  UNL1        0.0622
     49 H          -4.9088    0.2124    4.0954 H       1  UNL1        0.0646
     50 H          -6.5709   -2.1222    0.9727 H       1  UNL1        0.0646
     51 H          -4.6397   -1.7630   -0.3928 H       1  UNL1        0.0622
@<TRIPOS>BOND
     1     1     2    1
     2     2     3    1
     3     3     4   ar
     4     4     5   ar
     5     5     6   ar
     6     6     7    1
     7     7     8    1
     8     8     9    1
     9     8    10    1
    10     6    11   ar
    11    11    12   ar
    12     2    13    1
    13    13    14    1
    14    14    15    1
    15    15    16    1
    16    16    17    1
    17    17    18    1
    18    18    19    1
    19    16    20    1
    20    20    21   ar
    21    21    22   ar
    22    22    23   ar
    23    23    24    1
    24    23    25   ar
    25    25    26   ar
    26    16    27    1
    27    27    28    1
    28    28    29    2
    29    12     3   ar
    30    28    13   am
    31    26    20   ar
    32     1    30    1
    33     1    31    1
    34     1    32    1
    35     2    33    1
    36     4    34    1
    37     5    35    1
    38     8    36    1
    39    11    37    1
    40    12    38    1
    41    14    39    1
    42    14    40    1
    43    15    41    1
    44    15    42    1
    45    17    43    1
    46    17    44    1
    47    18    45    1
    48    18    46    1
    49    19    47    1
    50    21    48    1
    51    22    49    1
    52    25    50    1
    53    26    51    1
