
     RDKit          3D

 59 61  0  0  0  0  0  0  0  0999 V2000
    6.7536   -0.5218   -2.2210 C   0  0  0  0  0  0  0  0  0  0  0  0
    6.5532   -1.3706   -0.9920 C   0  0  0  0  0  0  0  0  0  0  0  0
    6.4154   -0.4957    0.2599 C   0  0  2  0  0  0  0  0  0  0  0  0
    7.6139    0.3264    0.4738 C   0  0  0  0  0  0  0  0  0  0  0  0
    7.5413    1.5756    0.4583 O   0  0  0  0  0  0  0  0  0  0  0  0
    8.8476   -0.2596    0.6968 O   0  0  0  0  0  0  0  0  0  0  0  0
    6.2477   -1.4658    1.4162 C   0  0  0  0  0  0  0  0  0  0  0  0
    5.3444   -0.8738    2.5046 C   0  0  0  0  0  0  0  0  0  0  0  0
    4.0368   -0.5613    1.8733 C   0  0  0  0  0  0  0  0  0  0  0  0
    2.8175   -0.8236    2.4581 C   0  0  0  0  0  0  0  0  0  0  0  0
    1.6198   -0.5181    1.8376 C   0  0  0  0  0  0  0  0  0  0  0  0
    1.6075    0.0700    0.5903 C   0  0  0  0  0  0  0  0  0  0  0  0
    0.3926    0.3640   -0.0052 O   0  0  0  0  0  0  0  0  0  0  0  0
    0.2493    0.9563   -1.2581 C   0  0  0  0  0  0  0  0  0  0  0  0
   -1.2595    1.0966   -1.5214 C   0  0  0  0  0  0  0  0  0  0  0  0
   -1.8232    1.9519   -0.4447 C   0  0  0  0  0  0  0  0  0  0  0  0
   -3.1616    2.2054   -0.4864 O   0  0  0  0  0  0  0  0  0  0  0  0
   -4.2492    1.4076   -0.3817 C   0  0  0  0  0  0  0  0  0  0  0  0
   -4.2268    0.0532   -0.1697 C   0  0  0  0  0  0  0  0  0  0  0  0
   -5.4029   -0.6464   -0.0797 C   0  0  0  0  0  0  0  0  0  0  0  0
   -6.6277   -0.0317   -0.1949 C   0  0  0  0  0  0  0  0  0  0  0  0
   -7.8544   -0.8308   -0.0903 C   0  0  0  0  0  0  0  0  0  0  0  0
   -8.6565   -0.3689    1.1186 C   0  0  0  0  0  0  0  0  0  0  0  0
   -8.7274   -0.6463   -1.3327 C   0  0  0  0  0  0  0  0  0  0  0  0
   -6.6397    1.3340   -0.4076 C   0  0  0  0  0  0  0  0  0  0  0  0
   -5.4967    2.0614   -0.5029 C   0  0  0  0  0  0  0  0  0  0  0  0
   -5.5795    3.7904   -0.7732 Cl  0  0  0  0  0  0  0  0  0  0  0  0
    2.8258    0.3348    0.0004 C   0  0  0  0  0  0  0  0  0  0  0  0
    4.0233    0.0319    0.6151 C   0  0  0  0  0  0  0  0  0  0  0  0
    5.2537    0.2851    0.0497 O   0  0  0  0  0  0  0  0  0  0  0  0
    7.2181   -1.0991   -3.0289 H   0  0  0  0  0  0  0  0  0  0  0  0
    5.7556   -0.1733   -2.6174 H   0  0  0  0  0  0  0  0  0  0  0  0
    7.3203    0.4065   -1.9888 H   0  0  0  0  0  0  0  0  0  0  0  0
    7.3090   -2.1417   -0.8496 H   0  0  0  0  0  0  0  0  0  0  0  0
    5.5447   -1.8660   -1.1007 H   0  0  0  0  0  0  0  0  0  0  0  0
    9.7274    0.1870    0.4812 H   0  0  0  0  0  0  0  0  0  0  0  0
    7.2512   -1.7001    1.8248 H   0  0  0  0  0  0  0  0  0  0  0  0
    5.7157   -2.3676    1.0538 H   0  0  0  0  0  0  0  0  0  0  0  0
    5.2593   -1.6630    3.2790 H   0  0  0  0  0  0  0  0  0  0  0  0
    5.8146    0.0062    2.9630 H   0  0  0  0  0  0  0  0  0  0  0  0
    2.8458   -1.2910    3.4489 H   0  0  0  0  0  0  0  0  0  0  0  0
    0.6725   -0.7433    2.3373 H   0  0  0  0  0  0  0  0  0  0  0  0
    0.7335    1.9531   -1.3493 H   0  0  0  0  0  0  0  0  0  0  0  0
    0.6476    0.2579   -2.0447 H   0  0  0  0  0  0  0  0  0  0  0  0
   -1.7098    0.1114   -1.5592 H   0  0  0  0  0  0  0  0  0  0  0  0
   -1.4132    1.5481   -2.5334 H   0  0  0  0  0  0  0  0  0  0  0  0
   -1.1915    2.8945   -0.4240 H   0  0  0  0  0  0  0  0  0  0  0  0
   -1.6172    1.3920    0.5280 H   0  0  0  0  0  0  0  0  0  0  0  0
   -3.2814   -0.4817   -0.0525 H   0  0  0  0  0  0  0  0  0  0  0  0
   -5.3725   -1.7205    0.0880 H   0  0  0  0  0  0  0  0  0  0  0  0
   -7.6084   -1.8806    0.0766 H   0  0  0  0  0  0  0  0  0  0  0  0
   -9.2992    0.4973    0.8826 H   0  0  0  0  0  0  0  0  0  0  0  0
   -7.9261   -0.1328    1.9300 H   0  0  0  0  0  0  0  0  0  0  0  0
   -9.2746   -1.2166    1.4865 H   0  0  0  0  0  0  0  0  0  0  0  0
   -8.0654   -0.3066   -2.1711 H   0  0  0  0  0  0  0  0  0  0  0  0
   -9.1938   -1.6180   -1.5599 H   0  0  0  0  0  0  0  0  0  0  0  0
   -9.5097    0.1197   -1.1236 H   0  0  0  0  0  0  0  0  0  0  0  0
   -7.6138    1.8052   -0.4962 H   0  0  0  0  0  0  0  0  0  0  0  0
    2.8235    0.7929   -0.9714 H   0  0  0  0  0  0  0  0  0  0  0  0
  1  2  1  0
  3  2  1  6
  3  4  1  0
  4  5  2  0
  4  6  1  0
  3  7  1  0
  7  8  1  0
  8  9  1  0
  9 10  2  0
 10 11  1  0
 11 12  2  0
 12 13  1  0
 13 14  1  0
 14 15  1  0
 15 16  1  0
 16 17  1  0
 17 18  1  0
 18 19  2  0
 19 20  1  0
 20 21  2  0
 21 22  1  0
 22 23  1  0
 22 24  1  0
 21 25  1  0
 25 26  2  0
 26 27  1  0
 12 28  1  0
 28 29  2  0
 29 30  1  0
 30  3  1  0
 29  9  1  0
 26 18  1  0
  1 31  1  0
  1 32  1  0
  1 33  1  0
  2 34  1  0
  2 35  1  0
  6 36  1  0
  7 37  1  0
  7 38  1  0
  8 39  1  0
  8 40  1  0
 10 41  1  0
 11 42  1  0
 14 43  1  0
 14 44  1  0
 15 45  1  0
 15 46  1  0
 16 47  1  0
 16 48  1  0
 19 49  1  0
 20 50  1  0
 22 51  1  0
 23 52  1  0
 23 53  1  0
 23 54  1  0
 24 55  1  0
 24 56  1  0
 24 57  1  0
 25 58  1  0
 28 59  1  0
M  END
$$$$
