@<TRIPOS>MOLECULE
*****
 59 61 0 0 0
SMALL
GASTEIGER

@<TRIPOS>ATOM
      1 C           6.7536   -0.5218   -2.2210 C.3     1  UNL1       -0.0611
      2 C           6.5532   -1.3706   -0.9920 C.3     1  UNL1       -0.0051
      3 C           6.4154   -0.4957    0.2599 C.3     1  UNL1        0.2059
      4 C           7.6139    0.3264    0.4738 C.2     1  UNL1        0.3490
      5 O           7.5413    1.5756    0.4583 O.2     1  UNL1       -0.2465
      6 O           8.8476   -0.2596    0.6968 O.3     1  UNL1       -0.4778
      7 C           6.2477   -1.4658    1.4162 C.3     1  UNL1        0.0018
      8 C           5.3444   -0.8738    2.5046 C.3     1  UNL1       -0.0201
      9 C           4.0368   -0.5613    1.8733 C.ar    1  UNL1       -0.0053
     10 C           2.8175   -0.8236    2.4581 C.ar    1  UNL1       -0.0517
     11 C           1.6198   -0.5181    1.8376 C.ar    1  UNL1       -0.0195
     12 C           1.6075    0.0700    0.5903 C.ar    1  UNL1        0.1240
     13 O           0.3926    0.3640   -0.0052 O.3     1  UNL1       -0.4917
     14 C           0.2493    0.9563   -1.2581 C.3     1  UNL1        0.0927
     15 C          -1.2595    1.0966   -1.5214 C.3     1  UNL1        0.0157
     16 C          -1.8232    1.9519   -0.4447 C.3     1  UNL1        0.0927
     17 O          -3.1616    2.2054   -0.4864 O.3     1  UNL1       -0.4904
     18 C          -4.2492    1.4076   -0.3817 C.ar    1  UNL1        0.1387
     19 C          -4.2268    0.0532   -0.1697 C.ar    1  UNL1       -0.0182
     20 C          -5.4029   -0.6464   -0.0797 C.ar    1  UNL1       -0.0548
     21 C          -6.6277   -0.0317   -0.1949 C.ar    1  UNL1       -0.0432
     22 C          -7.8544   -0.8308   -0.0903 C.3     1  UNL1       -0.0215
     23 C          -8.6565   -0.3689    1.1186 C.3     1  UNL1       -0.0586
     24 C          -8.7274   -0.6463   -1.3327 C.3     1  UNL1       -0.0586
     25 C          -6.6397    1.3340   -0.4076 C.ar    1  UNL1       -0.0364
     26 C          -5.4967    2.0614   -0.5029 C.ar    1  UNL1        0.0828
     27 CL         -5.5795    3.7904   -0.7732 Cl      1  UNL1       -0.0797
     28 C           2.8258    0.3348    0.0004 C.ar    1  UNL1        0.0221
     29 C           4.0233    0.0319    0.6151 C.ar    1  UNL1        0.1287
     30 O           5.2537    0.2851    0.0497 O.3     1  UNL1       -0.4741
     31 H           7.2181   -1.0991   -3.0289 H       1  UNL1        0.0231
     32 H           5.7556   -0.1733   -2.6174 H       1  UNL1        0.0231
     33 H           7.3203    0.4065   -1.9888 H       1  UNL1        0.0231
     34 H           7.3090   -2.1417   -0.8496 H       1  UNL1        0.0307
     35 H           5.5447   -1.8660   -1.1007 H       1  UNL1        0.0307
     36 H           9.7274    0.1870    0.4812 H       1  UNL1        0.2952
     37 H           7.2512   -1.7001    1.8248 H       1  UNL1        0.0312
     38 H           5.7157   -2.3676    1.0538 H       1  UNL1        0.0312
     39 H           5.2593   -1.6630    3.2790 H       1  UNL1        0.0316
     40 H           5.8146    0.0062    2.9630 H       1  UNL1        0.0316
     41 H           2.8458   -1.2910    3.4489 H       1  UNL1        0.0623
     42 H           0.6725   -0.7433    2.3373 H       1  UNL1        0.0654
     43 H           0.7335    1.9531   -1.3493 H       1  UNL1        0.0697
     44 H           0.6476    0.2579   -2.0447 H       1  UNL1        0.0697
     45 H          -1.7098    0.1114   -1.5592 H       1  UNL1        0.0331
     46 H          -1.4132    1.5481   -2.5334 H       1  UNL1        0.0331
     47 H          -1.1915    2.8945   -0.4240 H       1  UNL1        0.0697
     48 H          -1.6172    1.3920    0.5280 H       1  UNL1        0.0697
     49 H          -3.2814   -0.4817   -0.0525 H       1  UNL1        0.0655
     50 H          -5.3725   -1.7205    0.0880 H       1  UNL1        0.0622
     51 H          -7.6084   -1.8806    0.0766 H       1  UNL1        0.0343
     52 H          -9.2992    0.4973    0.8826 H       1  UNL1        0.0235
     53 H          -7.9261   -0.1328    1.9300 H       1  UNL1        0.0235
     54 H          -9.2746   -1.2166    1.4865 H       1  UNL1        0.0235
     55 H          -8.0654   -0.3066   -2.1711 H       1  UNL1        0.0235
     56 H          -9.1938   -1.6180   -1.5599 H       1  UNL1        0.0235
     57 H          -9.5097    0.1197   -1.1236 H       1  UNL1        0.0235
     58 H          -7.6138    1.8052   -0.4962 H       1  UNL1        0.0636
     59 H           2.8235    0.7929   -0.9714 H       1  UNL1        0.0691
@<TRIPOS>BOND
     1     1     2    1
     2     3     2    1
     3     3     4    1
     4     4     5    2
     5     4     6    1
     6     3     7    1
     7     7     8    1
     8     8     9    1
     9     9    10   ar
    10    10    11   ar
    11    11    12   ar
    12    12    13    1
    13    13    14    1
    14    14    15    1
    15    15    16    1
    16    16    17    1
    17    17    18    1
    18    18    19   ar
    19    19    20   ar
    20    20    21   ar
    21    21    22    1
    22    22    23    1
    23    22    24    1
    24    21    25   ar
    25    25    26   ar
    26    26    27    1
    27    12    28   ar
    28    28    29   ar
    29    29    30    1
    30    30     3    1
    31    29     9   ar
    32    26    18   ar
    33     1    31    1
    34     1    32    1
    35     1    33    1
    36     2    34    1
    37     2    35    1
    38     6    36    1
    39     7    37    1
    40     7    38    1
    41     8    39    1
    42     8    40    1
    43    10    41    1
    44    11    42    1
    45    14    43    1
    46    14    44    1
    47    15    45    1
    48    15    46    1
    49    16    47    1
    50    16    48    1
    51    19    49    1
    52    20    50    1
    53    22    51    1
    54    23    52    1
    55    23    53    1
    56    23    54    1
    57    24    55    1
    58    24    56    1
    59    24    57    1
    60    25    58    1
    61    28    59    1
