@<TRIPOS>MOLECULE
*****
 56 59 0 0 0
SMALL
GASTEIGER

@<TRIPOS>ATOM
      1 C          -6.6809    3.7893    0.6187 C.3     1  UNL1       -0.0559
      2 C          -5.4680    4.1123    1.4315 C.3     1  UNL1       -0.0045
      3 S          -3.9395    3.5874    0.6210 S.3     1  UNL1       -0.1254
      4 C          -3.8278    1.8141    0.5110 C.ar    1  UNL1        0.0097
      5 C          -2.7672    1.1354   -0.0773 C.ar    1  UNL1       -0.0258
      6 C          -2.6660   -0.2353   -0.1640 C.ar    1  UNL1        0.0489
      7 C          -3.7421   -0.8721    0.4028 C.ar    1  UNL1        0.0342
      8 S          -3.7818   -2.6545    0.4051 S.3     1  UNL1       -0.0857
      9 C          -2.2954   -3.1796   -0.4319 C.ar    1  UNL1        0.0341
     10 C          -2.1786   -4.5337   -0.5465 C.ar    1  UNL1       -0.0462
     11 C          -1.0699   -5.0513   -1.1843 C.ar    1  UNL1       -0.0606
     12 C          -0.1290   -4.1716   -1.6780 C.ar    1  UNL1       -0.0599
     13 C          -0.3434   -2.8219   -1.5094 C.ar    1  UNL1       -0.0393
     14 C          -1.4165   -2.2273   -0.8873 C.ar    1  UNL1        0.0479
     15 N          -1.5456   -0.8233   -0.7837 N.pl3   1  UNL1       -0.2982
     16 C          -0.4447   -0.0725   -1.3009 C.3     1  UNL1        0.0185
     17 C           0.7542   -0.0834   -0.3760 C.3     1  UNL1       -0.0240
     18 C           1.9412    0.6835   -0.9233 C.3     1  UNL1        0.0004
     19 N           3.0664    0.6192    0.0271 N.3     1  UNL1       -0.2999
     20 C           3.5722   -0.6977    0.1061 C.3     1  UNL1        0.0117
     21 C           5.0347   -0.8839    0.1925 C.3     1  UNL1        0.0114
     22 N           5.8024    0.3199    0.3719 N.3     1  UNL1       -0.3029
     23 C           7.1958   -0.0109    0.1628 C.3     1  UNL1       -0.0127
     24 C           5.3609    1.3426   -0.5476 C.3     1  UNL1        0.0114
     25 C           3.9602    1.6943   -0.1580 C.3     1  UNL1        0.0117
     26 C          -4.8231   -0.2903    0.9997 C.ar    1  UNL1       -0.0451
     27 C          -4.8690    1.0839    1.0559 C.ar    1  UNL1       -0.0472
     28 H          -7.1064    4.7305    0.1653 H       1  UNL1        0.0238
     29 H          -7.5154    3.3778    1.2275 H       1  UNL1        0.0238
     30 H          -6.4098    3.1417   -0.2253 H       1  UNL1        0.0238
     31 H          -5.5796    3.6371    2.4384 H       1  UNL1        0.0377
     32 H          -5.4185    5.1991    1.5932 H       1  UNL1        0.0377
     33 H          -2.0479    1.8224   -0.4441 H       1  UNL1        0.0647
     34 H          -2.8879   -5.2453   -0.1763 H       1  UNL1        0.0629
     35 H          -0.9406   -6.1129   -1.2937 H       1  UNL1        0.0618
     36 H           0.7221   -4.6207   -2.1699 H       1  UNL1        0.0618
     37 H           0.4679   -2.2651   -1.9629 H       1  UNL1        0.0636
     38 H          -0.7341    0.9740   -1.4565 H       1  UNL1        0.0468
     39 H          -0.1453   -0.4229   -2.3313 H       1  UNL1        0.0468
     40 H           1.0649   -1.0806   -0.1171 H       1  UNL1        0.0293
     41 H           0.4245    0.5188    0.5136 H       1  UNL1        0.0293
     42 H           2.3168    0.2169   -1.8581 H       1  UNL1        0.0427
     43 H           1.6598    1.7184   -1.1594 H       1  UNL1        0.0427
     44 H           3.1537   -1.2858   -0.7547 H       1  UNL1        0.0439
     45 H           3.1249   -1.1750    1.0178 H       1  UNL1        0.0439
     46 H           5.3527   -1.6028    0.9758 H       1  UNL1        0.0439
     47 H           5.4111   -1.3385   -0.7612 H       1  UNL1        0.0439
     48 H           7.3527   -1.0902    0.4495 H       1  UNL1        0.0391
     49 H           7.3737    0.0056   -0.9412 H       1  UNL1        0.0391
     50 H           7.8946    0.6237    0.7363 H       1  UNL1        0.0391
     51 H           5.9869    2.2602   -0.3496 H       1  UNL1        0.0439
     52 H           5.4703    0.9758   -1.5891 H       1  UNL1        0.0439
     53 H           3.6201    2.4694   -0.8827 H       1  UNL1        0.0439
     54 H           4.0439    2.2402    0.8251 H       1  UNL1        0.0439
     55 H          -5.6472   -0.8318    1.4330 H       1  UNL1        0.0630
     56 H          -5.7071    1.5872    1.5212 H       1  UNL1        0.0629
@<TRIPOS>BOND
     1     1     2    1
     2     2     3    1
     3     3     4    1
     4     4     5   ar
     5     5     6   ar
     6     6     7   ar
     7     7     8    1
     8     8     9    1
     9     9    10   ar
    10    10    11   ar
    11    11    12   ar
    12    12    13   ar
    13    13    14   ar
    14    14    15    1
    15    15    16    1
    16    16    17    1
    17    17    18    1
    18    18    19    1
    19    19    20    1
    20    20    21    1
    21    21    22    1
    22    22    23    1
    23    22    24    1
    24    24    25    1
    25     7    26   ar
    26    26    27   ar
    27    27     4   ar
    28    15     6    1
    29    25    19    1
    30    14     9   ar
    31     1    28    1
    32     1    29    1
    33     1    30    1
    34     2    31    1
    35     2    32    1
    36     5    33    1
    37    10    34    1
    38    11    35    1
    39    12    36    1
    40    13    37    1
    41    16    38    1
    42    16    39    1
    43    17    40    1
    44    17    41    1
    45    18    42    1
    46    18    43    1
    47    20    44    1
    48    20    45    1
    49    21    46    1
    50    21    47    1
    51    23    48    1
    52    23    49    1
    53    23    50    1
    54    24    51    1
    55    24    52    1
    56    25    53    1
    57    25    54    1
    58    26    55    1
    59    27    56    1
