@<TRIPOS>MOLECULE
*****
 34 35 0 0 0
SMALL
GASTEIGER

@<TRIPOS>ATOM
      1 N           4.1984   -1.1689   -1.8191 N.am    1  UNL1       -0.3286
      2 C           4.0546   -0.6813   -0.4939 C.2     1  UNL1        0.2228
      3 O           5.0997   -0.0982   -0.1578 O.2     1  UNL1       -0.2750
      4 C           2.7749   -0.9207    0.2408 C.3     1  UNL1        0.1004
      5 S           1.7013    0.4820   -0.1182 S.O     1  UNL1        0.0429
      6 O           1.6315    0.6435   -1.6077 O.2     1  UNL1       -0.2558
      7 C           0.1410    0.3124    0.7031 C.3     1  UNL1        0.0851
      8 C          -0.5889   -0.9110    0.2904 C.ar    1  UNL1       -0.0277
      9 C          -1.3077   -1.6224    1.2336 C.ar    1  UNL1       -0.0571
     10 C          -2.0196   -2.7609    0.9782 C.ar    1  UNL1       -0.0615
     11 C          -2.0465   -3.2679   -0.3034 C.ar    1  UNL1       -0.0617
     12 C          -1.3367   -2.5808   -1.2766 C.ar    1  UNL1       -0.0615
     13 C          -0.6348   -1.4432   -0.9835 C.ar    1  UNL1       -0.0571
     14 C          -0.6748    1.5407    0.5712 C.ar    1  UNL1       -0.0277
     15 C          -1.4349    2.0098    1.6344 C.ar    1  UNL1       -0.0571
     16 C          -2.2338    3.1313    1.6439 C.ar    1  UNL1       -0.0615
     17 C          -2.2897    3.8711    0.4788 C.ar    1  UNL1       -0.0617
     18 C          -1.5608    3.4615   -0.6117 C.ar    1  UNL1       -0.0615
     19 C          -0.7777    2.3283   -0.5614 C.ar    1  UNL1       -0.0571
     20 H           4.1619   -2.2016   -1.9410 H       1  UNL1        0.1450
     21 H           4.3353   -0.5450   -2.6496 H       1  UNL1        0.1450
     22 H           2.9312   -1.0678    1.3191 H       1  UNL1        0.0496
     23 H           2.3291   -1.8353   -0.1793 H       1  UNL1        0.0496
     24 H           0.3560    0.2182    1.8016 H       1  UNL1        0.0535
     25 H          -1.3494   -1.3060    2.2691 H       1  UNL1        0.0621
     26 H          -2.5776   -3.3077    1.7258 H       1  UNL1        0.0618
     27 H          -2.5646   -4.1517   -0.6405 H       1  UNL1        0.0618
     28 H          -1.3137   -2.9222   -2.3049 H       1  UNL1        0.0618
     29 H          -0.0886   -0.9204   -1.7510 H       1  UNL1        0.0621
     30 H          -1.4148    1.4547    2.5627 H       1  UNL1        0.0621
     31 H          -2.7888    3.4214    2.5125 H       1  UNL1        0.0618
     32 H          -2.8893    4.7580    0.4064 H       1  UNL1        0.0618
     33 H          -1.6028    4.0484   -1.5419 H       1  UNL1        0.0618
     34 H          -0.2195    2.0319   -1.4301 H       1  UNL1        0.0621
@<TRIPOS>BOND
     1     1     2   am
     2     2     3    2
     3     2     4    1
     4     5     4    1
     5     5     6    2
     6     5     7    1
     7     7     8    1
     8     8     9   ar
     9     9    10   ar
    10    10    11   ar
    11    11    12   ar
    12    12    13   ar
    13     7    14    1
    14    14    15   ar
    15    15    16   ar
    16    16    17   ar
    17    17    18   ar
    18    18    19   ar
    19    13     8   ar
    20    19    14   ar
    21     1    20    1
    22     1    21    1
    23     4    22    1
    24     4    23    1
    25     7    24    1
    26     9    25    1
    27    10    26    1
    28    11    27    1
    29    12    28    1
    30    13    29    1
    31    15    30    1
    32    16    31    1
    33    17    32    1
    34    18    33    1
    35    19    34    1
