
     RDKit          3D

 34 35  0  0  0  0  0  0  0  0999 V2000
    4.1984   -1.1689   -1.8191 N   0  0  0  0  0  0  0  0  0  0  0  0
    4.0546   -0.6813   -0.4939 C   0  0  0  0  0  0  0  0  0  0  0  0
    5.0997   -0.0982   -0.1578 O   0  0  0  0  0  0  0  0  0  0  0  0
    2.7749   -0.9207    0.2408 C   0  0  0  0  0  0  0  0  0  0  0  0
    1.7013    0.4820   -0.1182 S   0  0  0  0  0  4  0  0  0  0  0  0
    1.6315    0.6435   -1.6077 O   0  0  0  0  0  0  0  0  0  0  0  0
    0.1410    0.3124    0.7031 C   0  0  0  0  0  0  0  0  0  0  0  0
   -0.5889   -0.9110    0.2904 C   0  0  0  0  0  0  0  0  0  0  0  0
   -1.3077   -1.6224    1.2336 C   0  0  0  0  0  0  0  0  0  0  0  0
   -2.0196   -2.7609    0.9782 C   0  0  0  0  0  0  0  0  0  0  0  0
   -2.0465   -3.2679   -0.3034 C   0  0  0  0  0  0  0  0  0  0  0  0
   -1.3367   -2.5808   -1.2766 C   0  0  0  0  0  0  0  0  0  0  0  0
   -0.6348   -1.4432   -0.9835 C   0  0  0  0  0  0  0  0  0  0  0  0
   -0.6748    1.5407    0.5712 C   0  0  0  0  0  0  0  0  0  0  0  0
   -1.4349    2.0098    1.6344 C   0  0  0  0  0  0  0  0  0  0  0  0
   -2.2338    3.1313    1.6439 C   0  0  0  0  0  0  0  0  0  0  0  0
   -2.2897    3.8711    0.4788 C   0  0  0  0  0  0  0  0  0  0  0  0
   -1.5608    3.4615   -0.6117 C   0  0  0  0  0  0  0  0  0  0  0  0
   -0.7777    2.3283   -0.5614 C   0  0  0  0  0  0  0  0  0  0  0  0
    4.1619   -2.2016   -1.9410 H   0  0  0  0  0  0  0  0  0  0  0  0
    4.3353   -0.5450   -2.6496 H   0  0  0  0  0  0  0  0  0  0  0  0
    2.9312   -1.0678    1.3191 H   0  0  0  0  0  0  0  0  0  0  0  0
    2.3291   -1.8353   -0.1793 H   0  0  0  0  0  0  0  0  0  0  0  0
    0.3560    0.2182    1.8016 H   0  0  0  0  0  0  0  0  0  0  0  0
   -1.3494   -1.3060    2.2691 H   0  0  0  0  0  0  0  0  0  0  0  0
   -2.5776   -3.3077    1.7258 H   0  0  0  0  0  0  0  0  0  0  0  0
   -2.5646   -4.1517   -0.6405 H   0  0  0  0  0  0  0  0  0  0  0  0
   -1.3137   -2.9222   -2.3049 H   0  0  0  0  0  0  0  0  0  0  0  0
   -0.0886   -0.9204   -1.7510 H   0  0  0  0  0  0  0  0  0  0  0  0
   -1.4148    1.4547    2.5627 H   0  0  0  0  0  0  0  0  0  0  0  0
   -2.7888    3.4214    2.5125 H   0  0  0  0  0  0  0  0  0  0  0  0
   -2.8893    4.7580    0.4064 H   0  0  0  0  0  0  0  0  0  0  0  0
   -1.6028    4.0484   -1.5419 H   0  0  0  0  0  0  0  0  0  0  0  0
   -0.2195    2.0319   -1.4301 H   0  0  0  0  0  0  0  0  0  0  0  0
  1  2  1  0
  2  3  2  0
  2  4  1  0
  5  4  1  6
  5  6  2  0
  5  7  1  0
  7  8  1  0
  8  9  2  0
  9 10  1  0
 10 11  2  0
 11 12  1  0
 12 13  2  0
  7 14  1  0
 14 15  2  0
 15 16  1  0
 16 17  2  0
 17 18  1  0
 18 19  2  0
 13  8  1  0
 19 14  1  0
  1 20  1  0
  1 21  1  0
  4 22  1  0
  4 23  1  0
  7 24  1  0
  9 25  1  0
 10 26  1  0
 11 27  1  0
 12 28  1  0
 13 29  1  0
 15 30  1  0
 16 31  1  0
 17 32  1  0
 18 33  1  0
 19 34  1  0
M  END
$$$$
