@<TRIPOS>MOLECULE
*****
 36 38 0 0 0
SMALL
GASTEIGER

@<TRIPOS>ATOM
      1 C           2.6268    3.6072   -0.1508 C.3     1  UNL1        0.0821
      2 O           1.8020    2.4800    0.0688 O.3     1  UNL1       -0.4622
      3 C           0.4617    2.5551   -0.1637 C.2     1  UNL1        0.3784
      4 O          -0.0184    3.6427   -0.5749 O.2     1  UNL1       -0.2413
      5 C          -0.4705    1.4464    0.0334 C.ar    1  UNL1        0.2555
      6 O          -1.7557    1.4313   -0.1626 O.2     1  UNL1       -0.4435
      7 C          -2.2685    0.2059    0.1361 C.ar    1  UNL1        0.1545
      8 C          -1.2044   -0.5304    0.5299 C.ar    1  UNL1        0.1018
      9 S          -1.9498   -2.1302    0.9080 S.2     1  UNL1       -0.0813
     10 C          -3.6127   -1.6614    0.5034 C.ar    1  UNL1        0.0236
     11 C          -4.7701   -2.3996    0.5509 C.ar    1  UNL1       -0.0473
     12 C          -5.9583   -1.8073    0.1823 C.ar    1  UNL1       -0.0607
     13 C          -5.9035   -0.5083   -0.2107 C.ar    1  UNL1       -0.0610
     14 C          -4.7420    0.2161   -0.2533 C.ar    1  UNL1       -0.0500
     15 C          -3.4976   -0.3643    0.1204 C.ar    1  UNL1        0.0322
     16 C          -0.0258    0.2175    0.4827 C.ar    1  UNL1        0.1980
     17 O           1.2378   -0.2329    0.8193 O.3     1  UNL1       -0.4204
     18 C           2.0573   -0.8111   -0.1388 C.2     1  UNL1        0.3151
     19 O           1.5808   -0.8969   -1.3169 O.2     1  UNL1       -0.2501
     20 C           3.4306   -1.3137    0.1726 C.3     1  UNL1        0.0512
     21 C           4.0259   -1.8727   -1.0942 C.3     1  UNL1       -0.0525
     22 C           4.3039   -0.2651    0.7853 C.3     1  UNL1       -0.0525
     23 H           3.6341    3.4796    0.3074 H       1  UNL1        0.0661
     24 H           2.1722    4.5158    0.3261 H       1  UNL1        0.0661
     25 H           2.7288    3.8300   -1.2193 H       1  UNL1        0.0661
     26 H          -4.6924   -3.4251    0.8800 H       1  UNL1        0.0629
     27 H          -6.8594   -2.3992    0.2246 H       1  UNL1        0.0618
     28 H          -6.8671   -0.0592   -0.4999 H       1  UNL1        0.0618
     29 H          -4.8304    1.2363   -0.5824 H       1  UNL1        0.0625
     30 H           3.3054   -2.1737    0.8920 H       1  UNL1        0.0408
     31 H           3.2273   -2.0681   -1.8385 H       1  UNL1        0.0237
     32 H           4.5631   -2.8282   -0.9349 H       1  UNL1        0.0237
     33 H           4.7003   -1.0975   -1.5479 H       1  UNL1        0.0237
     34 H           5.3086   -0.3381    0.2812 H       1  UNL1        0.0237
     35 H           4.4001   -0.4115    1.8781 H       1  UNL1        0.0237
     36 H           3.8602    0.7305    0.6062 H       1  UNL1        0.0237
@<TRIPOS>BOND
     1     1     2    1
     2     2     3    1
     3     3     4    2
     4     3     5    1
     5     5     6   ar
     6     6     7   ar
     7     7     8   ar
     8     8     9   ar
     9     9    10   ar
    10    10    11   ar
    11    11    12   ar
    12    12    13   ar
    13    13    14   ar
    14    14    15   ar
    15     8    16   ar
    16    16    17    1
    17    17    18    1
    18    18    19    2
    19    18    20    1
    20    20    21    1
    21    20    22    1
    22    16     5   ar
    23    15     7   ar
    24    15    10   ar
    25     1    23    1
    26     1    24    1
    27     1    25    1
    28    11    26    1
    29    12    27    1
    30    13    28    1
    31    14    29    1
    32    20    30    1
    33    21    31    1
    34    21    32    1
    35    21    33    1
    36    22    34    1
    37    22    35    1
    38    22    36    1
