
     RDKit          3D

 36 38  0  0  0  0  0  0  0  0999 V2000
    2.6268    3.6072   -0.1508 C   0  0  0  0  0  0  0  0  0  0  0  0
    1.8020    2.4800    0.0688 O   0  0  0  0  0  0  0  0  0  0  0  0
    0.4617    2.5551   -0.1637 C   0  0  0  0  0  0  0  0  0  0  0  0
   -0.0184    3.6427   -0.5749 O   0  0  0  0  0  0  0  0  0  0  0  0
   -0.4705    1.4464    0.0334 C   0  0  0  0  0  0  0  0  0  0  0  0
   -1.7557    1.4313   -0.1626 O   0  0  0  0  0  0  0  0  0  0  0  0
   -2.2685    0.2059    0.1361 C   0  0  0  0  0  0  0  0  0  0  0  0
   -1.2044   -0.5304    0.5299 C   0  0  0  0  0  0  0  0  0  0  0  0
   -1.9498   -2.1302    0.9080 S   0  0  0  0  0  0  0  0  0  0  0  0
   -3.6127   -1.6614    0.5034 C   0  0  0  0  0  0  0  0  0  0  0  0
   -4.7701   -2.3996    0.5509 C   0  0  0  0  0  0  0  0  0  0  0  0
   -5.9583   -1.8073    0.1823 C   0  0  0  0  0  0  0  0  0  0  0  0
   -5.9035   -0.5083   -0.2107 C   0  0  0  0  0  0  0  0  0  0  0  0
   -4.7420    0.2161   -0.2533 C   0  0  0  0  0  0  0  0  0  0  0  0
   -3.4976   -0.3643    0.1204 C   0  0  0  0  0  0  0  0  0  0  0  0
   -0.0258    0.2175    0.4827 C   0  0  0  0  0  0  0  0  0  0  0  0
    1.2378   -0.2329    0.8193 O   0  0  0  0  0  0  0  0  0  0  0  0
    2.0573   -0.8111   -0.1388 C   0  0  0  0  0  0  0  0  0  0  0  0
    1.5808   -0.8969   -1.3169 O   0  0  0  0  0  0  0  0  0  0  0  0
    3.4306   -1.3137    0.1726 C   0  0  0  0  0  0  0  0  0  0  0  0
    4.0259   -1.8727   -1.0942 C   0  0  0  0  0  0  0  0  0  0  0  0
    4.3039   -0.2651    0.7853 C   0  0  0  0  0  0  0  0  0  0  0  0
    3.6341    3.4796    0.3074 H   0  0  0  0  0  0  0  0  0  0  0  0
    2.1722    4.5158    0.3261 H   0  0  0  0  0  0  0  0  0  0  0  0
    2.7288    3.8300   -1.2193 H   0  0  0  0  0  0  0  0  0  0  0  0
   -4.6924   -3.4251    0.8800 H   0  0  0  0  0  0  0  0  0  0  0  0
   -6.8594   -2.3992    0.2246 H   0  0  0  0  0  0  0  0  0  0  0  0
   -6.8671   -0.0592   -0.4999 H   0  0  0  0  0  0  0  0  0  0  0  0
   -4.8304    1.2363   -0.5824 H   0  0  0  0  0  0  0  0  0  0  0  0
    3.3054   -2.1737    0.8920 H   0  0  0  0  0  0  0  0  0  0  0  0
    3.2273   -2.0681   -1.8385 H   0  0  0  0  0  0  0  0  0  0  0  0
    4.5631   -2.8282   -0.9349 H   0  0  0  0  0  0  0  0  0  0  0  0
    4.7003   -1.0975   -1.5479 H   0  0  0  0  0  0  0  0  0  0  0  0
    5.3086   -0.3381    0.2812 H   0  0  0  0  0  0  0  0  0  0  0  0
    4.4001   -0.4115    1.8781 H   0  0  0  0  0  0  0  0  0  0  0  0
    3.8602    0.7305    0.6062 H   0  0  0  0  0  0  0  0  0  0  0  0
  1  2  1  0
  2  3  1  0
  3  4  2  0
  3  5  1  0
  5  6  1  0
  6  7  1  0
  7  8  2  0
  8  9  1  0
  9 10  1  0
 10 11  2  0
 11 12  1  0
 12 13  2  0
 13 14  1  0
 14 15  2  0
  8 16  1  0
 16 17  1  0
 17 18  1  0
 18 19  2  0
 18 20  1  0
 20 21  1  0
 20 22  1  0
 16  5  2  0
 15  7  1  0
 15 10  1  0
  1 23  1  0
  1 24  1  0
  1 25  1  0
 11 26  1  0
 12 27  1  0
 13 28  1  0
 14 29  1  0
 20 30  1  0
 21 31  1  0
 21 32  1  0
 21 33  1  0
 22 34  1  0
 22 35  1  0
 22 36  1  0
M  END
$$$$
