@<TRIPOS>MOLECULE
*****
 26 28 0 0 0
SMALL
GASTEIGER

@<TRIPOS>ATOM
      1 O           0.0569    2.1584   -0.8174 O.2     1  UNL1       -0.2680
      2 C          -0.3372    0.9954   -0.4408 C.2     1  UNL1        0.2722
      3 C          -1.6973    0.6207   -0.2201 C.ar    1  UNL1        0.0653
      4 C          -2.8532    1.4040   -0.3591 C.ar    1  UNL1       -0.0477
      5 C          -4.0804    0.8845   -0.1061 C.ar    1  UNL1       -0.0609
      6 C          -4.2363   -0.4209    0.2934 C.ar    1  UNL1       -0.0599
      7 C          -3.1200   -1.2199    0.4403 C.ar    1  UNL1       -0.0343
      8 C          -1.8942   -0.6612    0.1758 C.ar    1  UNL1        0.1213
      9 S          -0.3162   -1.4140    0.2717 S.O2    1  UNL1        0.0822
     10 O          -0.2106   -2.5059   -0.7515 O.2     1  UNL1       -0.1494
     11 O           0.0270   -1.8530    1.6405 O.2     1  UNL1       -0.1494
     12 N           0.6154   -0.0166   -0.2177 N.am    1  UNL1       -0.1294
     13 C           2.0215    0.0419   -0.3484 C.ar    1  UNL1        0.1391
     14 C           2.7725    0.4110    0.7434 C.ar    1  UNL1        0.2033
     15 F           2.1495    0.7100    1.9182 F       1  UNL1       -0.1987
     16 C           4.1692    0.4850    0.6683 C.ar    1  UNL1        0.2532
     17 F           4.8893    0.8499    1.7529 F       1  UNL1       -0.1806
     18 N           4.7860    0.1845   -0.5103 N.ar    1  UNL1       -0.1858
     19 C           4.0783   -0.1792   -1.5934 C.ar    1  UNL1        0.2532
     20 F           4.7493   -0.4636   -2.7293 F       1  UNL1       -0.1806
     21 C           2.6831   -0.2534   -1.5193 C.ar    1  UNL1        0.2033
     22 F           1.9604   -0.6172   -2.5996 F       1  UNL1       -0.1987
     23 H          -2.8099    2.4442   -0.6709 H       1  UNL1        0.0626
     24 H          -4.9756    1.5116   -0.2198 H       1  UNL1        0.0618
     25 H          -5.2168   -0.8288    0.4934 H       1  UNL1        0.0618
     26 H          -3.2105   -2.2671    0.7580 H       1  UNL1        0.0637
@<TRIPOS>BOND
     1     1     2    2
     2     2     3    1
     3     3     4   ar
     4     4     5   ar
     5     5     6   ar
     6     6     7   ar
     7     7     8   ar
     8     8     9    1
     9     9    10    2
    10     9    11    2
    11     9    12    1
    12    12    13    1
    13    13    14   ar
    14    14    15    1
    15    14    16   ar
    16    16    17    1
    17    16    18   ar
    18    18    19   ar
    19    19    20    1
    20    19    21   ar
    21    21    22    1
    22    12     2   am
    23    21    13   ar
    24     8     3   ar
    25     4    23    1
    26     5    24    1
    27     6    25    1
    28     7    26    1
