
     RDKit          3D

 26 28  0  0  0  0  0  0  0  0999 V2000
    0.0569    2.1584   -0.8174 O   0  0  0  0  0  0  0  0  0  0  0  0
   -0.3372    0.9954   -0.4408 C   0  0  0  0  0  0  0  0  0  0  0  0
   -1.6973    0.6207   -0.2201 C   0  0  0  0  0  0  0  0  0  0  0  0
   -2.8532    1.4040   -0.3591 C   0  0  0  0  0  0  0  0  0  0  0  0
   -4.0804    0.8845   -0.1061 C   0  0  0  0  0  0  0  0  0  0  0  0
   -4.2363   -0.4209    0.2934 C   0  0  0  0  0  0  0  0  0  0  0  0
   -3.1200   -1.2199    0.4403 C   0  0  0  0  0  0  0  0  0  0  0  0
   -1.8942   -0.6612    0.1758 C   0  0  0  0  0  0  0  0  0  0  0  0
   -0.3162   -1.4140    0.2717 S   0  0  0  0  0  6  0  0  0  0  0  0
   -0.2106   -2.5059   -0.7515 O   0  0  0  0  0  0  0  0  0  0  0  0
    0.0270   -1.8530    1.6405 O   0  0  0  0  0  0  0  0  0  0  0  0
    0.6154   -0.0166   -0.2177 N   0  0  0  0  0  0  0  0  0  0  0  0
    2.0215    0.0419   -0.3484 C   0  0  0  0  0  0  0  0  0  0  0  0
    2.7725    0.4110    0.7434 C   0  0  0  0  0  0  0  0  0  0  0  0
    2.1495    0.7100    1.9182 F   0  0  0  0  0  0  0  0  0  0  0  0
    4.1692    0.4850    0.6683 C   0  0  0  0  0  0  0  0  0  0  0  0
    4.8893    0.8499    1.7529 F   0  0  0  0  0  0  0  0  0  0  0  0
    4.7860    0.1845   -0.5103 N   0  0  0  0  0  0  0  0  0  0  0  0
    4.0783   -0.1792   -1.5934 C   0  0  0  0  0  0  0  0  0  0  0  0
    4.7493   -0.4636   -2.7293 F   0  0  0  0  0  0  0  0  0  0  0  0
    2.6831   -0.2534   -1.5193 C   0  0  0  0  0  0  0  0  0  0  0  0
    1.9604   -0.6172   -2.5996 F   0  0  0  0  0  0  0  0  0  0  0  0
   -2.8099    2.4442   -0.6709 H   0  0  0  0  0  0  0  0  0  0  0  0
   -4.9756    1.5116   -0.2198 H   0  0  0  0  0  0  0  0  0  0  0  0
   -5.2168   -0.8288    0.4934 H   0  0  0  0  0  0  0  0  0  0  0  0
   -3.2105   -2.2671    0.7580 H   0  0  0  0  0  0  0  0  0  0  0  0
  1  2  2  0
  2  3  1  0
  3  4  2  0
  4  5  1  0
  5  6  2  0
  6  7  1  0
  7  8  2  0
  8  9  1  0
  9 10  2  0
  9 11  2  0
  9 12  1  0
 12 13  1  0
 13 14  2  0
 14 15  1  0
 14 16  1  0
 16 17  1  0
 16 18  2  0
 18 19  1  0
 19 20  1  0
 19 21  2  0
 21 22  1  0
 12  2  1  0
 21 13  1  0
  8  3  1  0
  4 23  1  0
  5 24  1  0
  6 25  1  0
  7 26  1  0
M  END
$$$$
