
     RDKit          3D

 36 38  0  0  0  0  0  0  0  0999 V2000
   -4.4867    1.8897   -1.5100 C   0  0  0  0  0  0  0  0  0  0  0  0
   -4.4923    0.7739   -0.1468 S   0  0  0  0  0  6  0  0  0  0  0  0
   -4.8675    1.5085    1.1043 O   0  0  0  0  0  0  0  0  0  0  0  0
   -5.5275   -0.2935   -0.4160 O   0  0  0  0  0  0  0  0  0  0  0  0
   -2.9052    0.0563    0.1201 C   0  0  0  0  0  0  0  0  0  0  0  0
   -1.9990    0.6473    0.9470 C   0  0  0  0  0  0  0  0  0  0  0  0
   -0.7299    0.0821    1.1662 C   0  0  0  0  0  0  0  0  0  0  0  0
   -0.3437   -1.0689    0.5712 C   0  0  0  0  0  0  0  0  0  0  0  0
    0.9422   -1.7487    0.6732 C   0  0  0  0  0  0  0  0  0  0  0  0
    2.1535   -1.3123    0.4776 C   0  0  0  0  0  0  0  0  0  0  0  0
    2.6146    0.0096    0.0916 C   0  0  0  0  0  0  0  0  0  0  0  0
    2.5290    1.1113    0.8821 C   0  0  0  0  0  0  0  0  0  0  0  0
    2.9618    2.3726    0.4429 C   0  0  0  0  0  0  0  0  0  0  0  0
    3.4950    2.5446   -0.8144 C   0  0  0  0  0  0  0  0  0  0  0  0
    3.5903    1.4365   -1.6291 C   0  0  0  0  0  0  0  0  0  0  0  0
    3.1649    0.2227   -1.1856 C   0  0  0  0  0  0  0  0  0  0  0  0
    3.1029   -2.4323    0.7169 C   0  0  0  0  0  0  0  0  0  0  0  0
    4.3461   -2.3512    0.6147 O   0  0  0  0  0  0  0  0  0  0  0  0
    2.3531   -3.5140    1.0558 O   0  0  0  0  0  0  0  0  0  0  0  0
    1.0193   -3.2204    1.0682 C   0  0  0  0  0  0  0  0  0  0  0  0
   -1.3022   -1.6604   -0.2799 C   0  0  0  0  0  0  0  0  0  0  0  0
   -2.5385   -1.1143   -0.4956 C   0  0  0  0  0  0  0  0  0  0  0  0
   -5.3611    2.5877   -1.3748 H   0  0  0  0  0  0  0  0  0  0  0  0
   -4.6322    1.3091   -2.4642 H   0  0  0  0  0  0  0  0  0  0  0  0
   -3.5991    2.5301   -1.5665 H   0  0  0  0  0  0  0  0  0  0  0  0
   -2.2399    1.5768    1.4597 H   0  0  0  0  0  0  0  0  0  0  0  0
   -0.0507    0.5583    1.8444 H   0  0  0  0  0  0  0  0  0  0  0  0
    2.1460    1.0404    1.8875 H   0  0  0  0  0  0  0  0  0  0  0  0
    2.8914    3.2474    1.0741 H   0  0  0  0  0  0  0  0  0  0  0  0
    3.8339    3.5141   -1.1677 H   0  0  0  0  0  0  0  0  0  0  0  0
    4.0160    1.6080   -2.6138 H   0  0  0  0  0  0  0  0  0  0  0  0
    3.2372   -0.6508   -1.8207 H   0  0  0  0  0  0  0  0  0  0  0  0
    0.5120   -3.3288    2.0482 H   0  0  0  0  0  0  0  0  0  0  0  0
    0.4406   -3.7501    0.2612 H   0  0  0  0  0  0  0  0  0  0  0  0
   -1.0324   -2.5894   -0.7784 H   0  0  0  0  0  0  0  0  0  0  0  0
   -3.2420   -1.5919   -1.1495 H   0  0  0  0  0  0  0  0  0  0  0  0
  1  2  1  0
  2  3  2  0
  2  4  2  0
  2  5  1  0
  5  6  2  0
  6  7  1  0
  7  8  2  0
  8  9  1  0
  9 10  2  0
 10 11  1  0
 11 12  2  0
 12 13  1  0
 13 14  2  0
 14 15  1  0
 15 16  2  0
 10 17  1  0
 17 18  2  0
 17 19  1  0
 19 20  1  0
  8 21  1  0
 21 22  2  0
 22  5  1  0
 20  9  1  0
 16 11  1  0
  1 23  1  0
  1 24  1  0
  1 25  1  0
  6 26  1  0
  7 27  1  0
 12 28  1  0
 13 29  1  0
 14 30  1  0
 15 31  1  0
 16 32  1  0
 20 33  1  0
 20 34  1  0
 21 35  1  0
 22 36  1  0
M  END
$$$$
