@<TRIPOS>MOLECULE
*****
 36 38 0 0 0
SMALL
GASTEIGER

@<TRIPOS>ATOM
      1 C          -4.4867    1.8897   -1.5100 C.3     1  UNL1        0.0596
      2 S          -4.4923    0.7739   -0.1468 S.O2    1  UNL1       -0.0059
      3 O          -4.8675    1.5085    1.1043 O.2     1  UNL1       -0.1696
      4 O          -5.5275   -0.2935   -0.4160 O.2     1  UNL1       -0.1696
      5 C          -2.9052    0.0563    0.1201 C.ar    1  UNL1        0.0879
      6 C          -1.9990    0.6473    0.9470 C.ar    1  UNL1       -0.0363
      7 C          -0.7299    0.0821    1.1662 C.ar    1  UNL1       -0.0524
      8 C          -0.3437   -1.0689    0.5712 C.ar    1  UNL1       -0.0177
      9 C           0.9422   -1.7487    0.6732 C.2     1  UNL1        0.0114
     10 C           2.1535   -1.3123    0.4776 C.2     1  UNL1        0.0731
     11 C           2.6146    0.0096    0.0916 C.ar    1  UNL1       -0.0107
     12 C           2.5290    1.1113    0.8821 C.ar    1  UNL1       -0.0538
     13 C           2.9618    2.3726    0.4429 C.ar    1  UNL1       -0.0612
     14 C           3.4950    2.5446   -0.8144 C.ar    1  UNL1       -0.0617
     15 C           3.5903    1.4365   -1.6291 C.ar    1  UNL1       -0.0612
     16 C           3.1649    0.2227   -1.1856 C.ar    1  UNL1       -0.0538
     17 C           3.1029   -2.4323    0.7169 C.2     1  UNL1        0.3405
     18 O           4.3461   -2.3512    0.6147 O.2     1  UNL1       -0.2449
     19 O           2.3531   -3.5140    1.0558 O.3     1  UNL1       -0.4563
     20 C           1.0193   -3.2204    1.0682 C.3     1  UNL1        0.1192
     21 C          -1.3022   -1.6604   -0.2799 C.ar    1  UNL1       -0.0524
     22 C          -2.5385   -1.1143   -0.4956 C.ar    1  UNL1       -0.0363
     23 H          -5.3611    2.5877   -1.3748 H       1  UNL1        0.0468
     24 H          -4.6322    1.3091   -2.4642 H       1  UNL1        0.0468
     25 H          -3.5991    2.5301   -1.5665 H       1  UNL1        0.0468
     26 H          -2.2399    1.5768    1.4597 H       1  UNL1        0.0637
     27 H          -0.0507    0.5583    1.8444 H       1  UNL1        0.0624
     28 H           2.1460    1.0404    1.8875 H       1  UNL1        0.0624
     29 H           2.8914    3.2474    1.0741 H       1  UNL1        0.0618
     30 H           3.8339    3.5141   -1.1677 H       1  UNL1        0.0618
     31 H           4.0160    1.6080   -2.6138 H       1  UNL1        0.0618
     32 H           3.2372   -0.6508   -1.8207 H       1  UNL1        0.0624
     33 H           0.5120   -3.3288    2.0482 H       1  UNL1        0.0749
     34 H           0.4406   -3.7501    0.2612 H       1  UNL1        0.0749
     35 H          -1.0324   -2.5894   -0.7784 H       1  UNL1        0.0624
     36 H          -3.2420   -1.5919   -1.1495 H       1  UNL1        0.0637
@<TRIPOS>BOND
     1     1     2    1
     2     2     3    2
     3     2     4    2
     4     2     5    1
     5     5     6   ar
     6     6     7   ar
     7     7     8   ar
     8     8     9    1
     9     9    10    2
    10    10    11    1
    11    11    12   ar
    12    12    13   ar
    13    13    14   ar
    14    14    15   ar
    15    15    16   ar
    16    10    17    1
    17    17    18    2
    18    17    19    1
    19    19    20    1
    20     8    21   ar
    21    21    22   ar
    22    22     5   ar
    23    20     9    1
    24    16    11   ar
    25     1    23    1
    26     1    24    1
    27     1    25    1
    28     6    26    1
    29     7    27    1
    30    12    28    1
    31    13    29    1
    32    14    30    1
    33    15    31    1
    34    16    32    1
    35    20    33    1
    36    20    34    1
    37    21    35    1
    38    22    36    1
