@<TRIPOS>MOLECULE
*****
 46 48 0 0 0
SMALL
GASTEIGER

@<TRIPOS>ATOM
      1 O          -0.5715   -0.4142    0.4765 O.2     1  UNL1       -0.2738
      2 C          -0.2014    0.7356    0.1803 C.2     1  UNL1        0.2336
      3 N          -1.0977    1.6110   -0.4412 N.am    1  UNL1       -0.3135
      4 C          -2.4546    1.4537   -0.8161 C.3     1  UNL1        0.0146
      5 C          -3.4157    1.3081    0.2859 C.3     1  UNL1       -0.0232
      6 C          -3.3550    0.1930    1.2359 C.3     1  UNL1       -0.0361
      7 C          -3.6160   -1.1241    0.5256 C.3     1  UNL1       -0.0038
      8 N          -5.0143   -1.1038    0.0981 N.3     1  UNL1       -0.3160
      9 C          -5.1875   -0.0378   -0.8741 C.3     1  UNL1       -0.0038
     10 C          -4.8603    1.3100   -0.2896 C.3     1  UNL1       -0.0361
     11 C           1.1920    1.1033    0.5139 C.3     1  UNL1        0.1038
     12 C           2.0563    1.1449   -0.8356 C.3     1  UNL1       -0.0239
     13 C           3.3541    0.4309   -0.6491 C.3     1  UNL1       -0.0282
     14 C           3.4155   -0.9416   -0.0914 C.3     1  UNL1        0.0727
     15 C           1.8966   -1.2243    0.2690 C.3     1  UNL1        0.0381
     16 N           1.9275    0.0360    1.0746 N.am    1  UNL1       -0.2704
     17 C           2.8708   -0.3061    2.0361 C.2     1  UNL1        0.3305
     18 O           2.8689   -0.0622    3.2542 O.2     1  UNL1       -0.2502
     19 N           3.9184   -1.0413    1.2936 N.am    1  UNL1       -0.1323
     20 O           4.9656   -1.5883    1.8611 O.3     1  UNL1       -0.0962
     21 S           5.9218   -2.3242    0.7304 S.O2    1  UNL1        0.2271
     22 O           5.1649   -3.4311    0.0612 O.2     1  UNL1       -0.1164
     23 O           7.0911   -2.9601    1.4457 O.2     1  UNL1       -0.1164
     24 O           6.4859   -1.2748   -0.4471 O.3     1  UNL1       -0.2297
     25 H          -0.6641    2.5827   -0.6716 H       1  UNL1        0.1487
     26 H          -2.4770    0.5186   -1.4945 H       1  UNL1        0.0465
     27 H          -2.7792    2.2792   -1.5321 H       1  UNL1        0.0465
     28 H          -3.4321    2.2634    0.9380 H       1  UNL1        0.0317
     29 H          -2.5678    0.1717    1.9831 H       1  UNL1        0.0281
     30 H          -4.3182    0.3093    1.8811 H       1  UNL1        0.0281
     31 H          -3.0335   -1.2219   -0.4167 H       1  UNL1        0.0424
     32 H          -3.4073   -1.9975    1.1453 H       1  UNL1        0.0424
     33 H          -5.6634   -0.9634    0.8906 H       1  UNL1        0.1219
     34 H          -6.2420   -0.0289   -1.1589 H       1  UNL1        0.0424
     35 H          -4.5189   -0.2488   -1.7250 H       1  UNL1        0.0424
     36 H          -5.5237    1.5281    0.5694 H       1  UNL1        0.0281
     37 H          -4.9011    2.0687   -1.0703 H       1  UNL1        0.0281
     38 H           1.3120    2.0576    1.0128 H       1  UNL1        0.0597
     39 H           1.4876    0.7137   -1.6345 H       1  UNL1        0.0288
     40 H           2.2401    2.2071   -0.9831 H       1  UNL1        0.0288
     41 H           3.8478    0.4162   -1.6398 H       1  UNL1        0.0285
     42 H           4.0062    1.0950   -0.0102 H       1  UNL1        0.0285
     43 H           3.7996   -1.6527   -0.7757 H       1  UNL1        0.0542
     44 H           1.8121   -2.1163    0.8470 H       1  UNL1        0.0484
     45 H           1.3134   -1.1402   -0.6314 H       1  UNL1        0.0484
     46 H           6.3539   -0.3340   -0.2164 H       1  UNL1        0.2470
@<TRIPOS>BOND
     1     1     2    2
     2     2     3   am
     3     3     4    1
     4     4     5    1
     5     5     6    1
     6     6     7    1
     7     7     8    1
     8     8     9    1
     9     9    10    1
    10     2    11    1
    11    11    12    1
    12    12    13    1
    13    13    14    1
    14    14    15    1
    15    15    16    1
    16    16    17   am
    17    17    18    2
    18    17    19   am
    19    19    20    1
    20    20    21    1
    21    21    22    2
    22    21    23    2
    23    21    24    1
    24    10     5    1
    25    16    11    1
    26    19    14    1
    27     3    25    1
    28     4    26    1
    29     4    27    1
    30     5    28    1
    31     6    29    1
    32     6    30    1
    33     7    31    1
    34     7    32    1
    35     8    33    1
    36     9    34    1
    37     9    35    1
    38    10    36    1
    39    10    37    1
    40    11    38    1
    41    12    39    1
    42    12    40    1
    43    13    41    1
    44    13    42    1
    45    14    43    1
    46    15    44    1
    47    15    45    1
    48    24    46    1
