@<TRIPOS>MOLECULE
*****
 38 38 0 0 0
SMALL
GASTEIGER

@<TRIPOS>ATOM
      1 C           2.7351   -1.4873    1.6664 C.3     1  UNL1       -0.0524
      2 C           3.4145   -0.6434    0.6270 C.3     1  UNL1       -0.0039
      3 N           2.5581    0.3954    0.1754 N.3     1  UNL1       -0.3014
      4 C           3.1530    1.1165   -0.9641 C.3     1  UNL1       -0.0039
      5 C           3.1373    0.1110   -2.1051 C.3     1  UNL1       -0.0524
      6 C           2.0066    1.3190    1.0683 C.3     1  UNL1        0.0145
      7 C           0.9893    0.9549    2.0552 C.3     1  UNL1        0.0247
      8 N          -0.2273    0.4190    1.4739 N.am    1  UNL1       -0.3101
      9 C          -1.1314    1.0100    0.5780 C.2     1  UNL1        0.2441
     10 O          -0.9180    2.1897    0.1702 O.2     1  UNL1       -0.2702
     11 C          -2.3323    0.3669    0.0585 C.ar    1  UNL1        0.0368
     12 C          -3.1807    1.0709   -0.7561 C.ar    1  UNL1       -0.0479
     13 C          -4.3330    0.4876   -1.2641 C.ar    1  UNL1       -0.0403
     14 C          -4.6777   -0.8246   -0.9738 C.ar    1  UNL1        0.0246
     15 N          -5.8613   -1.4732   -1.4712 N.pl3   1  UNL1       -0.3580
     16 C          -3.8320   -1.5488   -0.1533 C.ar    1  UNL1       -0.0403
     17 C          -2.6986   -0.9336    0.3303 C.ar    1  UNL1       -0.0479
     18 H           1.6420   -1.5885    1.5422 H       1  UNL1        0.0242
     19 H           3.0875   -2.5728    1.5931 H       1  UNL1        0.0242
     20 H           3.0508   -1.2204    2.7061 H       1  UNL1        0.0242
     21 H           3.6766   -1.2838   -0.2397 H       1  UNL1        0.0424
     22 H           4.4117   -0.2756    0.9810 H       1  UNL1        0.0424
     23 H           2.4482    1.9307   -1.2130 H       1  UNL1        0.0424
     24 H           4.1503    1.4988   -0.7606 H       1  UNL1        0.0424
     25 H           2.9379    0.6127   -3.0779 H       1  UNL1        0.0242
     26 H           2.3325   -0.6434   -1.9693 H       1  UNL1        0.0242
     27 H           4.1076   -0.3946   -2.1841 H       1  UNL1        0.0242
     28 H           2.8756    1.8429    1.5809 H       1  UNL1        0.0442
     29 H           1.5886    2.1642    0.4368 H       1  UNL1        0.0442
     30 H           0.7172    1.9288    2.6169 H       1  UNL1        0.0475
     31 H           1.2661    0.3012    2.8891 H       1  UNL1        0.0475
     32 H          -0.5264   -0.5672    1.7290 H       1  UNL1        0.1490
     33 H          -3.0246    2.0958   -1.0548 H       1  UNL1        0.0626
     34 H          -5.0359    0.9908   -1.9073 H       1  UNL1        0.0636
     35 H          -6.4996   -1.2407   -0.6593 H       1  UNL1        0.1423
     36 H          -5.8424   -1.9721   -2.4091 H       1  UNL1        0.1423
     37 H          -4.0726   -2.5912    0.0987 H       1  UNL1        0.0636
     38 H          -2.0925   -1.5456    0.9533 H       1  UNL1        0.0626
@<TRIPOS>BOND
     1     1     2    1
     2     2     3    1
     3     3     4    1
     4     4     5    1
     5     3     6    1
     6     6     7    1
     7     7     8    1
     8     8     9   am
     9     9    10    2
    10     9    11    1
    11    11    12   ar
    12    12    13   ar
    13    13    14   ar
    14    14    15    1
    15    14    16   ar
    16    16    17   ar
    17    17    11   ar
    18     1    18    1
    19     1    19    1
    20     1    20    1
    21     2    21    1
    22     2    22    1
    23     4    23    1
    24     4    24    1
    25     5    25    1
    26     5    26    1
    27     5    27    1
    28     6    28    1
    29     6    29    1
    30     7    30    1
    31     7    31    1
    32     8    32    1
    33    12    33    1
    34    13    34    1
    35    15    35    1
    36    15    36    1
    37    16    37    1
    38    17    38    1
