
     RDKit          3D

 38 38  0  0  0  0  0  0  0  0999 V2000
    2.7351   -1.4873    1.6664 C   0  0  0  0  0  0  0  0  0  0  0  0
    3.4145   -0.6434    0.6270 C   0  0  0  0  0  0  0  0  0  0  0  0
    2.5581    0.3954    0.1754 N   0  0  0  0  0  0  0  0  0  0  0  0
    3.1530    1.1165   -0.9641 C   0  0  0  0  0  0  0  0  0  0  0  0
    3.1373    0.1110   -2.1051 C   0  0  0  0  0  0  0  0  0  0  0  0
    2.0066    1.3190    1.0683 C   0  0  0  0  0  0  0  0  0  0  0  0
    0.9893    0.9549    2.0552 C   0  0  0  0  0  0  0  0  0  0  0  0
   -0.2273    0.4190    1.4739 N   0  0  0  0  0  0  0  0  0  0  0  0
   -1.1314    1.0100    0.5780 C   0  0  0  0  0  0  0  0  0  0  0  0
   -0.9180    2.1897    0.1702 O   0  0  0  0  0  0  0  0  0  0  0  0
   -2.3323    0.3669    0.0585 C   0  0  0  0  0  0  0  0  0  0  0  0
   -3.1807    1.0709   -0.7561 C   0  0  0  0  0  0  0  0  0  0  0  0
   -4.3330    0.4876   -1.2641 C   0  0  0  0  0  0  0  0  0  0  0  0
   -4.6777   -0.8246   -0.9738 C   0  0  0  0  0  0  0  0  0  0  0  0
   -5.8613   -1.4732   -1.4712 N   0  0  0  0  0  0  0  0  0  0  0  0
   -3.8320   -1.5488   -0.1533 C   0  0  0  0  0  0  0  0  0  0  0  0
   -2.6986   -0.9336    0.3303 C   0  0  0  0  0  0  0  0  0  0  0  0
    1.6420   -1.5885    1.5422 H   0  0  0  0  0  0  0  0  0  0  0  0
    3.0875   -2.5728    1.5931 H   0  0  0  0  0  0  0  0  0  0  0  0
    3.0508   -1.2204    2.7061 H   0  0  0  0  0  0  0  0  0  0  0  0
    3.6766   -1.2838   -0.2397 H   0  0  0  0  0  0  0  0  0  0  0  0
    4.4117   -0.2756    0.9810 H   0  0  0  0  0  0  0  0  0  0  0  0
    2.4482    1.9307   -1.2130 H   0  0  0  0  0  0  0  0  0  0  0  0
    4.1503    1.4988   -0.7606 H   0  0  0  0  0  0  0  0  0  0  0  0
    2.9379    0.6127   -3.0779 H   0  0  0  0  0  0  0  0  0  0  0  0
    2.3325   -0.6434   -1.9693 H   0  0  0  0  0  0  0  0  0  0  0  0
    4.1076   -0.3946   -2.1841 H   0  0  0  0  0  0  0  0  0  0  0  0
    2.8756    1.8429    1.5809 H   0  0  0  0  0  0  0  0  0  0  0  0
    1.5886    2.1642    0.4368 H   0  0  0  0  0  0  0  0  0  0  0  0
    0.7172    1.9288    2.6169 H   0  0  0  0  0  0  0  0  0  0  0  0
    1.2661    0.3012    2.8891 H   0  0  0  0  0  0  0  0  0  0  0  0
   -0.5264   -0.5672    1.7290 H   0  0  0  0  0  0  0  0  0  0  0  0
   -3.0246    2.0958   -1.0548 H   0  0  0  0  0  0  0  0  0  0  0  0
   -5.0359    0.9908   -1.9073 H   0  0  0  0  0  0  0  0  0  0  0  0
   -6.4996   -1.2407   -0.6593 H   0  0  0  0  0  0  0  0  0  0  0  0
   -5.8424   -1.9721   -2.4091 H   0  0  0  0  0  0  0  0  0  0  0  0
   -4.0726   -2.5912    0.0987 H   0  0  0  0  0  0  0  0  0  0  0  0
   -2.0925   -1.5456    0.9533 H   0  0  0  0  0  0  0  0  0  0  0  0
  1  2  1  0
  2  3  1  0
  3  4  1  0
  4  5  1  0
  3  6  1  0
  6  7  1  0
  7  8  1  0
  8  9  1  0
  9 10  2  0
  9 11  1  0
 11 12  2  0
 12 13  1  0
 13 14  2  0
 14 15  1  0
 14 16  1  0
 16 17  2  0
 17 11  1  0
  1 18  1  0
  1 19  1  0
  1 20  1  0
  2 21  1  0
  2 22  1  0
  4 23  1  0
  4 24  1  0
  5 25  1  0
  5 26  1  0
  5 27  1  0
  6 28  1  0
  6 29  1  0
  7 30  1  0
  7 31  1  0
  8 32  1  0
 12 33  1  0
 13 34  1  0
 15 35  1  0
 15 36  1  0
 16 37  1  0
 17 38  1  0
M  END
$$$$
