@<TRIPOS>MOLECULE
*****
 39 42 0 0 0
SMALL
GASTEIGER

@<TRIPOS>ATOM
      1 C           3.7636   -3.2995   -0.3323 C.3     1  UNL1       -0.0209
      2 C           3.3516   -1.8992    0.0075 C.ar    1  UNL1        0.0565
      3 C           4.1138   -0.9969    0.7511 C.ar    1  UNL1        0.0246
      4 N           3.3991    0.1195    0.8248 N.ar    1  UNL1       -0.3429
      5 C           2.2212   -0.0055    0.1744 C.ar    1  UNL1        0.1567
      6 C           1.2262    1.0497    0.0809 C.ar    1  UNL1        0.1086
      7 N           1.3088    2.3045    0.6149 N.ar    1  UNL1       -0.3502
      8 C           0.2193    3.0160    0.3342 C.ar    1  UNL1        0.0490
      9 C          -0.1933    4.3032    0.6265 C.ar    1  UNL1       -0.0363
     10 C          -1.4013    4.8081    0.2039 C.ar    1  UNL1       -0.0414
     11 C          -2.2147    3.9917   -0.5334 C.ar    1  UNL1        0.0417
     12 CL         -3.7595    4.5563   -1.1054 Cl      1  UNL1       -0.0835
     13 C          -1.8125    2.7091   -0.8292 C.ar    1  UNL1       -0.0324
     14 C          -0.6018    2.1952   -0.4088 C.ar    1  UNL1        0.0270
     15 C           0.0277    0.9539   -0.5717 C.ar    1  UNL1        0.1294
     16 S          -0.6844   -0.3445   -1.4355 S.O2    1  UNL1        0.0277
     17 O          -1.5917    0.2114   -2.5295 O.2     1  UNL1       -0.1642
     18 O           0.2868   -1.2316   -2.1429 O.2     1  UNL1       -0.1642
     19 C          -1.7027   -1.3717   -0.4527 C.ar    1  UNL1        0.0937
     20 C          -1.1357   -2.4613    0.1407 C.ar    1  UNL1       -0.0365
     21 C          -1.9275   -3.2801    0.9210 C.ar    1  UNL1       -0.0599
     22 C          -3.2601   -3.0193    1.1076 C.ar    1  UNL1       -0.0616
     23 C          -3.8338   -1.9301    0.5162 C.ar    1  UNL1       -0.0599
     24 C          -3.0432   -1.1176   -0.2594 C.ar    1  UNL1       -0.0365
     25 N           2.2262   -1.2495   -0.3118 N.ar    1  UNL1       -0.2314
     26 H           4.8158   -3.4389   -0.0870 H       1  UNL1        0.0293
     27 H           3.1144   -3.9994    0.2282 H       1  UNL1        0.0293
     28 H           3.6195   -3.3878   -1.4367 H       1  UNL1        0.0293
     29 H           5.0886   -1.1916    1.1723 H       1  UNL1        0.0825
     30 H           3.7507    0.9803    1.3425 H       1  UNL1        0.1669
     31 H           2.1335    2.6322    1.1667 H       1  UNL1        0.1660
     32 H           0.4801    4.9155    1.2120 H       1  UNL1        0.0639
     33 H          -1.7209    5.8241    0.4378 H       1  UNL1        0.0633
     34 H          -2.4658    2.0913   -1.4066 H       1  UNL1        0.0639
     35 H          -0.0965   -2.7344    0.0411 H       1  UNL1        0.0637
     36 H          -1.4820   -4.1417    1.3910 H       1  UNL1        0.0618
     37 H          -3.8902   -3.6551    1.7177 H       1  UNL1        0.0618
     38 H          -4.8878   -1.6693    0.6263 H       1  UNL1        0.0618
     39 H          -3.4416   -0.2370   -0.7554 H       1  UNL1        0.0637
@<TRIPOS>BOND
     1     1     2    1
     2     2     3   ar
     3     3     4   ar
     4     4     5   ar
     5     5     6    1
     6     6     7   ar
     7     7     8   ar
     8     8     9   ar
     9     9    10   ar
    10    10    11   ar
    11    11    12    1
    12    11    13   ar
    13    13    14   ar
    14    14    15   ar
    15    15    16    1
    16    16    17    2
    17    16    18    2
    18    16    19    1
    19    19    20   ar
    20    20    21   ar
    21    21    22   ar
    22    22    23   ar
    23    23    24   ar
    24     5    25   ar
    25    25     2   ar
    26    15     6   ar
    27    24    19   ar
    28    14     8   ar
    29     1    26    1
    30     1    27    1
    31     1    28    1
    32     3    29    1
    33     4    30    1
    34     7    31    1
    35     9    32    1
    36    10    33    1
    37    13    34    1
    38    20    35    1
    39    21    36    1
    40    22    37    1
    41    23    38    1
    42    24    39    1
