@<TRIPOS>MOLECULE
*****
 49 53 0 0 0
SMALL
GASTEIGER

@<TRIPOS>ATOM
      1 C           6.5816   -1.0351    1.8225 C.3     1  UNL1       -0.0222
      2 C           5.8244   -0.3809    0.7332 C.ar    1  UNL1        0.0421
      3 C           6.3562    0.7116    0.0936 C.ar    1  UNL1       -0.0224
      4 C           5.6174    1.3043   -0.9278 C.ar    1  UNL1        0.0331
      5 N           4.4138    0.8188   -1.2786 N.ar    1  UNL1       -0.2211
      6 N           3.5652    1.2158   -2.1950 N.ar    1  UNL1       -0.1683
      7 C           2.4775    0.4010   -2.1717 C.ar    1  UNL1        0.0839
      8 C           2.6972   -0.5353   -1.1800 C.ar    1  UNL1        0.0349
      9 C           3.9169   -0.2572   -0.6310 C.ar    1  UNL1        0.1603
     10 N           4.6246   -0.8437    0.3645 N.ar    1  UNL1       -0.2326
     11 C           1.4941   -1.4343   -1.1557 C.3     1  UNL1        0.0301
     12 N           0.4381   -0.6318   -1.7634 N.3     1  UNL1       -0.2871
     13 C          -0.1989    0.1912   -0.7746 C.3     1  UNL1        0.0360
     14 C          -1.2932    1.0495   -1.2747 C.3     1  UNL1        0.0641
     15 O          -2.5233    0.4328   -1.3868 O.3     1  UNL1       -0.3688
     16 C          -2.9563   -0.2129   -0.2605 C.3     1  UNL1        0.1015
     17 C          -4.3218    0.1307    0.1483 C.ar    1  UNL1        0.0205
     18 C          -4.7943    1.4196    0.0361 C.ar    1  UNL1       -0.0180
     19 C          -6.0845    1.7594    0.4190 C.ar    1  UNL1        0.1239
     20 F          -6.5723    3.0181    0.3188 F       1  UNL1       -0.2055
     21 C          -6.9283    0.7777    0.9306 C.ar    1  UNL1       -0.0237
     22 C          -6.4699   -0.5146    1.0485 C.ar    1  UNL1       -0.0234
     23 C          -5.1723   -0.8256    0.6567 C.ar    1  UNL1        0.1292
     24 F          -4.7974   -2.1270    0.8062 F       1  UNL1       -0.2051
     25 C          -1.9589   -0.0679    0.8790 C.3     1  UNL1        0.0371
     26 N          -2.4235   -0.7893    2.0435 N.3     1  UNL1       -0.3248
     27 C          -0.6656   -0.6754    0.3751 C.3     1  UNL1       -0.0172
     28 C           1.1699    0.0997   -2.7578 C.3     1  UNL1        0.0440
     29 H           7.6587   -1.0591    1.5326 H       1  UNL1        0.0293
     30 H           6.4871   -0.4816    2.7645 H       1  UNL1        0.0293
     31 H           6.2572   -2.0980    1.9414 H       1  UNL1        0.0293
     32 H           7.3258    1.0824    0.3947 H       1  UNL1        0.0650
     33 H           6.0508    2.1632   -1.4206 H       1  UNL1        0.0831
     34 H           1.2256   -1.7293   -0.1302 H       1  UNL1        0.0478
     35 H           1.7445   -2.3168   -1.7580 H       1  UNL1        0.0478
     36 H           0.6019    0.8588   -0.3496 H       1  UNL1        0.0486
     37 H          -1.4190    1.9387   -0.5884 H       1  UNL1        0.0576
     38 H          -1.0734    1.5037   -2.2679 H       1  UNL1        0.0576
     39 H          -2.9584   -1.3171   -0.5027 H       1  UNL1        0.0663
     40 H          -4.1830    2.2259   -0.3551 H       1  UNL1        0.0651
     41 H          -7.9506    1.0372    1.2361 H       1  UNL1        0.0647
     42 H          -7.1414   -1.2601    1.4478 H       1  UNL1        0.0647
     43 H          -1.7895    0.9778    1.1705 H       1  UNL1        0.0488
     44 H          -1.6948   -0.6162    2.7984 H       1  UNL1        0.1186
     45 H          -2.3157   -1.8235    1.8254 H       1  UNL1        0.1186
     46 H           0.0760   -0.6975    1.1995 H       1  UNL1        0.0297
     47 H          -0.9279   -1.7095    0.0317 H       1  UNL1        0.0297
     48 H           0.6522    0.9463   -3.1964 H       1  UNL1        0.0492
     49 H           1.3570   -0.6246   -3.6053 H       1  UNL1        0.0492
@<TRIPOS>BOND
     1     1     2    1
     2     2     3   ar
     3     3     4   ar
     4     4     5   ar
     5     5     6   ar
     6     6     7   ar
     7     7     8   ar
     8     8     9   ar
     9     9    10   ar
    10     8    11    1
    11    11    12    1
    12    12    13    1
    13    13    14    1
    14    14    15    1
    15    15    16    1
    16    16    17    1
    17    17    18   ar
    18    18    19   ar
    19    19    20    1
    20    19    21   ar
    21    21    22   ar
    22    22    23   ar
    23    23    24    1
    24    16    25    1
    25    25    26    1
    26    25    27    1
    27    12    28    1
    28    10     2   ar
    29    27    13    1
    30     9     5   ar
    31    23    17   ar
    32    28     7    1
    33     1    29    1
    34     1    30    1
    35     1    31    1
    36     3    32    1
    37     4    33    1
    38    11    34    1
    39    11    35    1
    40    13    36    1
    41    14    37    1
    42    14    38    1
    43    16    39    1
    44    18    40    1
    45    21    41    1
    46    22    42    1
    47    25    43    1
    48    26    44    1
    49    26    45    1
    50    27    46    1
    51    27    47    1
    52    28    48    1
    53    28    49    1
