@<TRIPOS>MOLECULE
*****
 69 74 0 0 0
SMALL
GASTEIGER

@<TRIPOS>ATOM
      1 C           9.5146    4.5459   -1.0955 C.3     1  UNL1       -0.0159
      2 C           8.6889    3.3952   -0.5393 C.ar    1  UNL1        0.0761
      3 N           8.7716    2.4492    0.1451 N.ar    1  UNL1       -0.2489
      4 C           7.8616    1.5683    0.4889 C.ar    1  UNL1        0.0534
      5 C           8.1402    0.3925    1.3867 C.3     1  UNL1       -0.0212
      6 C           6.6077    1.8077   -0.0505 C.ar    1  UNL1        0.0419
      7 C           5.3227    1.1412    0.0293 C.ar    1  UNL1       -0.0094
      8 C           5.0286    0.0235    0.7539 C.ar    1  UNL1       -0.0517
      9 C           3.7714   -0.5496    0.7677 C.ar    1  UNL1       -0.0392
     10 C           2.7421   -0.0039    0.0350 C.ar    1  UNL1        0.0455
     11 N           1.4398   -0.5652    0.0277 N.am    1  UNL1       -0.1920
     12 C           0.9020   -1.5554   -0.8449 C.2     1  UNL1        0.3219
     13 O           1.5214   -2.1255   -1.8009 O.2     1  UNL1       -0.2512
     14 N          -0.4651   -1.7926   -0.4493 N.am    1  UNL1       -0.2240
     15 C          -1.1789   -2.9949   -0.6555 C.ar    1  UNL1        0.1364
     16 C          -1.1854   -4.0155    0.2692 C.ar    1  UNL1        0.0432
     17 C          -1.9035   -5.1950    0.0336 C.ar    1  UNL1        0.2531
     18 O          -1.9203   -6.1319    0.8625 O.2     1  UNL1       -0.2678
     19 N          -2.5999   -5.3469   -1.1054 N.ar    1  UNL1       -0.3133
     20 C          -2.5786   -4.3377   -1.9927 C.ar    1  UNL1        0.0981
     21 N          -1.8905   -3.1974   -1.7759 N.ar    1  UNL1       -0.2220
     22 C          -0.8781   -0.5507    0.1739 C.3     1  UNL1        0.1240
     23 C          -2.0222   -0.7275    1.1154 C.3     1  UNL1       -0.0095
     24 C          -3.3733   -0.6730    0.4178 C.3     1  UNL1        0.0017
     25 N          -3.3704    0.1570   -0.7056 N.3     1  UNL1       -0.2965
     26 C          -4.5374    0.4209   -1.4209 C.3     1  UNL1        0.0415
     27 C          -5.6709    1.0117   -0.6935 C.ar    1  UNL1        0.0581
     28 N          -5.8123    2.3670   -0.7436 N.ar    1  UNL1       -0.2583
     29 C          -6.7835    3.0304   -0.0988 C.ar    1  UNL1        0.0279
     30 C          -7.7157    2.3727    0.6681 C.ar    1  UNL1       -0.0433
     31 C          -7.6079    1.0051    0.7437 C.ar    1  UNL1       -0.0557
     32 C          -6.5885    0.3470    0.0619 C.ar    1  UNL1       -0.0279
     33 C          -6.5452   -1.1277    0.1537 C.3     1  UNL1       -0.0380
     34 C          -2.3655    1.1499   -0.7729 C.3     1  UNL1        0.0017
     35 C          -1.0272    0.4942   -0.8671 C.3     1  UNL1       -0.0095
     36 C           0.3853   -0.2231    0.9349 C.2     1  UNL1        0.2516
     37 O           0.4896    0.2430    2.0981 O.2     1  UNL1       -0.2724
     38 C           3.0394    1.1222   -0.6948 C.ar    1  UNL1       -0.0392
     39 C           4.2779    1.7018   -0.7196 C.ar    1  UNL1       -0.0517
     40 S           6.8901    3.3148   -1.0179 S.2     1  UNL1       -0.0721
     41 H           9.0226    4.9944   -1.9609 H       1  UNL1        0.0298
     42 H          10.4546    4.0818   -1.4333 H       1  UNL1        0.0298
     43 H           9.6697    5.3099   -0.3148 H       1  UNL1        0.0298
     44 H           7.9859   -0.5765    0.8798 H       1  UNL1        0.0293
     45 H           7.6156    0.4284    2.3363 H       1  UNL1        0.0293
     46 H           9.2317    0.3674    1.6675 H       1  UNL1        0.0293
     47 H           5.7728   -0.4466    1.3427 H       1  UNL1        0.0624
     48 H           3.5942   -1.4253    1.3528 H       1  UNL1        0.0636
     49 H          -0.6468   -3.9403    1.1893 H       1  UNL1        0.0706
     50 H          -3.1458   -6.2365   -1.2903 H       1  UNL1        0.1698
     51 H          -3.1566   -4.4997   -2.9051 H       1  UNL1        0.1028
     52 H          -1.9944    0.1076    1.8417 H       1  UNL1        0.0303
     53 H          -1.9961   -1.6669    1.6764 H       1  UNL1        0.0303
     54 H          -4.0707   -0.2675    1.1924 H       1  UNL1        0.0427
     55 H          -3.7429   -1.7123    0.2052 H       1  UNL1        0.0427
     56 H          -4.8473   -0.5308   -1.9463 H       1  UNL1        0.0491
     57 H          -4.3177    1.1190   -2.2924 H       1  UNL1        0.0491
     58 H          -6.8549    4.1193   -0.1700 H       1  UNL1        0.0829
     59 H          -8.5107    2.8947    1.1986 H       1  UNL1        0.0633
     60 H          -8.2957    0.4239    1.3208 H       1  UNL1        0.0621
     61 H          -7.6112   -1.4832    0.0709 H       1  UNL1        0.0278
     62 H          -6.0003   -1.6142   -0.6573 H       1  UNL1        0.0278
     63 H          -6.2085   -1.4434    1.1668 H       1  UNL1        0.0278
     64 H          -2.5516    1.7729   -1.6839 H       1  UNL1        0.0427
     65 H          -2.3874    1.7632    0.1503 H       1  UNL1        0.0427
     66 H          -0.8321    0.0476   -1.8672 H       1  UNL1        0.0303
     67 H          -0.2587    1.3103   -0.7808 H       1  UNL1        0.0303
     68 H           2.2414    1.5768   -1.2862 H       1  UNL1        0.0636
     69 H           4.4662    2.5784   -1.3018 H       1  UNL1        0.0624
@<TRIPOS>BOND
     1     1     2    1
     2     2     3   ar
     3     3     4   ar
     4     4     5    1
     5     4     6   ar
     6     6     7    1
     7     7     8   ar
     8     8     9   ar
     9     9    10   ar
    10    10    11    1
    11    11    12   am
    12    12    13    2
    13    12    14   am
    14    14    15    1
    15    15    16   ar
    16    16    17   ar
    17    17    18    2
    18    17    19   ar
    19    19    20   ar
    20    20    21   ar
    21    14    22    1
    22    22    23    1
    23    23    24    1
    24    24    25    1
    25    25    26    1
    26    26    27    1
    27    27    28   ar
    28    28    29   ar
    29    29    30   ar
    30    30    31   ar
    31    31    32   ar
    32    32    33    1
    33    25    34    1
    34    34    35    1
    35    22    36    1
    36    36    37    2
    37    10    38   ar
    38    38    39   ar
    39     6    40   ar
    40    40     2   ar
    41    39     7   ar
    42    36    11   am
    43    21    15   ar
    44    35    22    1
    45    32    27   ar
    46     1    41    1
    47     1    42    1
    48     1    43    1
    49     5    44    1
    50     5    45    1
    51     5    46    1
    52     8    47    1
    53     9    48    1
    54    16    49    1
    55    19    50    1
    56    20    51    1
    57    23    52    1
    58    23    53    1
    59    24    54    1
    60    24    55    1
    61    26    56    1
    62    26    57    1
    63    29    58    1
    64    30    59    1
    65    31    60    1
    66    33    61    1
    67    33    62    1
    68    33    63    1
    69    34    64    1
    70    34    65    1
    71    35    66    1
    72    35    67    1
    73    38    68    1
    74    39    69    1
