
     RDKit          3D

 69 74  0  0  0  0  0  0  0  0999 V2000
    9.5146    4.5459   -1.0955 C   0  0  0  0  0  0  0  0  0  0  0  0
    8.6889    3.3952   -0.5393 C   0  0  0  0  0  0  0  0  0  0  0  0
    8.7716    2.4492    0.1451 N   0  0  0  0  0  0  0  0  0  0  0  0
    7.8616    1.5683    0.4889 C   0  0  0  0  0  0  0  0  0  0  0  0
    8.1402    0.3925    1.3867 C   0  0  0  0  0  0  0  0  0  0  0  0
    6.6077    1.8077   -0.0505 C   0  0  0  0  0  0  0  0  0  0  0  0
    5.3227    1.1412    0.0293 C   0  0  0  0  0  0  0  0  0  0  0  0
    5.0286    0.0235    0.7539 C   0  0  0  0  0  0  0  0  0  0  0  0
    3.7714   -0.5496    0.7677 C   0  0  0  0  0  0  0  0  0  0  0  0
    2.7421   -0.0039    0.0350 C   0  0  0  0  0  0  0  0  0  0  0  0
    1.4398   -0.5652    0.0277 N   0  0  0  0  0  0  0  0  0  0  0  0
    0.9020   -1.5554   -0.8449 C   0  0  0  0  0  0  0  0  0  0  0  0
    1.5214   -2.1255   -1.8009 O   0  0  0  0  0  0  0  0  0  0  0  0
   -0.4651   -1.7926   -0.4493 N   0  0  0  0  0  0  0  0  0  0  0  0
   -1.1789   -2.9949   -0.6555 C   0  0  0  0  0  0  0  0  0  0  0  0
   -1.1854   -4.0155    0.2692 C   0  0  0  0  0  0  0  0  0  0  0  0
   -1.9035   -5.1950    0.0336 C   0  0  0  0  0  0  0  0  0  0  0  0
   -1.9203   -6.1319    0.8625 O   0  0  0  0  0  0  0  0  0  0  0  0
   -2.5999   -5.3469   -1.1054 N   0  0  0  0  0  0  0  0  0  0  0  0
   -2.5786   -4.3377   -1.9927 C   0  0  0  0  0  0  0  0  0  0  0  0
   -1.8905   -3.1974   -1.7759 N   0  0  0  0  0  0  0  0  0  0  0  0
   -0.8781   -0.5507    0.1739 C   0  0  0  0  0  0  0  0  0  0  0  0
   -2.0222   -0.7275    1.1154 C   0  0  0  0  0  0  0  0  0  0  0  0
   -3.3733   -0.6730    0.4178 C   0  0  0  0  0  0  0  0  0  0  0  0
   -3.3704    0.1570   -0.7056 N   0  0  0  0  0  0  0  0  0  0  0  0
   -4.5374    0.4209   -1.4209 C   0  0  0  0  0  0  0  0  0  0  0  0
   -5.6709    1.0117   -0.6935 C   0  0  0  0  0  0  0  0  0  0  0  0
   -5.8123    2.3670   -0.7436 N   0  0  0  0  0  0  0  0  0  0  0  0
   -6.7835    3.0304   -0.0988 C   0  0  0  0  0  0  0  0  0  0  0  0
   -7.7157    2.3727    0.6681 C   0  0  0  0  0  0  0  0  0  0  0  0
   -7.6079    1.0051    0.7437 C   0  0  0  0  0  0  0  0  0  0  0  0
   -6.5885    0.3470    0.0619 C   0  0  0  0  0  0  0  0  0  0  0  0
   -6.5452   -1.1277    0.1537 C   0  0  0  0  0  0  0  0  0  0  0  0
   -2.3655    1.1499   -0.7729 C   0  0  0  0  0  0  0  0  0  0  0  0
   -1.0272    0.4942   -0.8671 C   0  0  0  0  0  0  0  0  0  0  0  0
    0.3853   -0.2231    0.9349 C   0  0  0  0  0  0  0  0  0  0  0  0
    0.4896    0.2430    2.0981 O   0  0  0  0  0  0  0  0  0  0  0  0
    3.0394    1.1222   -0.6948 C   0  0  0  0  0  0  0  0  0  0  0  0
    4.2779    1.7018   -0.7196 C   0  0  0  0  0  0  0  0  0  0  0  0
    6.8901    3.3148   -1.0179 S   0  0  0  0  0  0  0  0  0  0  0  0
    9.0226    4.9944   -1.9609 H   0  0  0  0  0  0  0  0  0  0  0  0
   10.4546    4.0818   -1.4333 H   0  0  0  0  0  0  0  0  0  0  0  0
    9.6697    5.3099   -0.3148 H   0  0  0  0  0  0  0  0  0  0  0  0
    7.9859   -0.5765    0.8798 H   0  0  0  0  0  0  0  0  0  0  0  0
    7.6156    0.4284    2.3363 H   0  0  0  0  0  0  0  0  0  0  0  0
    9.2317    0.3674    1.6675 H   0  0  0  0  0  0  0  0  0  0  0  0
    5.7728   -0.4466    1.3427 H   0  0  0  0  0  0  0  0  0  0  0  0
    3.5942   -1.4253    1.3528 H   0  0  0  0  0  0  0  0  0  0  0  0
   -0.6468   -3.9403    1.1893 H   0  0  0  0  0  0  0  0  0  0  0  0
   -3.1458   -6.2365   -1.2903 H   0  0  0  0  0  0  0  0  0  0  0  0
   -3.1566   -4.4997   -2.9051 H   0  0  0  0  0  0  0  0  0  0  0  0
   -1.9944    0.1076    1.8417 H   0  0  0  0  0  0  0  0  0  0  0  0
   -1.9961   -1.6669    1.6764 H   0  0  0  0  0  0  0  0  0  0  0  0
   -4.0707   -0.2675    1.1924 H   0  0  0  0  0  0  0  0  0  0  0  0
   -3.7429   -1.7123    0.2052 H   0  0  0  0  0  0  0  0  0  0  0  0
   -4.8473   -0.5308   -1.9463 H   0  0  0  0  0  0  0  0  0  0  0  0
   -4.3177    1.1190   -2.2924 H   0  0  0  0  0  0  0  0  0  0  0  0
   -6.8549    4.1193   -0.1700 H   0  0  0  0  0  0  0  0  0  0  0  0
   -8.5107    2.8947    1.1986 H   0  0  0  0  0  0  0  0  0  0  0  0
   -8.2957    0.4239    1.3208 H   0  0  0  0  0  0  0  0  0  0  0  0
   -7.6112   -1.4832    0.0709 H   0  0  0  0  0  0  0  0  0  0  0  0
   -6.0003   -1.6142   -0.6573 H   0  0  0  0  0  0  0  0  0  0  0  0
   -6.2085   -1.4434    1.1668 H   0  0  0  0  0  0  0  0  0  0  0  0
   -2.5516    1.7729   -1.6839 H   0  0  0  0  0  0  0  0  0  0  0  0
   -2.3874    1.7632    0.1503 H   0  0  0  0  0  0  0  0  0  0  0  0
   -0.8321    0.0476   -1.8672 H   0  0  0  0  0  0  0  0  0  0  0  0
   -0.2587    1.3103   -0.7808 H   0  0  0  0  0  0  0  0  0  0  0  0
    2.2414    1.5768   -1.2862 H   0  0  0  0  0  0  0  0  0  0  0  0
    4.4662    2.5784   -1.3018 H   0  0  0  0  0  0  0  0  0  0  0  0
  1  2  1  0
  2  3  2  0
  3  4  1  0
  4  5  1  0
  4  6  2  0
  6  7  1  0
  7  8  2  0
  8  9  1  0
  9 10  2  0
 10 11  1  0
 11 12  1  0
 12 13  2  0
 12 14  1  0
 14 15  1  0
 15 16  2  0
 16 17  1  0
 17 18  2  0
 17 19  1  0
 19 20  1  0
 20 21  2  0
 14 22  1  0
 22 23  1  0
 23 24  1  0
 24 25  1  0
 25 26  1  0
 26 27  1  0
 27 28  2  0
 28 29  1  0
 29 30  2  0
 30 31  1  0
 31 32  2  0
 32 33  1  0
 25 34  1  0
 34 35  1  0
 22 36  1  0
 36 37  2  0
 10 38  1  0
 38 39  2  0
  6 40  1  0
 40  2  1  0
 39  7  1  0
 36 11  1  0
 21 15  1  0
 35 22  1  0
 32 27  1  0
  1 41  1  0
  1 42  1  0
  1 43  1  0
  5 44  1  0
  5 45  1  0
  5 46  1  0
  8 47  1  0
  9 48  1  0
 16 49  1  0
 19 50  1  0
 20 51  1  0
 23 52  1  0
 23 53  1  0
 24 54  1  0
 24 55  1  0
 26 56  1  0
 26 57  1  0
 29 58  1  0
 30 59  1  0
 31 60  1  0
 33 61  1  0
 33 62  1  0
 33 63  1  0
 34 64  1  0
 34 65  1  0
 35 66  1  0
 35 67  1  0
 38 68  1  0
 39 69  1  0
M  END
$$$$
