@<TRIPOS>MOLECULE
*****
 59 63 0 0 0
SMALL
GASTEIGER

@<TRIPOS>ATOM
      1 C          -6.1477    1.0735   -1.6683 C.3     1  UNL1        0.0788
      2 O          -5.4744    1.1108   -0.4387 O.3     1  UNL1       -0.4945
      3 C          -4.0803    1.0193   -0.3421 C.ar    1  UNL1        0.1293
      4 C          -3.3253    0.8873   -1.4861 C.ar    1  UNL1       -0.0190
      5 C          -1.9607    0.7990   -1.3857 C.ar    1  UNL1       -0.0550
      6 C          -1.3113    0.8376   -0.1735 C.ar    1  UNL1       -0.0447
      7 C           0.1655    0.7350   -0.1613 C.3     1  UNL1       -0.0068
      8 C           0.6004   -0.7006   -0.0602 C.3     1  UNL1        0.0537
      9 C           0.0996   -1.3656    1.2022 C.3     1  UNL1        0.0666
     10 O           0.7263   -2.5535    1.4714 O.3     1  UNL1       -0.3764
     11 C           1.3092   -3.1598    0.3715 C.3     1  UNL1        0.0635
     12 C           2.4052   -2.3261   -0.2363 C.3     1  UNL1        0.0388
     13 N           1.9923   -0.9491   -0.1817 N.am    1  UNL1       -0.2897
     14 C           2.9383    0.0849   -0.2506 C.2     1  UNL1        0.2491
     15 O           2.6757    1.3207   -0.2110 O.2     1  UNL1       -0.2699
     16 C           4.3909   -0.1953   -0.3818 C.ar    1  UNL1        0.0640
     17 C           5.1430   -0.3376    0.7651 C.ar    1  UNL1       -0.0475
     18 C           6.4920   -0.5985    0.6432 C.ar    1  UNL1       -0.0609
     19 C           7.0977   -0.7189   -0.6087 C.ar    1  UNL1       -0.0597
     20 C           6.2947   -0.5667   -1.7071 C.ar    1  UNL1       -0.0338
     21 C           4.9317   -0.3032   -1.6526 C.ar    1  UNL1        0.0982
     22 N           4.1566   -0.1563   -2.8277 N.ar    1  UNL1       -0.1496
     23 N           4.0633   -0.9839   -3.8475 N.ar    1  UNL1       -0.1556
     24 C           3.2197   -0.4712   -4.7607 C.ar    1  UNL1        0.0697
     25 C           2.7758    0.7353   -4.2679 C.ar    1  UNL1        0.0697
     26 N           3.3820    0.8822   -3.0762 N.ar    1  UNL1       -0.1556
     27 C          -2.0930    0.9693    0.9417 C.ar    1  UNL1       -0.0458
     28 C          -3.5017    1.0638    0.8871 C.ar    1  UNL1        0.0422
     29 C          -4.1957    1.2068    2.1710 C.ar    1  UNL1        0.0745
     30 C          -5.5428    1.2543    2.3127 C.ar    1  UNL1       -0.0356
     31 C          -6.1562    1.3866    3.5779 C.ar    1  UNL1       -0.0583
     32 C          -5.3838    1.4690    4.6873 C.ar    1  UNL1       -0.0436
     33 C          -4.0199    1.4188    4.5220 C.ar    1  UNL1        0.0283
     34 N          -3.4715    1.2937    3.3168 N.ar    1  UNL1       -0.2549
     35 H          -5.6114    1.8089   -2.3365 H       1  UNL1        0.0660
     36 H          -6.1045    0.0564   -2.0924 H       1  UNL1        0.0660
     37 H          -7.1949    1.4194   -1.5843 H       1  UNL1        0.0660
     38 H          -3.8157    0.8540   -2.4604 H       1  UNL1        0.0654
     39 H          -1.4126    0.6951   -2.3293 H       1  UNL1        0.0621
     40 H           0.5405    1.1626   -1.1083 H       1  UNL1        0.0332
     41 H           0.5577    1.3571    0.6733 H       1  UNL1        0.0332
     42 H           0.0342   -1.2321   -0.8922 H       1  UNL1        0.0526
     43 H          -0.9996   -1.5959    1.0843 H       1  UNL1        0.0578
     44 H           0.1795   -0.6985    2.0888 H       1  UNL1        0.0578
     45 H           1.7521   -4.1222    0.7405 H       1  UNL1        0.0575
     46 H           0.5226   -3.4413   -0.3596 H       1  UNL1        0.0575
     47 H           3.3944   -2.5146    0.2085 H       1  UNL1        0.0487
     48 H           2.4469   -2.6049   -1.3243 H       1  UNL1        0.0487
     49 H           4.7504   -0.2590    1.7686 H       1  UNL1        0.0626
     50 H           7.1408   -0.7215    1.4989 H       1  UNL1        0.0618
     51 H           8.1598   -0.9242   -0.6652 H       1  UNL1        0.0618
     52 H           6.7374   -0.6548   -2.6896 H       1  UNL1        0.0639
     53 H           2.9032   -0.8656   -5.7127 H       1  UNL1        0.0864
     54 H           2.0831    1.4453   -4.7174 H       1  UNL1        0.0864
     55 H          -1.6202    1.0041    1.9249 H       1  UNL1        0.0628
     56 H          -6.2072    1.1897    1.4695 H       1  UNL1        0.0639
     57 H          -7.2245    1.4200    3.6443 H       1  UNL1        0.0619
     58 H          -5.7941    1.5730    5.7015 H       1  UNL1        0.0633
     59 H          -3.4137    1.4876    5.4383 H       1  UNL1        0.0830
@<TRIPOS>BOND
     1     1     2    1
     2     2     3    1
     3     3     4   ar
     4     4     5   ar
     5     5     6   ar
     6     6     7    1
     7     7     8    1
     8     8     9    1
     9     9    10    1
    10    10    11    1
    11    11    12    1
    12    12    13    1
    13    13    14   am
    14    14    15    2
    15    14    16    1
    16    16    17   ar
    17    17    18   ar
    18    18    19   ar
    19    19    20   ar
    20    20    21   ar
    21    21    22    1
    22    22    23   ar
    23    23    24   ar
    24    24    25   ar
    25    25    26   ar
    26     6    27   ar
    27    27    28   ar
    28    28    29    1
    29    29    30   ar
    30    30    31   ar
    31    31    32   ar
    32    32    33   ar
    33    33    34   ar
    34    28     3   ar
    35    34    29   ar
    36    13     8    1
    37    21    16   ar
    38    26    22   ar
    39     1    35    1
    40     1    36    1
    41     1    37    1
    42     4    38    1
    43     5    39    1
    44     7    40    1
    45     7    41    1
    46     8    42    1
    47     9    43    1
    48     9    44    1
    49    11    45    1
    50    11    46    1
    51    12    47    1
    52    12    48    1
    53    17    49    1
    54    18    50    1
    55    19    51    1
    56    20    52    1
    57    24    53    1
    58    25    54    1
    59    27    55    1
    60    30    56    1
    61    31    57    1
    62    32    58    1
    63    33    59    1
