
     RDKit          3D

 59 63  0  0  0  0  0  0  0  0999 V2000
   -6.1477    1.0735   -1.6683 C   0  0  0  0  0  0  0  0  0  0  0  0
   -5.4744    1.1108   -0.4387 O   0  0  0  0  0  0  0  0  0  0  0  0
   -4.0803    1.0193   -0.3421 C   0  0  0  0  0  0  0  0  0  0  0  0
   -3.3253    0.8873   -1.4861 C   0  0  0  0  0  0  0  0  0  0  0  0
   -1.9607    0.7990   -1.3857 C   0  0  0  0  0  0  0  0  0  0  0  0
   -1.3113    0.8376   -0.1735 C   0  0  0  0  0  0  0  0  0  0  0  0
    0.1655    0.7350   -0.1613 C   0  0  0  0  0  0  0  0  0  0  0  0
    0.6004   -0.7006   -0.0602 C   0  0  2  0  0  0  0  0  0  0  0  0
    0.0996   -1.3656    1.2022 C   0  0  0  0  0  0  0  0  0  0  0  0
    0.7263   -2.5535    1.4714 O   0  0  0  0  0  0  0  0  0  0  0  0
    1.3092   -3.1598    0.3715 C   0  0  0  0  0  0  0  0  0  0  0  0
    2.4052   -2.3261   -0.2363 C   0  0  0  0  0  0  0  0  0  0  0  0
    1.9923   -0.9491   -0.1817 N   0  0  0  0  0  0  0  0  0  0  0  0
    2.9383    0.0849   -0.2506 C   0  0  0  0  0  0  0  0  0  0  0  0
    2.6757    1.3207   -0.2110 O   0  0  0  0  0  0  0  0  0  0  0  0
    4.3909   -0.1953   -0.3818 C   0  0  0  0  0  0  0  0  0  0  0  0
    5.1430   -0.3376    0.7651 C   0  0  0  0  0  0  0  0  0  0  0  0
    6.4920   -0.5985    0.6432 C   0  0  0  0  0  0  0  0  0  0  0  0
    7.0977   -0.7189   -0.6087 C   0  0  0  0  0  0  0  0  0  0  0  0
    6.2947   -0.5667   -1.7071 C   0  0  0  0  0  0  0  0  0  0  0  0
    4.9317   -0.3032   -1.6526 C   0  0  0  0  0  0  0  0  0  0  0  0
    4.1566   -0.1563   -2.8277 N   0  0  0  0  0  0  0  0  0  0  0  0
    4.0633   -0.9839   -3.8475 N   0  0  0  0  0  0  0  0  0  0  0  0
    3.2197   -0.4712   -4.7607 C   0  0  0  0  0  0  0  0  0  0  0  0
    2.7758    0.7353   -4.2679 C   0  0  0  0  0  0  0  0  0  0  0  0
    3.3820    0.8822   -3.0762 N   0  0  0  0  0  0  0  0  0  0  0  0
   -2.0930    0.9693    0.9417 C   0  0  0  0  0  0  0  0  0  0  0  0
   -3.5017    1.0638    0.8871 C   0  0  0  0  0  0  0  0  0  0  0  0
   -4.1957    1.2068    2.1710 C   0  0  0  0  0  0  0  0  0  0  0  0
   -5.5428    1.2543    2.3127 C   0  0  0  0  0  0  0  0  0  0  0  0
   -6.1562    1.3866    3.5779 C   0  0  0  0  0  0  0  0  0  0  0  0
   -5.3838    1.4690    4.6873 C   0  0  0  0  0  0  0  0  0  0  0  0
   -4.0199    1.4188    4.5220 C   0  0  0  0  0  0  0  0  0  0  0  0
   -3.4715    1.2937    3.3168 N   0  0  0  0  0  0  0  0  0  0  0  0
   -5.6114    1.8089   -2.3365 H   0  0  0  0  0  0  0  0  0  0  0  0
   -6.1045    0.0564   -2.0924 H   0  0  0  0  0  0  0  0  0  0  0  0
   -7.1949    1.4194   -1.5843 H   0  0  0  0  0  0  0  0  0  0  0  0
   -3.8157    0.8540   -2.4604 H   0  0  0  0  0  0  0  0  0  0  0  0
   -1.4126    0.6951   -2.3293 H   0  0  0  0  0  0  0  0  0  0  0  0
    0.5405    1.1626   -1.1083 H   0  0  0  0  0  0  0  0  0  0  0  0
    0.5577    1.3571    0.6733 H   0  0  0  0  0  0  0  0  0  0  0  0
    0.0342   -1.2321   -0.8922 H   0  0  0  0  0  0  0  0  0  0  0  0
   -0.9996   -1.5959    1.0843 H   0  0  0  0  0  0  0  0  0  0  0  0
    0.1795   -0.6985    2.0888 H   0  0  0  0  0  0  0  0  0  0  0  0
    1.7521   -4.1222    0.7405 H   0  0  0  0  0  0  0  0  0  0  0  0
    0.5226   -3.4413   -0.3596 H   0  0  0  0  0  0  0  0  0  0  0  0
    3.3944   -2.5146    0.2085 H   0  0  0  0  0  0  0  0  0  0  0  0
    2.4469   -2.6049   -1.3243 H   0  0  0  0  0  0  0  0  0  0  0  0
    4.7504   -0.2590    1.7686 H   0  0  0  0  0  0  0  0  0  0  0  0
    7.1408   -0.7215    1.4989 H   0  0  0  0  0  0  0  0  0  0  0  0
    8.1598   -0.9242   -0.6652 H   0  0  0  0  0  0  0  0  0  0  0  0
    6.7374   -0.6548   -2.6896 H   0  0  0  0  0  0  0  0  0  0  0  0
    2.9032   -0.8656   -5.7127 H   0  0  0  0  0  0  0  0  0  0  0  0
    2.0831    1.4453   -4.7174 H   0  0  0  0  0  0  0  0  0  0  0  0
   -1.6202    1.0041    1.9249 H   0  0  0  0  0  0  0  0  0  0  0  0
   -6.2072    1.1897    1.4695 H   0  0  0  0  0  0  0  0  0  0  0  0
   -7.2245    1.4200    3.6443 H   0  0  0  0  0  0  0  0  0  0  0  0
   -5.7941    1.5730    5.7015 H   0  0  0  0  0  0  0  0  0  0  0  0
   -3.4137    1.4876    5.4383 H   0  0  0  0  0  0  0  0  0  0  0  0
  1  2  1  0
  2  3  1  0
  3  4  2  0
  4  5  1  0
  5  6  2  0
  6  7  1  0
  7  8  1  0
  8  9  1  0
  9 10  1  0
 10 11  1  0
 11 12  1  0
 12 13  1  0
 13 14  1  0
 14 15  2  0
 14 16  1  0
 16 17  2  0
 17 18  1  0
 18 19  2  0
 19 20  1  0
 20 21  2  0
 21 22  1  0
 22 23  1  0
 23 24  2  0
 24 25  1  0
 25 26  2  0
  6 27  1  0
 27 28  2  0
 28 29  1  0
 29 30  2  0
 30 31  1  0
 31 32  2  0
 32 33  1  0
 33 34  2  0
 28  3  1  0
 34 29  1  0
 13  8  1  0
 21 16  1  0
 26 22  1  0
  1 35  1  0
  1 36  1  0
  1 37  1  0
  4 38  1  0
  5 39  1  0
  7 40  1  0
  7 41  1  0
  8 42  1  6
  9 43  1  0
  9 44  1  0
 11 45  1  0
 11 46  1  0
 12 47  1  0
 12 48  1  0
 17 49  1  0
 18 50  1  0
 19 51  1  0
 20 52  1  0
 24 53  1  0
 25 54  1  0
 27 55  1  0
 30 56  1  0
 31 57  1  0
 32 58  1  0
 33 59  1  0
M  END
$$$$
