@<TRIPOS>MOLECULE
*****
 65 70 0 0 0
SMALL
GASTEIGER

@<TRIPOS>ATOM
      1 C          10.0240    2.2930   -0.1103 C.3     1  UNL1        0.0789
      2 O           9.0215    2.4005    0.8806 O.3     1  UNL1       -0.4936
      3 C           7.8231    1.7238    0.7059 C.ar    1  UNL1        0.1384
      4 C           6.8699    1.8519    1.6920 C.ar    1  UNL1        0.0700
      5 N           5.6955    1.2258    1.5813 N.ar    1  UNL1       -0.2465
      6 C           5.3845    0.4348    0.4948 C.ar    1  UNL1        0.1288
      7 C           4.1008   -0.2164    0.4995 C.2     1  UNL1        0.2668
      8 O           3.5873   -0.4108    1.6710 O.2     1  UNL1       -0.2682
      9 N           3.3290   -0.6638   -0.5935 N.am    1  UNL1       -0.2802
     10 C           2.0485   -1.3152   -0.3746 C.ar    1  UNL1        0.0343
     11 C           1.9508   -2.6808   -0.2184 C.ar    1  UNL1       -0.0370
     12 C           0.7331   -3.2916   -0.0107 C.ar    1  UNL1       -0.0172
     13 C          -0.4323   -2.5302    0.0452 C.ar    1  UNL1        0.1346
     14 C          -0.3746   -1.1787   -0.1070 C.ar    1  UNL1        0.0285
     15 C           0.8915   -0.5783   -0.3178 C.ar    1  UNL1       -0.0312
     16 C          -1.5347   -0.2646   -0.0995 C.3     1  UNL1        0.1217
     17 C          -1.7111    0.2399   -1.5057 C.3     1  UNL1       -0.0096
     18 C          -1.2323    1.5795   -1.8612 C.3     1  UNL1        0.0037
     19 S          -1.7996    2.7635   -0.6042 S.3     1  UNL1       -0.0910
     20 C          -1.4368    1.9409    0.9365 C.2     1  UNL1        0.1478
     21 N          -1.2447    2.7682    2.0761 N.pl3   1  UNL1       -0.3380
     22 N          -1.3721    0.6880    0.9278 N.2     1  UNL1       -0.2472
     23 C          -2.8003   -1.0311    0.1783 C.ar    1  UNL1        0.0332
     24 C          -3.9992   -0.2781    0.2527 C.ar    1  UNL1       -0.0265
     25 C          -5.1822   -0.9201    0.4733 C.ar    1  UNL1        0.0705
     26 C          -6.4377   -0.1898    0.5571 C.2     1  UNL1       -0.0215
     27 C          -6.4721    1.1152    0.4219 C.2     1  UNL1       -0.0534
     28 C          -7.8566    1.7170    0.5360 C.3     1  UNL1        0.0665
     29 O          -8.7585    1.0553   -0.2535 O.3     1  UNL1       -0.3754
     30 C          -8.7290   -0.3126   -0.1871 C.3     1  UNL1        0.0521
     31 C          -7.7362   -0.8735    0.7982 C.3     1  UNL1       -0.0024
     32 N          -5.1777   -2.2823    0.6174 N.ar    1  UNL1       -0.2164
     33 C          -4.0442   -2.9884    0.5469 C.ar    1  UNL1        0.2566
     34 F          -4.0086   -4.3407    0.6859 F       1  UNL1       -0.1799
     35 C          -2.8000   -2.3722    0.3218 C.ar    1  UNL1        0.1883
     36 O          -1.6516   -3.1585    0.2625 O.3     1  UNL1       -0.4508
     37 C           6.3165    0.2909   -0.4968 C.ar    1  UNL1       -0.0165
     38 C           6.1680   -0.5615   -1.6985 C.3     1  UNL1       -0.0374
     39 C           7.5469    0.9430   -0.3892 C.ar    1  UNL1       -0.0134
     40 H          10.1721    1.2134   -0.3534 H       1  UNL1        0.0660
     41 H           9.7277    2.8006   -1.0533 H       1  UNL1        0.0660
     42 H          10.9918    2.7026    0.2759 H       1  UNL1        0.0660
     43 H           7.0577    2.4692    2.5842 H       1  UNL1        0.0867
     44 H           3.6623   -0.5029   -1.5521 H       1  UNL1        0.1552
     45 H           2.8427   -3.2835   -0.2593 H       1  UNL1        0.0637
     46 H           0.7321   -4.3656    0.1035 H       1  UNL1        0.0655
     47 H           0.9606    0.4877   -0.4256 H       1  UNL1        0.0641
     48 H          -1.2164   -0.4892   -2.2233 H       1  UNL1        0.0303
     49 H          -2.7996    0.1799   -1.8300 H       1  UNL1        0.0303
     50 H          -1.7981    1.8859   -2.8062 H       1  UNL1        0.0381
     51 H          -0.1391    1.6861   -2.0678 H       1  UNL1        0.0381
     52 H          -1.8637    2.6571    2.8980 H       1  UNL1        0.1442
     53 H          -0.4919    3.4840    2.0983 H       1  UNL1        0.1442
     54 H          -3.9094    0.7973    0.1274 H       1  UNL1        0.0644
     55 H          -5.6257    1.7306    0.2470 H       1  UNL1        0.0598
     56 H          -8.1074    1.6477    1.6261 H       1  UNL1        0.0604
     57 H          -7.7860    2.7583    0.2116 H       1  UNL1        0.0604
     58 H          -9.7582   -0.7327   -0.0182 H       1  UNL1        0.0563
     59 H          -8.4337   -0.7117   -1.2007 H       1  UNL1        0.0563
     60 H          -7.6781   -1.9598    0.6412 H       1  UNL1        0.0336
     61 H          -8.0636   -0.6045    1.8316 H       1  UNL1        0.0336
     62 H           5.6618   -0.0205   -2.5094 H       1  UNL1        0.0278
     63 H           5.6635   -1.5098   -1.4340 H       1  UNL1        0.0278
     64 H           7.1915   -0.8542   -2.0944 H       1  UNL1        0.0278
     65 H           8.3074    0.8553   -1.1516 H       1  UNL1        0.0658
@<TRIPOS>BOND
     1     1     2    1
     2     2     3    1
     3     3     4   ar
     4     4     5   ar
     5     5     6   ar
     6     6     7    1
     7     7     8    2
     8     7     9   am
     9     9    10    1
    10    10    11   ar
    11    11    12   ar
    12    12    13   ar
    13    13    14   ar
    14    14    15   ar
    15    14    16    1
    16    16    17    1
    17    17    18    1
    18    18    19    1
    19    19    20    1
    20    20    21    1
    21    20    22    2
    22    16    23    1
    23    23    24   ar
    24    24    25   ar
    25    25    26    1
    26    26    27    2
    27    27    28    1
    28    28    29    1
    29    29    30    1
    30    30    31    1
    31    25    32   ar
    32    32    33   ar
    33    33    34    1
    34    33    35   ar
    35    35    36    1
    36     6    37   ar
    37    37    38    1
    38    37    39   ar
    39    39     3   ar
    40    15    10   ar
    41    22    16    1
    42    35    23   ar
    43    36    13    1
    44    31    26    1
    45     1    40    1
    46     1    41    1
    47     1    42    1
    48     4    43    1
    49     9    44    1
    50    11    45    1
    51    12    46    1
    52    15    47    1
    53    17    48    1
    54    17    49    1
    55    18    50    1
    56    18    51    1
    57    21    52    1
    58    21    53    1
    59    24    54    1
    60    27    55    1
    61    28    56    1
    62    28    57    1
    63    30    58    1
    64    30    59    1
    65    31    60    1
    66    31    61    1
    67    38    62    1
    68    38    63    1
    69    38    64    1
    70    39    65    1
