
     RDKit          3D

 65 70  0  0  0  0  0  0  0  0999 V2000
   10.0240    2.2930   -0.1103 C   0  0  0  0  0  0  0  0  0  0  0  0
    9.0215    2.4005    0.8806 O   0  0  0  0  0  0  0  0  0  0  0  0
    7.8231    1.7238    0.7059 C   0  0  0  0  0  0  0  0  0  0  0  0
    6.8699    1.8519    1.6920 C   0  0  0  0  0  0  0  0  0  0  0  0
    5.6955    1.2258    1.5813 N   0  0  0  0  0  0  0  0  0  0  0  0
    5.3845    0.4348    0.4948 C   0  0  0  0  0  0  0  0  0  0  0  0
    4.1008   -0.2164    0.4995 C   0  0  0  0  0  0  0  0  0  0  0  0
    3.5873   -0.4108    1.6710 O   0  0  0  0  0  0  0  0  0  0  0  0
    3.3290   -0.6638   -0.5935 N   0  0  0  0  0  0  0  0  0  0  0  0
    2.0485   -1.3152   -0.3746 C   0  0  0  0  0  0  0  0  0  0  0  0
    1.9508   -2.6808   -0.2184 C   0  0  0  0  0  0  0  0  0  0  0  0
    0.7331   -3.2916   -0.0107 C   0  0  0  0  0  0  0  0  0  0  0  0
   -0.4323   -2.5302    0.0452 C   0  0  0  0  0  0  0  0  0  0  0  0
   -0.3746   -1.1787   -0.1070 C   0  0  0  0  0  0  0  0  0  0  0  0
    0.8915   -0.5783   -0.3178 C   0  0  0  0  0  0  0  0  0  0  0  0
   -1.5347   -0.2646   -0.0995 C   0  0  0  0  0  0  0  0  0  0  0  0
   -1.7111    0.2399   -1.5057 C   0  0  0  0  0  0  0  0  0  0  0  0
   -1.2323    1.5795   -1.8612 C   0  0  0  0  0  0  0  0  0  0  0  0
   -1.7996    2.7635   -0.6042 S   0  0  0  0  0  0  0  0  0  0  0  0
   -1.4368    1.9409    0.9365 C   0  0  0  0  0  0  0  0  0  0  0  0
   -1.2447    2.7682    2.0761 N   0  0  0  0  0  0  0  0  0  0  0  0
   -1.3721    0.6880    0.9278 N   0  0  0  0  0  0  0  0  0  0  0  0
   -2.8003   -1.0311    0.1783 C   0  0  0  0  0  0  0  0  0  0  0  0
   -3.9992   -0.2781    0.2527 C   0  0  0  0  0  0  0  0  0  0  0  0
   -5.1822   -0.9201    0.4733 C   0  0  0  0  0  0  0  0  0  0  0  0
   -6.4377   -0.1898    0.5571 C   0  0  0  0  0  0  0  0  0  0  0  0
   -6.4721    1.1152    0.4219 C   0  0  0  0  0  0  0  0  0  0  0  0
   -7.8566    1.7170    0.5360 C   0  0  0  0  0  0  0  0  0  0  0  0
   -8.7585    1.0553   -0.2535 O   0  0  0  0  0  0  0  0  0  0  0  0
   -8.7290   -0.3126   -0.1871 C   0  0  0  0  0  0  0  0  0  0  0  0
   -7.7362   -0.8735    0.7982 C   0  0  0  0  0  0  0  0  0  0  0  0
   -5.1777   -2.2823    0.6174 N   0  0  0  0  0  0  0  0  0  0  0  0
   -4.0442   -2.9884    0.5469 C   0  0  0  0  0  0  0  0  0  0  0  0
   -4.0086   -4.3407    0.6859 F   0  0  0  0  0  0  0  0  0  0  0  0
   -2.8000   -2.3722    0.3218 C   0  0  0  0  0  0  0  0  0  0  0  0
   -1.6516   -3.1585    0.2625 O   0  0  0  0  0  0  0  0  0  0  0  0
    6.3165    0.2909   -0.4968 C   0  0  0  0  0  0  0  0  0  0  0  0
    6.1680   -0.5615   -1.6985 C   0  0  0  0  0  0  0  0  0  0  0  0
    7.5469    0.9430   -0.3892 C   0  0  0  0  0  0  0  0  0  0  0  0
   10.1721    1.2134   -0.3534 H   0  0  0  0  0  0  0  0  0  0  0  0
    9.7277    2.8006   -1.0533 H   0  0  0  0  0  0  0  0  0  0  0  0
   10.9918    2.7026    0.2759 H   0  0  0  0  0  0  0  0  0  0  0  0
    7.0577    2.4692    2.5842 H   0  0  0  0  0  0  0  0  0  0  0  0
    3.6623   -0.5029   -1.5521 H   0  0  0  0  0  0  0  0  0  0  0  0
    2.8427   -3.2835   -0.2593 H   0  0  0  0  0  0  0  0  0  0  0  0
    0.7321   -4.3656    0.1035 H   0  0  0  0  0  0  0  0  0  0  0  0
    0.9606    0.4877   -0.4256 H   0  0  0  0  0  0  0  0  0  0  0  0
   -1.2164   -0.4892   -2.2233 H   0  0  0  0  0  0  0  0  0  0  0  0
   -2.7996    0.1799   -1.8300 H   0  0  0  0  0  0  0  0  0  0  0  0
   -1.7981    1.8859   -2.8062 H   0  0  0  0  0  0  0  0  0  0  0  0
   -0.1391    1.6861   -2.0678 H   0  0  0  0  0  0  0  0  0  0  0  0
   -1.8637    2.6571    2.8980 H   0  0  0  0  0  0  0  0  0  0  0  0
   -0.4919    3.4840    2.0983 H   0  0  0  0  0  0  0  0  0  0  0  0
   -3.9094    0.7973    0.1274 H   0  0  0  0  0  0  0  0  0  0  0  0
   -5.6257    1.7306    0.2470 H   0  0  0  0  0  0  0  0  0  0  0  0
   -8.1074    1.6477    1.6261 H   0  0  0  0  0  0  0  0  0  0  0  0
   -7.7860    2.7583    0.2116 H   0  0  0  0  0  0  0  0  0  0  0  0
   -9.7582   -0.7327   -0.0182 H   0  0  0  0  0  0  0  0  0  0  0  0
   -8.4337   -0.7117   -1.2007 H   0  0  0  0  0  0  0  0  0  0  0  0
   -7.6781   -1.9598    0.6412 H   0  0  0  0  0  0  0  0  0  0  0  0
   -8.0636   -0.6045    1.8316 H   0  0  0  0  0  0  0  0  0  0  0  0
    5.6618   -0.0205   -2.5094 H   0  0  0  0  0  0  0  0  0  0  0  0
    5.6635   -1.5098   -1.4340 H   0  0  0  0  0  0  0  0  0  0  0  0
    7.1915   -0.8542   -2.0944 H   0  0  0  0  0  0  0  0  0  0  0  0
    8.3074    0.8553   -1.1516 H   0  0  0  0  0  0  0  0  0  0  0  0
  1  2  1  0
  2  3  1  0
  3  4  2  0
  4  5  1  0
  5  6  2  0
  6  7  1  0
  7  8  2  0
  7  9  1  0
  9 10  1  0
 10 11  2  0
 11 12  1  0
 12 13  2  0
 13 14  1  0
 14 15  2  0
 14 16  1  0
 16 17  1  0
 17 18  1  0
 18 19  1  0
 19 20  1  0
 20 21  1  0
 20 22  2  0
 16 23  1  0
 23 24  2  0
 24 25  1  0
 25 26  1  0
 26 27  2  0
 27 28  1  0
 28 29  1  0
 29 30  1  0
 30 31  1  0
 25 32  2  0
 32 33  1  0
 33 34  1  0
 33 35  2  0
 35 36  1  0
  6 37  1  0
 37 38  1  0
 37 39  2  0
 39  3  1  0
 15 10  1  0
 22 16  1  0
 35 23  1  0
 36 13  1  0
 31 26  1  0
  1 40  1  0
  1 41  1  0
  1 42  1  0
  4 43  1  0
  9 44  1  0
 11 45  1  0
 12 46  1  0
 15 47  1  0
 17 48  1  0
 17 49  1  0
 18 50  1  0
 18 51  1  0
 21 52  1  0
 21 53  1  0
 24 54  1  0
 27 55  1  0
 28 56  1  0
 28 57  1  0
 30 58  1  0
 30 59  1  0
 31 60  1  0
 31 61  1  0
 38 62  1  0
 38 63  1  0
 38 64  1  0
 39 65  1  0
M  END
$$$$
