@<TRIPOS>MOLECULE
*****
 117 121 0 0 0
SMALL
GASTEIGER

@<TRIPOS>ATOM
      1 C          -5.6241    5.1565   -0.3914 C.3     1  UNL1        0.0372
      2 O          -4.9099    4.4131    0.5378 O.3     1  UNL1       -0.3753
      3 C          -3.9724    3.6407   -0.1060 C.3     1  UNL1        0.0854
      4 C          -2.5888    4.2235    0.2023 C.2     1  UNL1       -0.0208
      5 C          -1.5661    4.8748    0.8365 C.2     1  UNL1        0.0882
      6 O          -0.1608    5.1211    0.5223 O.2     1  UNL1       -0.4528
      7 C           0.3981    4.0189   -0.0882 C.3     1  UNL1        0.3143
      8 C          -0.2600    2.7201    0.3629 C.3     1  UNL1        0.0210
      9 O           0.3156    4.1526   -1.5541 O.3     1  UNL1       -0.4436
     10 C           0.6793    2.8291   -1.9225 C.ar    1  UNL1        0.1435
     11 C           1.6493    2.5565   -0.9455 C.ar    1  UNL1        0.0788
     12 C           1.8350    3.7321   -0.0394 C.2     1  UNL1        0.2505
     13 O           2.5195    4.4986    0.6542 O.2     1  UNL1       -0.2836
     14 C           2.2178    1.2763   -0.9767 C.ar    1  UNL1        0.0456
     15 C           2.9940    1.0576    0.0957 C.ar    1  UNL1        0.1361
     16 O           3.3635    2.0415    0.9577 O.3     1  UNL1       -0.5054
     17 C           3.0376   -0.2281   -0.2565 C.ar    1  UNL1        0.0613
     18 C           3.9874   -0.4703    0.8780 C.2     1  UNL1        0.0580
     19 N           5.1373   -0.8718    0.3923 N.2     1  UNL1       -0.1917
     20 N           6.2038   -1.1470    1.2978 N.pl3   1  UNL1       -0.2531
     21 C           6.5552    0.1132    1.9260 C.3     1  UNL1        0.0425
     22 C           7.7383   -0.0676    2.8243 C.3     1  UNL1        0.0159
     23 N           8.8333   -0.6917    2.1546 N.3     1  UNL1       -0.3023
     24 C           9.4856    0.2900    1.3072 C.3     1  UNL1       -0.0126
     25 C           8.4600   -1.8255    1.3533 C.3     1  UNL1        0.0159
     26 C           7.0403   -2.2496    1.7682 C.3     1  UNL1        0.0425
     27 C           2.7797   -1.2791   -0.9813 C.ar    1  UNL1        0.0886
     28 N           3.0392   -2.6141   -0.7862 N.am    1  UNL1       -0.2782
     29 C           3.3077   -3.9491   -0.5921 C.2     1  UNL1        0.2441
     30 O           4.5280   -3.8036   -0.7230 O.2     1  UNL1       -0.2702
     31 C           2.6480   -5.2125   -0.3369 C.2     1  UNL1        0.0115
     32 C           3.5316   -6.3551   -0.1197 C.3     1  UNL1       -0.0348
     33 C           1.3466   -5.3897   -0.2892 C.2     1  UNL1       -0.0542
     34 C           0.3297   -4.3685   -0.4913 C.2     1  UNL1       -0.0649
     35 C          -0.9891   -4.4924   -0.4531 C.2     1  UNL1       -0.0787
     36 C          -2.0040   -3.3720   -0.6807 C.3     1  UNL1        0.0009
     37 C          -1.4338   -2.2344   -1.4342 C.3     1  UNL1       -0.0566
     38 C          -2.8691   -3.1570    0.4663 C.3     1  UNL1        0.0661
     39 O          -3.7552   -4.2021    0.7322 O.3     1  UNL1       -0.3909
     40 C          -3.3939   -1.8146    0.8521 C.3     1  UNL1        0.0091
     41 C          -2.2613   -0.9207    1.2375 C.3     1  UNL1       -0.0577
     42 C          -4.4947   -1.2435    0.0248 C.3     1  UNL1        0.0661
     43 O          -5.4405   -2.3612    0.0809 O.3     1  UNL1       -0.3910
     44 C          -5.2370   -0.0626    0.5093 C.3     1  UNL1        0.0200
     45 C          -5.8046   -0.1848    1.9115 C.3     1  UNL1       -0.0567
     46 C          -5.0451    1.3331    0.0679 C.3     1  UNL1        0.1131
     47 O          -5.2582    1.4273   -1.3728 O.3     1  UNL1       -0.4608
     48 C          -6.4251    1.8993   -1.8908 C.2     1  UNL1        0.3042
     49 C          -6.4830    1.9402   -3.3907 C.3     1  UNL1        0.0332
     50 O          -7.4870    2.3153   -1.3227 O.2     1  UNL1       -0.2512
     51 C          -3.9346    2.1813    0.3913 C.3     1  UNL1        0.0236
     52 C          -3.7597    2.3972    1.9187 C.3     1  UNL1       -0.0564
     53 C           1.9667   -0.8085   -2.0448 C.ar    1  UNL1        0.1500
     54 O           1.6762   -1.8658   -2.8446 O.3     1  UNL1       -0.5042
     55 C           1.6927    0.5331   -2.0003 C.ar    1  UNL1        0.0714
     56 C           0.7805    0.7669   -2.9601 C.ar    1  UNL1        0.1346
     57 O           0.2850    0.0082   -3.9796 O.3     1  UNL1       -0.5057
     58 C           0.1917    2.0447   -2.9466 C.ar    1  UNL1        0.0342
     59 C          -0.8372    2.5405   -3.9080 C.3     1  UNL1       -0.0327
     60 H          -6.3871    5.7824    0.1518 H       1  UNL1        0.0524
     61 H          -4.8976    5.8955   -0.8540 H       1  UNL1        0.0524
     62 H          -6.0247    4.6023   -1.2352 H       1  UNL1        0.0524
     63 H          -4.1181    3.7597   -1.1663 H       1  UNL1        0.0645
     64 H          -1.9930    3.9637   -0.6969 H       1  UNL1        0.0628
     65 H          -1.6926    5.3709    1.8188 H       1  UNL1        0.1022
     66 H          -1.0021    2.8669    1.1693 H       1  UNL1        0.0309
     67 H          -0.6033    2.1090   -0.4879 H       1  UNL1        0.0309
     68 H           0.4954    2.0304    0.8710 H       1  UNL1        0.0309
     69 H           4.3203    2.3487    1.1400 H       1  UNL1        0.2922
     70 H           3.9785   -0.4195    1.9638 H       1  UNL1        0.0853
     71 H           5.6777    0.5159    2.4772 H       1  UNL1        0.0492
     72 H           6.7712    0.8659    1.1163 H       1  UNL1        0.0492
     73 H           8.0342    0.9570    3.2091 H       1  UNL1        0.0442
     74 H           7.4259   -0.6735    3.7015 H       1  UNL1        0.0442
     75 H           9.4506    1.2789    1.7939 H       1  UNL1        0.0391
     76 H          10.5193   -0.0771    1.1328 H       1  UNL1        0.0391
     77 H           8.9119    0.3457    0.3452 H       1  UNL1        0.0391
     78 H           8.4534   -1.6151    0.2557 H       1  UNL1        0.0442
     79 H           9.1415   -2.6578    1.5821 H       1  UNL1        0.0442
     80 H           6.7972   -3.1778    1.2210 H       1  UNL1        0.0492
     81 H           6.9659   -2.4000    2.8399 H       1  UNL1        0.0492
     82 H           2.0830   -2.6649   -0.4895 H       1  UNL1        0.1552
     83 H           3.7993   -6.5461    0.9317 H       1  UNL1        0.0279
     84 H           4.4829   -6.2352   -0.6802 H       1  UNL1        0.0279
     85 H           3.0523   -7.2610   -0.5795 H       1  UNL1        0.0279
     86 H           0.9108   -6.3524   -0.0888 H       1  UNL1        0.0622
     87 H           0.2975   -3.3174   -0.7290 H       1  UNL1        0.0615
     88 H          -1.4295   -5.4972   -0.2389 H       1  UNL1        0.0576
     89 H          -2.6658   -3.8897   -1.4643 H       1  UNL1        0.0365
     90 H          -0.8346   -2.7085   -2.2757 H       1  UNL1        0.0236
     91 H          -2.2380   -1.7106   -1.9940 H       1  UNL1        0.0236
     92 H          -0.7305   -1.5785   -0.9244 H       1  UNL1        0.0236
     93 H          -2.1202   -3.3484    1.3653 H       1  UNL1        0.0602
     94 H          -4.2430   -4.4060   -0.1202 H       1  UNL1        0.2098
     95 H          -3.9055   -2.0512    1.8462 H       1  UNL1        0.0348
     96 H          -2.3660   -0.4805    2.2480 H       1  UNL1        0.0234
     97 H          -1.3118   -1.5587    1.3735 H       1  UNL1        0.0234
     98 H          -1.9484   -0.1582    0.5513 H       1  UNL1        0.0234
     99 H          -4.3231   -1.2331   -1.0667 H       1  UNL1        0.0600
    100 H          -6.2196   -2.0624   -0.4603 H       1  UNL1        0.2098
    101 H          -6.3015   -0.2499   -0.0500 H       1  UNL1        0.0359
    102 H          -5.0481   -0.0892    2.7137 H       1  UNL1        0.0234
    103 H          -6.4830    0.6823    2.0179 H       1  UNL1        0.0234
    104 H          -6.4437   -1.0803    2.0226 H       1  UNL1        0.0234
    105 H          -5.9969    1.8512    0.4145 H       1  UNL1        0.0741
    106 H          -7.5214    1.7477   -3.7329 H       1  UNL1        0.0342
    107 H          -5.7441    1.2899   -3.8657 H       1  UNL1        0.0342
    108 H          -6.3146    3.0290   -3.6514 H       1  UNL1        0.0342
    109 H          -2.9256    1.8480    0.0774 H       1  UNL1        0.0362
    110 H          -3.0211    1.7167    2.3395 H       1  UNL1        0.0234
    111 H          -3.4279    3.4197    2.1568 H       1  UNL1        0.0234
    112 H          -4.7434    2.2610    2.4307 H       1  UNL1        0.0234
    113 H           1.4359   -1.9001   -3.7979 H       1  UNL1        0.2923
    114 H           0.7188    0.0989   -4.9077 H       1  UNL1        0.2922
    115 H          -0.6579    2.0325   -4.8585 H       1  UNL1        0.0280
    116 H          -1.8334    2.2153   -3.5257 H       1  UNL1        0.0280
    117 H          -0.7653    3.6547   -3.9488 H       1  UNL1        0.0280
@<TRIPOS>BOND
     1     1     2    1
     2     2     3    1
     3     3     4    1
     4     4     5    2
     5     5     6    1
     6     6     7    1
     7     7     8    1
     8     7     9    1
     9     9    10    1
    10    10    11   ar
    11    11    12    1
    12    12    13    2
    13    11    14   ar
    14    14    15   ar
    15    15    16    1
    16    15    17   ar
    17    17    18    1
    18    18    19    2
    19    19    20    1
    20    20    21    1
    21    21    22    1
    22    22    23    1
    23    23    24    1
    24    23    25    1
    25    25    26    1
    26    17    27   ar
    27    27    28    1
    28    28    29   am
    29    29    30    2
    30    29    31    1
    31    31    32    1
    32    31    33    2
    33    33    34    1
    34    34    35    2
    35    35    36    1
    36    36    37    1
    37    36    38    1
    38    38    39    1
    39    38    40    1
    40    40    41    1
    41    40    42    1
    42    42    43    1
    43    42    44    1
    44    44    45    1
    45    44    46    1
    46    46    47    1
    47    47    48    1
    48    48    49    1
    49    48    50    2
    50    46    51    1
    51    51    52    1
    52    27    53   ar
    53    53    54    1
    54    53    55   ar
    55    55    56   ar
    56    56    57    1
    57    56    58   ar
    58    58    59    1
    59    51     3    1
    60    12     7    1
    61    55    14   ar
    62    58    10   ar
    63    26    20    1
    64     1    60    1
    65     1    61    1
    66     1    62    1
    67     3    63    1
    68     4    64    1
    69     5    65    1
    70     8    66    1
    71     8    67    1
    72     8    68    1
    73    16    69    1
    74    18    70    1
    75    21    71    1
    76    21    72    1
    77    22    73    1
    78    22    74    1
    79    24    75    1
    80    24    76    1
    81    24    77    1
    82    25    78    1
    83    25    79    1
    84    26    80    1
    85    26    81    1
    86    28    82    1
    87    32    83    1
    88    32    84    1
    89    32    85    1
    90    33    86    1
    91    34    87    1
    92    35    88    1
    93    36    89    1
    94    37    90    1
    95    37    91    1
    96    37    92    1
    97    38    93    1
    98    39    94    1
    99    40    95    1
   100    41    96    1
   101    41    97    1
   102    41    98    1
   103    42    99    1
   104    43   100    1
   105    44   101    1
   106    45   102    1
   107    45   103    1
   108    45   104    1
   109    46   105    1
   110    49   106    1
   111    49   107    1
   112    49   108    1
   113    51   109    1
   114    52   110    1
   115    52   111    1
   116    52   112    1
   117    54   113    1
   118    57   114    1
   119    59   115    1
   120    59   116    1
   121    59   117    1
