@<TRIPOS>MOLECULE
*****
 53 58 0 0 0
SMALL
GASTEIGER

@<TRIPOS>ATOM
      1 C          -9.8843   -2.1745   -1.1115 C.3     1  UNL1       -0.0064
      2 C          -8.6082   -1.5973   -0.5583 C.ar    1  UNL1        0.1051
      3 N          -7.3569   -1.8314   -0.9901 N.ar    1  UNL1       -0.2327
      4 C          -6.4952   -1.1180   -0.2226 C.ar    1  UNL1        0.0911
      5 C          -5.1043   -1.0057   -0.2490 C.ar    1  UNL1       -0.0087
      6 C          -4.4635   -0.1951    0.6628 C.ar    1  UNL1        0.0696
      7 N          -3.0421   -0.0543    0.6672 N.ar    1  UNL1       -0.2182
      8 N          -2.1612   -0.9683    1.0140 N.ar    1  UNL1       -0.1723
      9 C          -0.9130   -0.4249    0.8741 C.ar    1  UNL1        0.0626
     10 C          -1.0089    0.8701    0.4249 C.ar    1  UNL1        0.0829
     11 C          -0.0088    1.8770    0.1534 C.2     1  UNL1        0.2140
     12 O          -0.3899    3.0693   -0.0690 O.2     1  UNL1       -0.2849
     13 C           1.4163    1.6231    0.1164 C.ar    1  UNL1        0.0883
     14 C           2.4107    2.6276    0.2067 C.ar    1  UNL1       -0.0255
     15 C           3.6497    2.0521    0.0981 C.ar    1  UNL1        0.0004
     16 C           4.9289    2.5600    0.1196 C.ar    1  UNL1       -0.0520
     17 C           5.9776    1.6900   -0.0186 C.ar    1  UNL1       -0.0533
     18 C           5.8117    0.3361   -0.1775 C.ar    1  UNL1       -0.0159
     19 C           6.9524   -0.5631   -0.3220 C.ar    1  UNL1       -0.0178
     20 C           6.9224   -1.7188   -1.0536 C.ar    1  UNL1       -0.0540
     21 C           8.0201   -2.5435   -1.1672 C.ar    1  UNL1       -0.0612
     22 C           9.2110   -2.2292   -0.5367 C.ar    1  UNL1       -0.0617
     23 C           9.2255   -1.0608    0.1971 C.ar    1  UNL1       -0.0612
     24 C           8.1371   -0.2290    0.3186 C.ar    1  UNL1       -0.0540
     25 C           4.5363   -0.1680   -0.1987 C.ar    1  UNL1       -0.0301
     26 C           3.4509    0.7047   -0.0590 C.ar    1  UNL1        0.0476
     27 N           2.1054    0.4922   -0.0429 N.ar    1  UNL1       -0.3516
     28 C          -2.4010    1.0620    0.3075 C.ar    1  UNL1        0.1307
     29 N          -2.9736    2.2783   -0.1325 N.pl3   1  UNL1       -0.3425
     30 C          -5.2427    0.4806    1.5770 C.ar    1  UNL1       -0.0341
     31 C          -6.6171    0.3708    1.6045 C.ar    1  UNL1       -0.0342
     32 C          -7.2842   -0.4485    0.6851 C.ar    1  UNL1        0.0663
     33 N          -8.5693   -0.7433    0.4769 N.ar    1  UNL1       -0.3420
     34 H         -10.6923   -2.0882   -0.3647 H       1  UNL1        0.0307
     35 H          -9.7418   -3.2703   -1.2850 H       1  UNL1        0.0307
     36 H         -10.2004   -1.6383   -2.0097 H       1  UNL1        0.0307
     37 H          -4.5325   -1.5505   -0.9796 H       1  UNL1        0.0661
     38 H          -0.0266   -0.9658    1.1087 H       1  UNL1        0.0856
     39 H           2.1669    3.6782    0.3422 H       1  UNL1        0.0646
     40 H           5.0582    3.6236    0.2444 H       1  UNL1        0.0624
     41 H           6.9759    2.0843   -0.0021 H       1  UNL1        0.0624
     42 H           5.9883   -1.9743   -1.5538 H       1  UNL1        0.0624
     43 H           7.9683   -3.4609   -1.7583 H       1  UNL1        0.0618
     44 H          10.1000   -2.8555   -0.6029 H       1  UNL1        0.0618
     45 H          10.1498   -0.7871    0.7050 H       1  UNL1        0.0618
     46 H           8.1757    0.6940    0.9082 H       1  UNL1        0.0624
     47 H           4.3423   -1.2242   -0.3206 H       1  UNL1        0.0644
     48 H           1.7225   -0.4699   -0.1645 H       1  UNL1        0.1660
     49 H          -3.5118    2.3922   -1.0165 H       1  UNL1        0.1437
     50 H          -2.8531    3.1233    0.4629 H       1  UNL1        0.1437
     51 H          -4.7302    1.1191    2.2942 H       1  UNL1        0.0639
     52 H          -7.2338    0.9003    2.3216 H       1  UNL1        0.0639
     53 H          -9.3569   -0.3502    1.0480 H       1  UNL1        0.1671
@<TRIPOS>BOND
     1     1     2    1
     2     2     3   ar
     3     3     4   ar
     4     4     5   ar
     5     5     6   ar
     6     6     7    1
     7     7     8   ar
     8     8     9   ar
     9     9    10   ar
    10    10    11    1
    11    11    12    2
    12    11    13    1
    13    13    14   ar
    14    14    15   ar
    15    15    16   ar
    16    16    17   ar
    17    17    18   ar
    18    18    19    1
    19    19    20   ar
    20    20    21   ar
    21    21    22   ar
    22    22    23   ar
    23    23    24   ar
    24    18    25   ar
    25    25    26   ar
    26    26    27   ar
    27    10    28   ar
    28    28    29    1
    29     6    30   ar
    30    30    31   ar
    31    31    32   ar
    32    32    33   ar
    33    33     2   ar
    34    32     4   ar
    35    28     7   ar
    36    27    13   ar
    37    26    15   ar
    38    24    19   ar
    39     1    34    1
    40     1    35    1
    41     1    36    1
    42     5    37    1
    43     9    38    1
    44    14    39    1
    45    16    40    1
    46    17    41    1
    47    20    42    1
    48    21    43    1
    49    22    44    1
    50    23    45    1
    51    24    46    1
    52    25    47    1
    53    27    48    1
    54    29    49    1
    55    29    50    1
    56    30    51    1
    57    31    52    1
    58    33    53    1
