@<TRIPOS>MOLECULE
*****
 51 50 0 0 0
SMALL
GASTEIGER

@<TRIPOS>ATOM
      1 C          -2.6701   -0.3294    0.7201 C.3     1  UNL1        0.1597
      2 C          -2.6718   -0.8241    2.1532 C.3     1  UNL1        0.0844
      3 O          -1.4608   -0.5239    2.7695 O.3     1  UNL1       -0.3912
      4 C          -1.5257   -0.9464   -0.0175 C.3     1  UNL1        0.1315
      5 O          -0.2804   -0.6268    0.5598 O.3     1  UNL1       -0.4608
      6 C           0.1752    0.6569    0.6905 C.2     1  UNL1        0.3072
      7 O          -0.4799    1.6601    0.3058 O.2     1  UNL1       -0.2509
      8 C           1.4528    1.1258    1.2731 C.3     1  UNL1        0.0449
      9 C           2.3101   -0.0102    1.7635 C.3     1  UNL1       -0.0430
     10 C           2.6955   -0.9897    0.7111 C.3     1  UNL1       -0.0526
     11 C           3.4830   -0.3949   -0.4243 C.3     1  UNL1       -0.0530
     12 C           4.7647    0.2169    0.0640 C.3     1  UNL1       -0.0531
     13 C           5.5945    0.8294   -1.0372 C.3     1  UNL1       -0.0533
     14 C           5.9776   -0.2150   -2.0741 C.3     1  UNL1       -0.0559
     15 C           6.7811   -1.3214   -1.4432 C.3     1  UNL1       -0.0653
     16 O          -3.9194   -0.6559    0.1329 O.3     1  UNL1       -0.4556
     17 C          -4.8097    0.2915   -0.3140 C.2     1  UNL1        0.3075
     18 O          -4.6827    1.5608   -0.2839 O.2     1  UNL1       -0.2508
     19 C          -6.1293    0.0192   -0.9360 C.3     1  UNL1        0.0447
     20 C          -6.7545    1.3573   -1.2661 C.3     1  UNL1       -0.0458
     21 C          -8.0932    1.1507   -1.8989 C.3     1  UNL1       -0.0648
     22 H          -2.5960    0.7611    0.7293 H       1  UNL1        0.0792
     23 H          -3.4745   -0.3423    2.7512 H       1  UNL1        0.0595
     24 H          -2.8254   -1.9198    2.1607 H       1  UNL1        0.0595
     25 H          -0.8557   -1.3166    2.8137 H       1  UNL1        0.2096
     26 H          -1.5385   -0.5736   -1.0677 H       1  UNL1        0.0736
     27 H          -1.6461   -2.0379   -0.0666 H       1  UNL1        0.0736
     28 H           1.9868    1.8007    0.5807 H       1  UNL1        0.0377
     29 H           1.2001    1.7368    2.1680 H       1  UNL1        0.0377
     30 H           1.6755   -0.5835    2.4954 H       1  UNL1        0.0270
     31 H           3.1594    0.3705    2.3349 H       1  UNL1        0.0270
     32 H           1.8459   -1.5760    0.3576 H       1  UNL1        0.0265
     33 H           3.3839   -1.7208    1.2058 H       1  UNL1        0.0265
     34 H           2.9439    0.3393   -1.0210 H       1  UNL1        0.0265
     35 H           3.7496   -1.2461   -1.0897 H       1  UNL1        0.0265
     36 H           5.4141   -0.5282    0.5909 H       1  UNL1        0.0265
     37 H           4.5640    1.0279    0.8036 H       1  UNL1        0.0265
     38 H           6.5445    1.1648   -0.5651 H       1  UNL1        0.0265
     39 H           5.1453    1.7031   -1.5077 H       1  UNL1        0.0265
     40 H           5.0557   -0.6272   -2.5412 H       1  UNL1        0.0263
     41 H           6.5766    0.2678   -2.8587 H       1  UNL1        0.0263
     42 H           7.2005   -0.9211   -0.4861 H       1  UNL1        0.0230
     43 H           7.6264   -1.6202   -2.1217 H       1  UNL1        0.0230
     44 H           6.1501   -2.1822   -1.2118 H       1  UNL1        0.0230
     45 H          -6.7808   -0.4948   -0.1977 H       1  UNL1        0.0377
     46 H          -5.9988   -0.6247   -1.8259 H       1  UNL1        0.0377
     47 H          -6.0949    1.8663   -1.9979 H       1  UNL1        0.0268
     48 H          -6.8509    1.9113   -0.3155 H       1  UNL1        0.0268
     49 H          -7.9668    0.7882   -2.9418 H       1  UNL1        0.0230
     50 H          -8.6288    2.1287   -1.9209 H       1  UNL1        0.0230
     51 H          -8.7221    0.4176   -1.3578 H       1  UNL1        0.0230
@<TRIPOS>BOND
     1     1     2    1
     2     2     3    1
     3     1     4    1
     4     4     5    1
     5     5     6    1
     6     6     7    2
     7     6     8    1
     8     8     9    1
     9     9    10    1
    10    10    11    1
    11    11    12    1
    12    12    13    1
    13    13    14    1
    14    14    15    1
    15     1    16    1
    16    16    17    1
    17    17    18    2
    18    17    19    1
    19    19    20    1
    20    20    21    1
    21     1    22    1
    22     2    23    1
    23     2    24    1
    24     3    25    1
    25     4    26    1
    26     4    27    1
    27     8    28    1
    28     8    29    1
    29     9    30    1
    30     9    31    1
    31    10    32    1
    32    10    33    1
    33    11    34    1
    34    11    35    1
    35    12    36    1
    36    12    37    1
    37    13    38    1
    38    13    39    1
    39    14    40    1
    40    14    41    1
    41    15    42    1
    42    15    43    1
    43    15    44    1
    44    19    45    1
    45    19    46    1
    46    20    47    1
    47    20    48    1
    48    21    49    1
    49    21    50    1
    50    21    51    1
