
     RDKit          3D

 51 50  0  0  0  0  0  0  0  0999 V2000
   -2.6701   -0.3294    0.7201 C   0  0  1  0  0  0  0  0  0  0  0  0
   -2.6718   -0.8241    2.1532 C   0  0  0  0  0  0  0  0  0  0  0  0
   -1.4608   -0.5239    2.7695 O   0  0  0  0  0  0  0  0  0  0  0  0
   -1.5257   -0.9464   -0.0175 C   0  0  0  0  0  0  0  0  0  0  0  0
   -0.2804   -0.6268    0.5598 O   0  0  0  0  0  0  0  0  0  0  0  0
    0.1752    0.6569    0.6905 C   0  0  0  0  0  0  0  0  0  0  0  0
   -0.4799    1.6601    0.3058 O   0  0  0  0  0  0  0  0  0  0  0  0
    1.4528    1.1258    1.2731 C   0  0  0  0  0  0  0  0  0  0  0  0
    2.3101   -0.0102    1.7635 C   0  0  0  0  0  0  0  0  0  0  0  0
    2.6955   -0.9897    0.7111 C   0  0  0  0  0  0  0  0  0  0  0  0
    3.4830   -0.3949   -0.4243 C   0  0  0  0  0  0  0  0  0  0  0  0
    4.7647    0.2169    0.0640 C   0  0  0  0  0  0  0  0  0  0  0  0
    5.5945    0.8294   -1.0372 C   0  0  0  0  0  0  0  0  0  0  0  0
    5.9776   -0.2150   -2.0741 C   0  0  0  0  0  0  0  0  0  0  0  0
    6.7811   -1.3214   -1.4432 C   0  0  0  0  0  0  0  0  0  0  0  0
   -3.9194   -0.6559    0.1329 O   0  0  0  0  0  0  0  0  0  0  0  0
   -4.8097    0.2915   -0.3140 C   0  0  0  0  0  0  0  0  0  0  0  0
   -4.6827    1.5608   -0.2839 O   0  0  0  0  0  0  0  0  0  0  0  0
   -6.1293    0.0192   -0.9360 C   0  0  0  0  0  0  0  0  0  0  0  0
   -6.7545    1.3573   -1.2661 C   0  0  0  0  0  0  0  0  0  0  0  0
   -8.0932    1.1507   -1.8989 C   0  0  0  0  0  0  0  0  0  0  0  0
   -2.5960    0.7611    0.7293 H   0  0  0  0  0  0  0  0  0  0  0  0
   -3.4745   -0.3423    2.7512 H   0  0  0  0  0  0  0  0  0  0  0  0
   -2.8254   -1.9198    2.1607 H   0  0  0  0  0  0  0  0  0  0  0  0
   -0.8557   -1.3166    2.8137 H   0  0  0  0  0  0  0  0  0  0  0  0
   -1.5385   -0.5736   -1.0677 H   0  0  0  0  0  0  0  0  0  0  0  0
   -1.6461   -2.0379   -0.0666 H   0  0  0  0  0  0  0  0  0  0  0  0
    1.9868    1.8007    0.5807 H   0  0  0  0  0  0  0  0  0  0  0  0
    1.2001    1.7368    2.1680 H   0  0  0  0  0  0  0  0  0  0  0  0
    1.6755   -0.5835    2.4954 H   0  0  0  0  0  0  0  0  0  0  0  0
    3.1594    0.3705    2.3349 H   0  0  0  0  0  0  0  0  0  0  0  0
    1.8459   -1.5760    0.3576 H   0  0  0  0  0  0  0  0  0  0  0  0
    3.3839   -1.7208    1.2058 H   0  0  0  0  0  0  0  0  0  0  0  0
    2.9439    0.3393   -1.0210 H   0  0  0  0  0  0  0  0  0  0  0  0
    3.7496   -1.2461   -1.0897 H   0  0  0  0  0  0  0  0  0  0  0  0
    5.4141   -0.5282    0.5909 H   0  0  0  0  0  0  0  0  0  0  0  0
    4.5640    1.0279    0.8036 H   0  0  0  0  0  0  0  0  0  0  0  0
    6.5445    1.1648   -0.5651 H   0  0  0  0  0  0  0  0  0  0  0  0
    5.1453    1.7031   -1.5077 H   0  0  0  0  0  0  0  0  0  0  0  0
    5.0557   -0.6272   -2.5412 H   0  0  0  0  0  0  0  0  0  0  0  0
    6.5766    0.2678   -2.8587 H   0  0  0  0  0  0  0  0  0  0  0  0
    7.2005   -0.9211   -0.4861 H   0  0  0  0  0  0  0  0  0  0  0  0
    7.6264   -1.6202   -2.1217 H   0  0  0  0  0  0  0  0  0  0  0  0
    6.1501   -2.1822   -1.2118 H   0  0  0  0  0  0  0  0  0  0  0  0
   -6.7808   -0.4948   -0.1977 H   0  0  0  0  0  0  0  0  0  0  0  0
   -5.9988   -0.6247   -1.8259 H   0  0  0  0  0  0  0  0  0  0  0  0
   -6.0949    1.8663   -1.9979 H   0  0  0  0  0  0  0  0  0  0  0  0
   -6.8509    1.9113   -0.3155 H   0  0  0  0  0  0  0  0  0  0  0  0
   -7.9668    0.7882   -2.9418 H   0  0  0  0  0  0  0  0  0  0  0  0
   -8.6288    2.1287   -1.9209 H   0  0  0  0  0  0  0  0  0  0  0  0
   -8.7221    0.4176   -1.3578 H   0  0  0  0  0  0  0  0  0  0  0  0
  1  2  1  0
  2  3  1  0
  1  4  1  0
  4  5  1  0
  5  6  1  0
  6  7  2  0
  6  8  1  0
  8  9  1  0
  9 10  1  0
 10 11  1  0
 11 12  1  0
 12 13  1  0
 13 14  1  0
 14 15  1  0
  1 16  1  0
 16 17  1  0
 17 18  2  0
 17 19  1  0
 19 20  1  0
 20 21  1  0
  1 22  1  1
  2 23  1  0
  2 24  1  0
  3 25  1  0
  4 26  1  0
  4 27  1  0
  8 28  1  0
  8 29  1  0
  9 30  1  0
  9 31  1  0
 10 32  1  0
 10 33  1  0
 11 34  1  0
 11 35  1  0
 12 36  1  0
 12 37  1  0
 13 38  1  0
 13 39  1  0
 14 40  1  0
 14 41  1  0
 15 42  1  0
 15 43  1  0
 15 44  1  0
 19 45  1  0
 19 46  1  0
 20 47  1  0
 20 48  1  0
 21 49  1  0
 21 50  1  0
 21 51  1  0
M  END
$$$$
