@<TRIPOS>MOLECULE
*****
 72 77 0 0 0
SMALL
GASTEIGER

@<TRIPOS>ATOM
      1 C           5.0952    4.9651    0.7173 C.3     1  UNL1        0.0364
      2 O           5.4242    3.6722    0.3017 O.3     1  UNL1       -0.3830
      3 C           4.4062    2.7800    0.5260 C.3     1  UNL1        0.0476
      4 C           4.7922    1.3598    0.0623 C.3     1  UNL1       -0.0255
      5 C           3.5293    0.4932    0.3956 C.3     1  UNL1       -0.0250
      6 C           3.8927   -0.8558   -0.0089 C.ar    1  UNL1       -0.0393
      7 C           5.1499   -1.1172   -0.5787 C.ar    1  UNL1       -0.0580
      8 C           5.5740   -2.3945   -0.8327 C.ar    1  UNL1       -0.0609
      9 C           4.7572   -3.4548   -0.5264 C.ar    1  UNL1       -0.0540
     10 C           3.5030   -3.1970    0.0397 C.ar    1  UNL1       -0.0173
     11 C           2.7461   -4.3024    0.3815 C.ar    1  UNL1       -0.0540
     12 C           1.5459   -4.1262    0.9786 C.ar    1  UNL1       -0.0609
     13 C           1.1123   -2.8744    1.2226 C.ar    1  UNL1       -0.0565
     14 C           1.8158   -1.6864    0.9038 C.ar    1  UNL1       -0.0221
     15 C           1.2239   -0.3836    0.9550 C.3     1  UNL1        0.0406
     16 N           0.0953   -0.2220   -0.0841 N.am    1  UNL1       -0.2937
     17 C          -1.2257   -0.3801    0.3467 C.2     1  UNL1        0.2235
     18 O          -1.3042   -0.6337    1.6493 O.2     1  UNL1       -0.2751
     19 C          -2.5491   -0.3351   -0.2371 C.3     1  UNL1        0.0813
     20 C          -2.9158   -1.5369   -1.0043 C.3     1  UNL1        0.0100
     21 N          -4.2321   -2.0663   -0.8130 N.3     1  UNL1       -0.3150
     22 C          -4.6538   -2.2939    0.5102 C.3     1  UNL1       -0.0011
     23 C          -4.2759   -1.1826    1.4235 C.3     1  UNL1       -0.0062
     24 C          -3.6308   -0.0072    0.8013 C.3     1  UNL1        0.1086
     25 O          -3.0400    0.7076    1.8726 O.3     1  UNL1       -0.3633
     26 C          -2.7568    1.9833    1.3596 C.3     1  UNL1        0.0743
     27 C          -4.0220    2.2269    0.6054 C.ar    1  UNL1       -0.0131
     28 C          -4.5951    3.4261    0.2795 C.ar    1  UNL1       -0.0179
     29 C          -5.7964    3.4391   -0.4234 C.ar    1  UNL1        0.1587
     30 F          -6.3752    4.6191   -0.7515 F       1  UNL1       -0.2025
     31 C          -6.3742    2.2379   -0.7723 C.ar    1  UNL1        0.1588
     32 F          -7.5535    2.2076   -1.4650 F       1  UNL1       -0.2025
     33 C          -5.7671    1.0279   -0.4275 C.ar    1  UNL1       -0.0173
     34 C          -4.5701    1.0017    0.2734 C.ar    1  UNL1       -0.0068
     35 C           0.4644   -0.0406   -1.4363 C.3     1  UNL1        0.0265
     36 C          -0.3844    0.3165   -2.5818 C.3     1  UNL1       -0.0326
     37 C           0.1211   -1.0697   -2.4871 C.3     1  UNL1       -0.0326
     38 C           3.0383   -1.9202    0.3069 C.ar    1  UNL1       -0.0100
     39 H           5.9874    5.6070    0.4961 H       1  UNL1        0.0523
     40 H           4.2791    5.3747    0.0620 H       1  UNL1        0.0523
     41 H           4.7834    4.9993    1.7670 H       1  UNL1        0.0523
     42 H           4.0611    2.7519    1.5833 H       1  UNL1        0.0560
     43 H           3.5132    3.1235   -0.0649 H       1  UNL1        0.0560
     44 H           5.6354    1.0454    0.6657 H       1  UNL1        0.0290
     45 H           4.9305    1.4333   -1.0167 H       1  UNL1        0.0290
     46 H           3.6568    0.5964    1.4963 H       1  UNL1        0.0314
     47 H           2.8465    1.0850   -0.1440 H       1  UNL1        0.0314
     48 H           5.8027   -0.3093   -0.8218 H       1  UNL1        0.0620
     49 H           6.5287   -2.6062   -1.2640 H       1  UNL1        0.0618
     50 H           5.0759   -4.4571   -0.7152 H       1  UNL1        0.0624
     51 H           3.1550   -5.2916    0.1544 H       1  UNL1        0.0624
     52 H           0.9314   -4.9720    1.2610 H       1  UNL1        0.0618
     53 H           0.1485   -2.7194    1.7134 H       1  UNL1        0.0621
     54 H           0.4844   -0.6146    1.8650 H       1  UNL1        0.0514
     55 H           1.4623    0.4978    1.4348 H       1  UNL1        0.0514
     56 H          -2.5848    0.5846   -0.8946 H       1  UNL1        0.0439
     57 H          -2.2154   -2.3858   -0.6873 H       1  UNL1        0.0432
     58 H          -2.7651   -1.4751   -2.0902 H       1  UNL1        0.0432
     59 H          -4.9090   -1.9488   -1.5544 H       1  UNL1        0.1220
     60 H          -4.1823   -3.2298    0.9302 H       1  UNL1        0.0425
     61 H          -5.7390   -2.5113    0.5184 H       1  UNL1        0.0425
     62 H          -3.6791   -1.5250    2.3170 H       1  UNL1        0.0309
     63 H          -5.2371   -0.8113    1.8964 H       1  UNL1        0.0309
     64 H          -1.8869    2.0134    0.6939 H       1  UNL1        0.0610
     65 H          -2.6384    2.6722    2.2039 H       1  UNL1        0.0610
     66 H          -4.1398    4.3686    0.5556 H       1  UNL1        0.0651
     67 H          -6.2225    0.0781   -0.7034 H       1  UNL1        0.0651
     68 H           1.5935    0.1873   -1.6033 H       1  UNL1        0.0500
     69 H          -1.4725    0.3497   -2.6564 H       1  UNL1        0.0284
     70 H           0.0787    0.9770   -3.4032 H       1  UNL1        0.0284
     71 H          -0.4734   -1.9471   -2.2479 H       1  UNL1        0.0284
     72 H           0.9259   -1.3238   -3.2299 H       1  UNL1        0.0284
@<TRIPOS>BOND
     1     1     2    1
     2     2     3    1
     3     3     4    1
     4     4     5    1
     5     5     6    1
     6     6     7   ar
     7     7     8   ar
     8     8     9   ar
     9     9    10   ar
    10    10    11   ar
    11    11    12   ar
    12    12    13   ar
    13    13    14   ar
    14    14    15    1
    15    15    16    1
    16    16    17   am
    17    17    18    2
    18    17    19    1
    19    19    20    1
    20    20    21    1
    21    21    22    1
    22    22    23    1
    23    23    24    1
    24    24    25    1
    25    25    26    1
    26    26    27    1
    27    27    28   ar
    28    28    29   ar
    29    29    30    1
    30    29    31   ar
    31    31    32    1
    32    31    33   ar
    33    33    34   ar
    34    16    35    1
    35    35    36    1
    36    36    37    1
    37    14    38   ar
    38    38     6   ar
    39    38    10   ar
    40    24    19    1
    41    34    27   ar
    42    37    35    1
    43    34    24    1
    44     1    39    1
    45     1    40    1
    46     1    41    1
    47     3    42    1
    48     3    43    1
    49     4    44    1
    50     4    45    1
    51     5    46    1
    52     5    47    1
    53     7    48    1
    54     8    49    1
    55     9    50    1
    56    11    51    1
    57    12    52    1
    58    13    53    1
    59    15    54    1
    60    15    55    1
    61    19    56    1
    62    20    57    1
    63    20    58    1
    64    21    59    1
    65    22    60    1
    66    22    61    1
    67    23    62    1
    68    23    63    1
    69    26    64    1
    70    26    65    1
    71    28    66    1
    72    33    67    1
    73    35    68    1
    74    36    69    1
    75    36    70    1
    76    37    71    1
    77    37    72    1
