@<TRIPOS>MOLECULE
*****
 40 42 0 0 0
SMALL
GASTEIGER

@<TRIPOS>ATOM
      1 C           1.9799    1.1675   -1.4142 C.3     1  UNL1        0.0877
      2 O           1.7896    1.0197   -2.8007 O.3     1  UNL1       -0.3890
      3 C           0.5934    1.4892   -0.8421 C.3     1  UNL1        0.0212
      4 C           0.1468    0.0785   -0.4832 C.3     1  UNL1        0.1382
      5 O           1.2782   -0.3679    0.1870 O.3     1  UNL1       -0.3485
      6 C           2.2933   -0.1301   -0.7343 C.3     1  UNL1        0.1108
      7 C           3.6516   -0.0469   -0.0454 C.3     1  UNL1        0.0878
      8 O           3.9341   -1.2339    0.6115 O.3     1  UNL1       -0.2841
      9 P           5.4366   -1.1801    1.3886 P.3     1  UNL1        0.4724
     10 O           6.0343    0.4175    1.3105 O.3     1  UNL1       -0.3026
     11 O           6.5387   -2.1627    0.5524 O.3     1  UNL1       -0.3026
     12 O           5.3626   -1.6739    2.8165 O.2     1  UNL1       -0.2275
     13 N          -1.0584    0.0322    0.2780 N.ar    1  UNL1       -0.3204
     14 C          -1.2771    0.0390    1.5937 C.ar    1  UNL1        0.0082
     15 C          -2.6409   -0.0208    1.8733 C.ar    1  UNL1       -0.0361
     16 C          -3.2461   -0.0650    0.6302 C.ar    1  UNL1        0.0028
     17 C          -4.5842   -0.1312    0.3157 C.ar    1  UNL1       -0.0413
     18 C          -5.6999   -0.1704    1.2969 C.3     1  UNL1       -0.0391
     19 C          -4.9345   -0.1645   -1.0064 C.ar    1  UNL1       -0.0582
     20 C          -4.0174   -0.1349   -2.0188 C.ar    1  UNL1       -0.0595
     21 C          -2.6683   -0.0678   -1.6835 C.ar    1  UNL1       -0.0375
     22 C          -2.2731   -0.0322   -0.3424 C.ar    1  UNL1        0.0514
     23 H           2.6954    1.9663   -1.1900 H       1  UNL1        0.0621
     24 H           1.9159    0.0812   -3.0876 H       1  UNL1        0.2099
     25 H          -0.0427    1.9702   -1.6011 H       1  UNL1        0.0335
     26 H           0.6815    2.1253    0.0809 H       1  UNL1        0.0335
     27 H           0.0479   -0.4445   -1.4681 H       1  UNL1        0.0839
     28 H           2.3491   -0.9335   -1.4896 H       1  UNL1        0.0646
     29 H           3.6487    0.8215    0.6531 H       1  UNL1        0.0592
     30 H           4.4088    0.1064   -0.8391 H       1  UNL1        0.0592
     31 H           5.3772    0.9847    1.8114 H       1  UNL1        0.2220
     32 H           6.1160   -2.5579   -0.2544 H       1  UNL1        0.2220
     33 H          -0.5087    0.0844    2.3504 H       1  UNL1        0.0810
     34 H          -3.1556   -0.0325    2.8266 H       1  UNL1        0.0639
     35 H          -5.3675   -0.3078    2.3233 H       1  UNL1        0.0278
     36 H          -6.2204    0.8193    1.2250 H       1  UNL1        0.0278
     37 H          -6.4371   -0.9253    0.9511 H       1  UNL1        0.0278
     38 H          -5.9798   -0.2171   -1.3207 H       1  UNL1        0.0620
     39 H          -4.2559   -0.1593   -3.0600 H       1  UNL1        0.0618
     40 H          -1.9118   -0.0426   -2.4579 H       1  UNL1        0.0638
@<TRIPOS>BOND
     1     1     2    1
     2     1     3    1
     3     3     4    1
     4     4     5    1
     5     5     6    1
     6     6     7    1
     7     7     8    1
     8     8     9    1
     9     9    10    1
    10     9    11    1
    11     9    12    2
    12     4    13    1
    13    13    14   ar
    14    14    15   ar
    15    15    16   ar
    16    16    17   ar
    17    17    18    1
    18    17    19   ar
    19    19    20   ar
    20    20    21   ar
    21    21    22   ar
    22     6     1    1
    23    22    13   ar
    24    22    16   ar
    25     1    23    1
    26     2    24    1
    27     3    25    1
    28     3    26    1
    29     4    27    1
    30     6    28    1
    31     7    29    1
    32     7    30    1
    33    10    31    1
    34    11    32    1
    35    14    33    1
    36    15    34    1
    37    18    35    1
    38    18    36    1
    39    18    37    1
    40    19    38    1
    41    20    39    1
    42    21    40    1
