
     RDKit          3D

 40 42  0  0  0  0  0  0  0  0999 V2000
    1.9799    1.1675   -1.4142 C   0  0  1  0  0  0  0  0  0  0  0  0
    1.7896    1.0197   -2.8007 O   0  0  0  0  0  0  0  0  0  0  0  0
    0.5934    1.4892   -0.8421 C   0  0  0  0  0  0  0  0  0  0  0  0
    0.1468    0.0785   -0.4832 C   0  0  1  0  0  0  0  0  0  0  0  0
    1.2782   -0.3679    0.1870 O   0  0  0  0  0  0  0  0  0  0  0  0
    2.2933   -0.1301   -0.7343 C   0  0  2  0  0  0  0  0  0  0  0  0
    3.6516   -0.0469   -0.0454 C   0  0  0  0  0  0  0  0  0  0  0  0
    3.9341   -1.2339    0.6115 O   0  0  0  0  0  0  0  0  0  0  0  0
    5.4366   -1.1801    1.3886 P   0  0  0  0  0  0  0  0  0  0  0  0
    6.0343    0.4175    1.3105 O   0  0  0  0  0  0  0  0  0  0  0  0
    6.5387   -2.1627    0.5524 O   0  0  0  0  0  0  0  0  0  0  0  0
    5.3626   -1.6739    2.8165 O   0  0  0  0  0  0  0  0  0  0  0  0
   -1.0584    0.0322    0.2780 N   0  0  0  0  0  0  0  0  0  0  0  0
   -1.2771    0.0390    1.5937 C   0  0  0  0  0  0  0  0  0  0  0  0
   -2.6409   -0.0208    1.8733 C   0  0  0  0  0  0  0  0  0  0  0  0
   -3.2461   -0.0650    0.6302 C   0  0  0  0  0  0  0  0  0  0  0  0
   -4.5842   -0.1312    0.3157 C   0  0  0  0  0  0  0  0  0  0  0  0
   -5.6999   -0.1704    1.2969 C   0  0  0  0  0  0  0  0  0  0  0  0
   -4.9345   -0.1645   -1.0064 C   0  0  0  0  0  0  0  0  0  0  0  0
   -4.0174   -0.1349   -2.0188 C   0  0  0  0  0  0  0  0  0  0  0  0
   -2.6683   -0.0678   -1.6835 C   0  0  0  0  0  0  0  0  0  0  0  0
   -2.2731   -0.0322   -0.3424 C   0  0  0  0  0  0  0  0  0  0  0  0
    2.6954    1.9663   -1.1900 H   0  0  0  0  0  0  0  0  0  0  0  0
    1.9159    0.0812   -3.0876 H   0  0  0  0  0  0  0  0  0  0  0  0
   -0.0427    1.9702   -1.6011 H   0  0  0  0  0  0  0  0  0  0  0  0
    0.6815    2.1253    0.0809 H   0  0  0  0  0  0  0  0  0  0  0  0
    0.0479   -0.4445   -1.4681 H   0  0  0  0  0  0  0  0  0  0  0  0
    2.3491   -0.9335   -1.4896 H   0  0  0  0  0  0  0  0  0  0  0  0
    3.6487    0.8215    0.6531 H   0  0  0  0  0  0  0  0  0  0  0  0
    4.4088    0.1064   -0.8391 H   0  0  0  0  0  0  0  0  0  0  0  0
    5.3772    0.9847    1.8114 H   0  0  0  0  0  0  0  0  0  0  0  0
    6.1160   -2.5579   -0.2544 H   0  0  0  0  0  0  0  0  0  0  0  0
   -0.5087    0.0844    2.3504 H   0  0  0  0  0  0  0  0  0  0  0  0
   -3.1556   -0.0325    2.8266 H   0  0  0  0  0  0  0  0  0  0  0  0
   -5.3675   -0.3078    2.3233 H   0  0  0  0  0  0  0  0  0  0  0  0
   -6.2204    0.8193    1.2250 H   0  0  0  0  0  0  0  0  0  0  0  0
   -6.4371   -0.9253    0.9511 H   0  0  0  0  0  0  0  0  0  0  0  0
   -5.9798   -0.2171   -1.3207 H   0  0  0  0  0  0  0  0  0  0  0  0
   -4.2559   -0.1593   -3.0600 H   0  0  0  0  0  0  0  0  0  0  0  0
   -1.9118   -0.0426   -2.4579 H   0  0  0  0  0  0  0  0  0  0  0  0
  1  2  1  0
  1  3  1  0
  3  4  1  0
  4  5  1  0
  5  6  1  0
  6  7  1  0
  7  8  1  0
  8  9  1  0
  9 10  1  0
  9 11  1  0
  9 12  2  0
  4 13  1  0
 13 14  1  0
 14 15  2  0
 15 16  1  0
 16 17  2  0
 17 18  1  0
 17 19  1  0
 19 20  2  0
 20 21  1  0
 21 22  2  0
  6  1  1  0
 22 13  1  0
 22 16  1  0
  1 23  1  6
  2 24  1  0
  3 25  1  0
  3 26  1  0
  4 27  1  6
  6 28  1  6
  7 29  1  0
  7 30  1  0
 10 31  1  0
 11 32  1  0
 14 33  1  0
 15 34  1  0
 18 35  1  0
 18 36  1  0
 18 37  1  0
 19 38  1  0
 20 39  1  0
 21 40  1  0
M  END
$$$$
