@<TRIPOS>MOLECULE
*****
 56 58 0 0 0
SMALL
GASTEIGER

@<TRIPOS>ATOM
      1 O           8.1469   -1.6712    0.5060 O.2     1  UNL1       -0.2484
      2 C           7.0943   -0.9589    0.3248 C.2     1  UNL1        0.3308
      3 O           7.2395    0.4083    0.4672 O.3     1  UNL1       -0.4790
      4 C           5.8559   -1.6743   -0.0110 C.3     1  UNL1        0.1443
      5 O           4.8276   -0.8143   -0.2312 O.3     1  UNL1       -0.3684
      6 C           4.9249    0.0603   -1.2705 C.3     1  UNL1        0.0512
      7 C           3.6331    0.8813   -1.2740 C.3     1  UNL1       -0.0175
      8 C           2.4200   -0.0365   -1.4572 C.3     1  UNL1       -0.0478
      9 C           1.2246    0.7886   -0.9669 C.3     1  UNL1       -0.0468
     10 C           1.2064    0.6308    0.5451 C.3     1  UNL1       -0.0066
     11 C           0.2449    1.5662    1.1928 C.3     1  UNL1        0.0969
     12 O          -1.0585    1.3622    0.7467 O.3     1  UNL1       -0.4495
     13 C          -1.7713    0.2001    0.9039 C.2     1  UNL1        0.4117
     14 O          -1.1502   -0.7446    1.5199 O.2     1  UNL1       -0.2255
     15 N          -3.0798   -0.0656    0.4739 N.am    1  UNL1       -0.2062
     16 C          -3.6168   -1.3737    0.7588 C.ar    1  UNL1        0.0445
     17 C          -3.4660   -2.4174   -0.1256 C.ar    1  UNL1       -0.0398
     18 C          -3.9775   -3.6598    0.1478 C.ar    1  UNL1       -0.0600
     19 C          -4.6586   -3.8950    1.3208 C.ar    1  UNL1       -0.0616
     20 C          -4.8176   -2.8682    2.2112 C.ar    1  UNL1       -0.0600
     21 C          -4.3040   -1.6269    1.9332 C.ar    1  UNL1       -0.0398
     22 C          -3.9100    0.8394   -0.2120 C.ar    1  UNL1        0.0446
     23 C          -3.5674    2.1178   -0.5647 C.ar    1  UNL1       -0.0384
     24 C          -4.4386    2.9600   -1.2431 C.ar    1  UNL1       -0.0416
     25 C          -5.7065    2.5373   -1.5961 C.ar    1  UNL1        0.0411
     26 CL         -6.8205    3.5743   -2.4482 Cl      1  UNL1       -0.0835
     27 C          -6.0748    1.2595   -1.2542 C.ar    1  UNL1       -0.0416
     28 C          -5.2002    0.4388   -0.5826 C.ar    1  UNL1       -0.0384
     29 C           2.6279    0.8598    1.0192 C.3     1  UNL1       -0.0468
     30 C           3.4529    1.6273    0.0094 C.3     1  UNL1       -0.0478
     31 H           8.1578    0.8055    0.5526 H       1  UNL1        0.2951
     32 H           6.0070   -2.3897   -0.8705 H       1  UNL1        0.0676
     33 H           5.5452   -2.3272    0.8627 H       1  UNL1        0.0676
     34 H           5.0337   -0.4326   -2.2623 H       1  UNL1        0.0563
     35 H           5.7431    0.7899   -1.1786 H       1  UNL1        0.0563
     36 H           3.6237    1.5776   -2.1368 H       1  UNL1        0.0323
     37 H           2.3015   -0.3747   -2.4855 H       1  UNL1        0.0269
     38 H           2.5653   -0.9084   -0.7856 H       1  UNL1        0.0269
     39 H           0.3379    0.3390   -1.4409 H       1  UNL1        0.0269
     40 H           1.3823    1.8543   -1.2317 H       1  UNL1        0.0269
     41 H           0.9839   -0.4285    0.7601 H       1  UNL1        0.0334
     42 H           0.2319    1.3706    2.3023 H       1  UNL1        0.0701
     43 H           0.5820    2.6189    1.0758 H       1  UNL1        0.0701
     44 H          -2.9274   -2.2532   -1.0656 H       1  UNL1        0.0636
     45 H          -3.8427   -4.4439   -0.5577 H       1  UNL1        0.0618
     46 H          -5.0731   -4.8781    1.5559 H       1  UNL1        0.0618
     47 H          -5.3460   -3.0396    3.1275 H       1  UNL1        0.0618
     48 H          -4.4215   -0.8051    2.6271 H       1  UNL1        0.0636
     49 H          -2.5961    2.5146   -0.3223 H       1  UNL1        0.0637
     50 H          -4.1042    3.9412   -1.4847 H       1  UNL1        0.0633
     51 H          -7.0621    0.9184   -1.5245 H       1  UNL1        0.0633
     52 H          -5.5244   -0.5713   -0.3258 H       1  UNL1        0.0637
     53 H           2.5658    1.4867    1.9318 H       1  UNL1        0.0269
     54 H           3.1359   -0.0773    1.3246 H       1  UNL1        0.0269
     55 H           4.4435    1.7913    0.4653 H       1  UNL1        0.0269
     56 H           2.9762    2.6160   -0.1318 H       1  UNL1        0.0269
@<TRIPOS>BOND
     1     1     2    2
     2     2     3    1
     3     2     4    1
     4     4     5    1
     5     5     6    1
     6     6     7    1
     7     7     8    1
     8     8     9    1
     9     9    10    1
    10    10    11    1
    11    11    12    1
    12    12    13    1
    13    13    14    2
    14    13    15   am
    15    15    16    1
    16    16    17   ar
    17    17    18   ar
    18    18    19   ar
    19    19    20   ar
    20    20    21   ar
    21    15    22    1
    22    22    23   ar
    23    23    24   ar
    24    24    25   ar
    25    25    26    1
    26    25    27   ar
    27    27    28   ar
    28    10    29    1
    29    29    30    1
    30    30     7    1
    31    21    16   ar
    32    28    22   ar
    33     3    31    1
    34     4    32    1
    35     4    33    1
    36     6    34    1
    37     6    35    1
    38     7    36    1
    39     8    37    1
    40     8    38    1
    41     9    39    1
    42     9    40    1
    43    10    41    1
    44    11    42    1
    45    11    43    1
    46    17    44    1
    47    18    45    1
    48    19    46    1
    49    20    47    1
    50    21    48    1
    51    23    49    1
    52    24    50    1
    53    27    51    1
    54    28    52    1
    55    29    53    1
    56    29    54    1
    57    30    55    1
    58    30    56    1
