@<TRIPOS>MOLECULE
*****
 51 55 0 0 0
SMALL
GASTEIGER

@<TRIPOS>ATOM
      1 C          -5.7893    0.4606   -0.3084 C.3     1  UNL1       -0.0120
      2 N          -4.9060   -0.2282    0.5757 N.3     1  UNL1       -0.2940
      3 C          -4.1294    0.5998    1.4297 C.3     1  UNL1        0.0262
      4 C          -3.0322    1.1451    0.5401 C.ar    1  UNL1       -0.0081
      5 C          -2.9901    2.4731    0.3649 C.ar    1  UNL1       -0.0370
      6 C          -2.0461    3.0045   -0.5142 C.ar    1  UNL1        0.0414
      7 CL         -1.9550    4.7139   -0.7694 Cl      1  UNL1       -0.0835
      8 C          -1.1671    2.1511   -1.1941 C.ar    1  UNL1       -0.0414
      9 C          -1.2069    0.7690   -1.0156 C.ar    1  UNL1       -0.0361
     10 C          -2.1490    0.3289   -0.1417 C.ar    1  UNL1        0.0539
     11 N          -2.0677   -1.0985   -0.0030 N.ar    1  UNL1       -0.2814
     12 C          -3.1442   -1.9316    0.1534 C.ar    1  UNL1        0.1521
     13 N          -2.6397   -3.1565    0.2278 N.ar    1  UNL1       -0.1327
     14 N          -1.3346   -3.0711    0.1260 N.ar    1  UNL1       -0.1337
     15 C          -0.9173   -1.7538   -0.0225 C.ar    1  UNL1        0.1412
     16 C           0.4499   -1.2544   -0.1002 C.3     1  UNL1        0.0223
     17 C           0.9174   -0.0996    0.7003 C.3     1  UNL1       -0.0274
     18 C           2.2847   -0.4649    1.3564 C.3     1  UNL1        0.0141
     19 N           3.1247   -0.7633    0.2134 N.pl3   1  UNL1       -0.3151
     20 C           4.3455   -0.0626    0.0188 C.ar    1  UNL1        0.1212
     21 C           4.8973    0.8334    0.8782 C.ar    1  UNL1       -0.0217
     22 C           6.0918    1.4674    0.5914 C.ar    1  UNL1       -0.0571
     23 C           6.7804    1.2163   -0.5879 C.ar    1  UNL1       -0.0435
     24 C           6.1868    0.3015   -1.4312 C.ar    1  UNL1        0.0297
     25 N           5.0289   -0.3049   -1.1400 N.ar    1  UNL1       -0.2403
     26 C           2.7487   -1.7797   -0.7492 C.3     1  UNL1        0.0141
     27 C           1.3219   -1.6759   -1.2411 C.3     1  UNL1       -0.0274
     28 C          -4.5615   -1.5340    0.2651 C.3     1  UNL1        0.0594
     29 H          -6.2037    1.3417    0.2664 H       1  UNL1        0.0391
     30 H          -5.2832    0.9183   -1.1877 H       1  UNL1        0.0391
     31 H          -6.6821   -0.1395   -0.5923 H       1  UNL1        0.0391
     32 H          -3.6467   -0.0513    2.1987 H       1  UNL1        0.0476
     33 H          -4.6718    1.3884    1.9422 H       1  UNL1        0.0476
     34 H          -3.6848    3.0990    0.9053 H       1  UNL1        0.0636
     35 H          -0.4231    2.5305   -1.8842 H       1  UNL1        0.0633
     36 H          -0.5762    0.1609   -1.5872 H       1  UNL1        0.0639
     37 H           0.8939   -2.0857    0.6179 H       1  UNL1        0.0381
     38 H           1.3306    0.7791    0.1122 H       1  UNL1        0.0287
     39 H           0.1895    0.1783    1.4519 H       1  UNL1        0.0287
     40 H           2.6256    0.3372    1.9812 H       1  UNL1        0.0464
     41 H           2.1048   -1.4103    1.9514 H       1  UNL1        0.0464
     42 H           4.4106    1.0639    1.8056 H       1  UNL1        0.0652
     43 H           6.5416    2.1839    1.2690 H       1  UNL1        0.0619
     44 H           7.7091    1.6848   -0.8510 H       1  UNL1        0.0633
     45 H           6.6402    0.0236   -2.3927 H       1  UNL1        0.0830
     46 H           2.8607   -2.7618   -0.2069 H       1  UNL1        0.0464
     47 H           3.4333   -1.7825   -1.5916 H       1  UNL1        0.0464
     48 H           1.3576   -1.0562   -2.1222 H       1  UNL1        0.0287
     49 H           0.9752   -2.6830   -1.5558 H       1  UNL1        0.0287
     50 H          -5.0199   -1.7824   -0.7467 H       1  UNL1        0.0507
     51 H          -5.0231   -2.2222    1.0245 H       1  UNL1        0.0507
@<TRIPOS>BOND
     1     1     2    1
     2     2     3    1
     3     3     4    1
     4     4     5   ar
     5     5     6   ar
     6     6     7    1
     7     6     8   ar
     8     8     9   ar
     9     9    10   ar
    10    10    11    1
    11    11    12   ar
    12    12    13   ar
    13    13    14   ar
    14    14    15   ar
    15    15    16    1
    16    16    17    1
    17    17    18    1
    18    18    19    1
    19    19    20    1
    20    20    21   ar
    21    21    22   ar
    22    22    23   ar
    23    23    24   ar
    24    24    25   ar
    25    19    26    1
    26    26    27    1
    27    12    28    1
    28    28     2    1
    29    10     4   ar
    30    15    11   ar
    31    27    16    1
    32    25    20   ar
    33     1    29    1
    34     1    30    1
    35     1    31    1
    36     3    32    1
    37     3    33    1
    38     5    34    1
    39     8    35    1
    40     9    36    1
    41    16    37    1
    42    17    38    1
    43    17    39    1
    44    18    40    1
    45    18    41    1
    46    21    42    1
    47    22    43    1
    48    23    44    1
    49    24    45    1
    50    26    46    1
    51    26    47    1
    52    27    48    1
    53    27    49    1
    54    28    50    1
    55    28    51    1
