
     RDKit          3D

 51 55  0  0  0  0  0  0  0  0999 V2000
   -5.7893    0.4606   -0.3084 C   0  0  0  0  0  0  0  0  0  0  0  0
   -4.9060   -0.2282    0.5757 N   0  0  0  0  0  0  0  0  0  0  0  0
   -4.1294    0.5998    1.4297 C   0  0  0  0  0  0  0  0  0  0  0  0
   -3.0322    1.1451    0.5401 C   0  0  0  0  0  0  0  0  0  0  0  0
   -2.9901    2.4731    0.3649 C   0  0  0  0  0  0  0  0  0  0  0  0
   -2.0461    3.0045   -0.5142 C   0  0  0  0  0  0  0  0  0  0  0  0
   -1.9550    4.7139   -0.7694 Cl  0  0  0  0  0  0  0  0  0  0  0  0
   -1.1671    2.1511   -1.1941 C   0  0  0  0  0  0  0  0  0  0  0  0
   -1.2069    0.7690   -1.0156 C   0  0  0  0  0  0  0  0  0  0  0  0
   -2.1490    0.3289   -0.1417 C   0  0  0  0  0  0  0  0  0  0  0  0
   -2.0677   -1.0985   -0.0030 N   0  0  0  0  0  0  0  0  0  0  0  0
   -3.1442   -1.9316    0.1534 C   0  0  0  0  0  0  0  0  0  0  0  0
   -2.6397   -3.1565    0.2278 N   0  0  0  0  0  0  0  0  0  0  0  0
   -1.3346   -3.0711    0.1260 N   0  0  0  0  0  0  0  0  0  0  0  0
   -0.9173   -1.7538   -0.0225 C   0  0  0  0  0  0  0  0  0  0  0  0
    0.4499   -1.2544   -0.1002 C   0  0  0  0  0  0  0  0  0  0  0  0
    0.9174   -0.0996    0.7003 C   0  0  0  0  0  0  0  0  0  0  0  0
    2.2847   -0.4649    1.3564 C   0  0  0  0  0  0  0  0  0  0  0  0
    3.1247   -0.7633    0.2134 N   0  0  0  0  0  0  0  0  0  0  0  0
    4.3455   -0.0626    0.0188 C   0  0  0  0  0  0  0  0  0  0  0  0
    4.8973    0.8334    0.8782 C   0  0  0  0  0  0  0  0  0  0  0  0
    6.0918    1.4674    0.5914 C   0  0  0  0  0  0  0  0  0  0  0  0
    6.7804    1.2163   -0.5879 C   0  0  0  0  0  0  0  0  0  0  0  0
    6.1868    0.3015   -1.4312 C   0  0  0  0  0  0  0  0  0  0  0  0
    5.0289   -0.3049   -1.1400 N   0  0  0  0  0  0  0  0  0  0  0  0
    2.7487   -1.7797   -0.7492 C   0  0  0  0  0  0  0  0  0  0  0  0
    1.3219   -1.6759   -1.2411 C   0  0  0  0  0  0  0  0  0  0  0  0
   -4.5615   -1.5340    0.2651 C   0  0  0  0  0  0  0  0  0  0  0  0
   -6.2037    1.3417    0.2664 H   0  0  0  0  0  0  0  0  0  0  0  0
   -5.2832    0.9183   -1.1877 H   0  0  0  0  0  0  0  0  0  0  0  0
   -6.6821   -0.1395   -0.5923 H   0  0  0  0  0  0  0  0  0  0  0  0
   -3.6467   -0.0513    2.1987 H   0  0  0  0  0  0  0  0  0  0  0  0
   -4.6718    1.3884    1.9422 H   0  0  0  0  0  0  0  0  0  0  0  0
   -3.6848    3.0990    0.9053 H   0  0  0  0  0  0  0  0  0  0  0  0
   -0.4231    2.5305   -1.8842 H   0  0  0  0  0  0  0  0  0  0  0  0
   -0.5762    0.1609   -1.5872 H   0  0  0  0  0  0  0  0  0  0  0  0
    0.8939   -2.0857    0.6179 H   0  0  0  0  0  0  0  0  0  0  0  0
    1.3306    0.7791    0.1122 H   0  0  0  0  0  0  0  0  0  0  0  0
    0.1895    0.1783    1.4519 H   0  0  0  0  0  0  0  0  0  0  0  0
    2.6256    0.3372    1.9812 H   0  0  0  0  0  0  0  0  0  0  0  0
    2.1048   -1.4103    1.9514 H   0  0  0  0  0  0  0  0  0  0  0  0
    4.4106    1.0639    1.8056 H   0  0  0  0  0  0  0  0  0  0  0  0
    6.5416    2.1839    1.2690 H   0  0  0  0  0  0  0  0  0  0  0  0
    7.7091    1.6848   -0.8510 H   0  0  0  0  0  0  0  0  0  0  0  0
    6.6402    0.0236   -2.3927 H   0  0  0  0  0  0  0  0  0  0  0  0
    2.8607   -2.7618   -0.2069 H   0  0  0  0  0  0  0  0  0  0  0  0
    3.4333   -1.7825   -1.5916 H   0  0  0  0  0  0  0  0  0  0  0  0
    1.3576   -1.0562   -2.1222 H   0  0  0  0  0  0  0  0  0  0  0  0
    0.9752   -2.6830   -1.5558 H   0  0  0  0  0  0  0  0  0  0  0  0
   -5.0199   -1.7824   -0.7467 H   0  0  0  0  0  0  0  0  0  0  0  0
   -5.0231   -2.2222    1.0245 H   0  0  0  0  0  0  0  0  0  0  0  0
  1  2  1  0
  2  3  1  0
  3  4  1  0
  4  5  2  0
  5  6  1  0
  6  7  1  0
  6  8  2  0
  8  9  1  0
  9 10  2  0
 10 11  1  0
 11 12  1  0
 12 13  2  0
 13 14  1  0
 14 15  2  0
 15 16  1  0
 16 17  1  0
 17 18  1  0
 18 19  1  0
 19 20  1  0
 20 21  2  0
 21 22  1  0
 22 23  2  0
 23 24  1  0
 24 25  2  0
 19 26  1  0
 26 27  1  0
 12 28  1  0
 28  2  1  0
 10  4  1  0
 15 11  1  0
 27 16  1  0
 25 20  1  0
  1 29  1  0
  1 30  1  0
  1 31  1  0
  3 32  1  0
  3 33  1  0
  5 34  1  0
  8 35  1  0
  9 36  1  0
 16 37  1  0
 17 38  1  0
 17 39  1  0
 18 40  1  0
 18 41  1  0
 21 42  1  0
 22 43  1  0
 23 44  1  0
 24 45  1  0
 26 46  1  0
 26 47  1  0
 27 48  1  0
 27 49  1  0
 28 50  1  0
 28 51  1  0
M  END
$$$$
