@<TRIPOS>MOLECULE
*****
 60 62 0 0 0
SMALL
GASTEIGER

@<TRIPOS>ATOM
      1 C          -3.6088    1.6164   -0.0761 C.2     1  UNL1       -0.0837
      2 C          -2.9481    2.7821   -0.3554 C.2     1  UNL1       -0.0660
      3 C          -2.2162    1.9659    0.5764 C.2     1  UNL1       -0.0657
      4 C          -1.0392    2.3874    0.9953 C.2     1  UNL1       -0.0812
      5 C           0.0459    3.4633    0.9494 C.3     1  UNL1       -0.0254
      6 C           0.4142    3.8794    2.3253 C.3     1  UNL1       -0.0589
      7 C           1.2261    2.5914    0.3809 C.3     1  UNL1       -0.0447
      8 C           0.7813    2.0766   -0.9586 C.3     1  UNL1       -0.0258
      9 C           1.5996    0.9829   -1.5794 C.3     1  UNL1        0.0654
     10 C           0.6180   -0.1686   -1.9542 C.3     1  UNL1        0.0110
     11 C           0.5278   -1.0478   -0.6940 C.3     1  UNL1        0.1107
     12 C           1.7948   -1.8781   -0.6293 C.3     1  UNL1        0.0406
     13 C           2.8832   -0.8420   -1.0372 C.3     1  UNL1        0.1944
     14 O           3.1364   -1.0410   -2.3710 O.3     1  UNL1       -0.3628
     15 O           2.5242    0.4452   -0.7385 O.3     1  UNL1       -0.3433
     16 C           4.1471   -1.1503   -0.2002 C.3     1  UNL1        0.1180
     17 C           4.5011   -2.5688   -0.4786 C.3     1  UNL1        0.0301
     18 S           5.1716   -3.0203    1.1799 S.3     1  UNL1       -0.0658
     19 C           4.2090   -1.7363    2.0281 C.2     1  UNL1        0.2454
     20 O           4.0305   -1.7635    3.3917 O.2     1  UNL1       -0.4879
     21 N           3.8027   -0.9214    1.1421 N.2     1  UNL1       -0.2353
     22 O          -0.6758   -1.5889   -0.5231 O.3     1  UNL1       -0.4580
     23 C          -1.2187   -2.7853   -0.3807 C.2     1  UNL1        0.3321
     24 O          -0.7126   -1.6744   -0.5132 O.2     1  UNL1       -0.2456
     25 C          -2.6464   -2.8160   -0.1459 C.2     1  UNL1        0.0215
     26 C          -3.7639   -2.1353   -0.0444 C.2     1  UNL1       -0.0656
     27 C          -4.9875   -2.8744    0.2572 C.3     1  UNL1       -0.0433
     28 C          -3.5555   -0.7556   -0.3941 C.3     1  UNL1       -0.0281
     29 C          -3.6915    0.2972    0.6618 C.3     1  UNL1       -0.0308
     30 H          -4.5191    1.5769   -0.6441 H       1  UNL1        0.0572
     31 H          -3.5322    3.3953   -1.0767 H       1  UNL1        0.0614
     32 H          -1.8340    2.9453    0.2163 H       1  UNL1        0.0614
     33 H          -0.7320    1.5877    1.6826 H       1  UNL1        0.0575
     34 H          -0.1867    4.2288    0.2308 H       1  UNL1        0.0340
     35 H           1.0530    3.1136    2.7699 H       1  UNL1        0.0235
     36 H          -0.4765    4.0515    2.9819 H       1  UNL1        0.0235
     37 H           0.9909    4.8330    2.2206 H       1  UNL1        0.0235
     38 H           2.0528    3.3168    0.3019 H       1  UNL1        0.0272
     39 H           1.3686    1.8155    1.1434 H       1  UNL1        0.0272
     40 H          -0.2434    1.6811   -0.8515 H       1  UNL1        0.0290
     41 H           0.7896    2.9472   -1.6607 H       1  UNL1        0.0290
     42 H           2.0431    1.3187   -2.5071 H       1  UNL1        0.0598
     43 H           0.9311   -0.7077   -2.8333 H       1  UNL1        0.0326
     44 H          -0.3621    0.2812   -2.1015 H       1  UNL1        0.0326
     45 H           0.7493   -0.2661    0.1572 H       1  UNL1        0.0736
     46 H           1.9684   -2.1718    0.4195 H       1  UNL1        0.0354
     47 H           1.7167   -2.6874   -1.3515 H       1  UNL1        0.0354
     48 H           3.1288   -1.9977   -2.6306 H       1  UNL1        0.2128
     49 H           4.9158   -0.4263   -0.5782 H       1  UNL1        0.0607
     50 H           3.6759   -3.2032   -0.7851 H       1  UNL1        0.0404
     51 H           5.3694   -2.5768   -1.1449 H       1  UNL1        0.0404
     52 H           3.7425   -0.9182    3.8655 H       1  UNL1        0.2943
     53 H          -2.4084   -3.8542   -0.0599 H       1  UNL1        0.0688
     54 H          -5.3438   -2.7607    1.3163 H       1  UNL1        0.0274
     55 H          -5.8211   -2.6146   -0.4464 H       1  UNL1        0.0274
     56 H          -4.8384   -3.9613    0.1307 H       1  UNL1        0.0274
     57 H          -2.6337   -0.5054   -0.9604 H       1  UNL1        0.0313
     58 H          -4.3624   -0.5337   -1.1977 H       1  UNL1        0.0313
     59 H          -2.9029    0.1772    1.4033 H       1  UNL1        0.0310
     60 H          -4.6487    0.1958    1.1751 H       1  UNL1        0.0310
@<TRIPOS>BOND
     1     1     2    2
     2     2     3    1
     3     3     4    2
     4     4     5    1
     5     5     6    1
     6     5     7    1
     7     7     8    1
     8     8     9    1
     9     9    10    1
    10    10    11    1
    11    11    12    1
    12    12    13    1
    13    13    14    1
    14    13    15    1
    15    13    16    1
    16    16    17    1
    17    17    18    1
    18    18    19    1
    19    19    20    1
    20    19    21    2
    21    11    22    1
    22    22    23    1
    23    23    24    2
    24    23    25    1
    25    25    26    2
    26    26    27    1
    27    26    28    1
    28    28    29    1
    29    29     1    1
    30    15     9    1
    31    21    16    1
    32     1    30    1
    33     2    31    1
    34     3    32    1
    35     4    33    1
    36     5    34    1
    37     6    35    1
    38     6    36    1
    39     6    37    1
    40     7    38    1
    41     7    39    1
    42     8    40    1
    43     8    41    1
    44     9    42    1
    45    10    43    1
    46    10    44    1
    47    11    45    1
    48    12    46    1
    49    12    47    1
    50    14    48    1
    51    16    49    1
    52    17    50    1
    53    17    51    1
    54    20    52    1
    55    25    53    1
    56    27    54    1
    57    27    55    1
    58    27    56    1
    59    28    57    1
    60    28    58    1
    61    29    59    1
    62    29    60    1
