
     RDKit          3D

 60 62  0  0  0  0  0  0  0  0999 V2000
   -3.6088    1.6164   -0.0761 C   0  0  0  0  0  0  0  0  0  0  0  0
   -2.9481    2.7821   -0.3554 C   0  0  0  0  0  0  0  0  0  0  0  0
   -2.2162    1.9659    0.5764 C   0  0  0  0  0  0  0  0  0  0  0  0
   -1.0392    2.3874    0.9953 C   0  0  0  0  0  0  0  0  0  0  0  0
    0.0459    3.4633    0.9494 C   0  0  1  0  0  0  0  0  0  0  0  0
    0.4142    3.8794    2.3253 C   0  0  0  0  0  0  0  0  0  0  0  0
    1.2261    2.5914    0.3809 C   0  0  0  0  0  0  0  0  0  0  0  0
    0.7813    2.0766   -0.9586 C   0  0  0  0  0  0  0  0  0  0  0  0
    1.5996    0.9829   -1.5794 C   0  0  2  0  0  0  0  0  0  0  0  0
    0.6180   -0.1686   -1.9542 C   0  0  0  0  0  0  0  0  0  0  0  0
    0.5278   -1.0478   -0.6940 C   0  0  2  0  0  0  0  0  0  0  0  0
    1.7948   -1.8781   -0.6293 C   0  0  0  0  0  0  0  0  0  0  0  0
    2.8832   -0.8420   -1.0372 C   0  0  1  0  0  0  0  0  0  0  0  0
    3.1364   -1.0410   -2.3710 O   0  0  0  0  0  0  0  0  0  0  0  0
    2.5242    0.4452   -0.7385 O   0  0  0  0  0  0  0  0  0  0  0  0
    4.1471   -1.1503   -0.2002 C   0  0  2  0  0  0  0  0  0  0  0  0
    4.5011   -2.5688   -0.4786 C   0  0  0  0  0  0  0  0  0  0  0  0
    5.1716   -3.0203    1.1799 S   0  0  0  0  0  0  0  0  0  0  0  0
    4.2090   -1.7363    2.0281 C   0  0  0  0  0  0  0  0  0  0  0  0
    4.0305   -1.7635    3.3917 O   0  0  0  0  0  0  0  0  0  0  0  0
    3.8027   -0.9214    1.1421 N   0  0  0  0  0  0  0  0  0  0  0  0
   -0.6758   -1.5889   -0.5231 O   0  0  0  0  0  0  0  0  0  0  0  0
   -1.2187   -2.7853   -0.3807 C   0  0  0  0  0  0  0  0  0  0  0  0
   -0.7126   -1.6744   -0.5132 O   0  0  0  0  0  0  0  0  0  0  0  0
   -2.6464   -2.8160   -0.1459 C   0  0  0  0  0  0  0  0  0  0  0  0
   -3.7639   -2.1353   -0.0444 C   0  0  0  0  0  0  0  0  0  0  0  0
   -4.9875   -2.8744    0.2572 C   0  0  0  0  0  0  0  0  0  0  0  0
   -3.5555   -0.7556   -0.3941 C   0  0  0  0  0  0  0  0  0  0  0  0
   -3.6915    0.2972    0.6618 C   0  0  0  0  0  0  0  0  0  0  0  0
   -4.5191    1.5769   -0.6441 H   0  0  0  0  0  0  0  0  0  0  0  0
   -3.5322    3.3953   -1.0767 H   0  0  0  0  0  0  0  0  0  0  0  0
   -1.8340    2.9453    0.2163 H   0  0  0  0  0  0  0  0  0  0  0  0
   -0.7320    1.5877    1.6826 H   0  0  0  0  0  0  0  0  0  0  0  0
   -0.1867    4.2288    0.2308 H   0  0  0  0  0  0  0  0  0  0  0  0
    1.0530    3.1136    2.7699 H   0  0  0  0  0  0  0  0  0  0  0  0
   -0.4765    4.0515    2.9819 H   0  0  0  0  0  0  0  0  0  0  0  0
    0.9909    4.8330    2.2206 H   0  0  0  0  0  0  0  0  0  0  0  0
    2.0528    3.3168    0.3019 H   0  0  0  0  0  0  0  0  0  0  0  0
    1.3686    1.8155    1.1434 H   0  0  0  0  0  0  0  0  0  0  0  0
   -0.2434    1.6811   -0.8515 H   0  0  0  0  0  0  0  0  0  0  0  0
    0.7896    2.9472   -1.6607 H   0  0  0  0  0  0  0  0  0  0  0  0
    2.0431    1.3187   -2.5071 H   0  0  0  0  0  0  0  0  0  0  0  0
    0.9311   -0.7077   -2.8333 H   0  0  0  0  0  0  0  0  0  0  0  0
   -0.3621    0.2812   -2.1015 H   0  0  0  0  0  0  0  0  0  0  0  0
    0.7493   -0.2661    0.1572 H   0  0  0  0  0  0  0  0  0  0  0  0
    1.9684   -2.1718    0.4195 H   0  0  0  0  0  0  0  0  0  0  0  0
    1.7167   -2.6874   -1.3515 H   0  0  0  0  0  0  0  0  0  0  0  0
    3.1288   -1.9977   -2.6306 H   0  0  0  0  0  0  0  0  0  0  0  0
    4.9158   -0.4263   -0.5782 H   0  0  0  0  0  0  0  0  0  0  0  0
    3.6759   -3.2032   -0.7851 H   0  0  0  0  0  0  0  0  0  0  0  0
    5.3694   -2.5768   -1.1449 H   0  0  0  0  0  0  0  0  0  0  0  0
    3.7425   -0.9182    3.8655 H   0  0  0  0  0  0  0  0  0  0  0  0
   -2.4084   -3.8542   -0.0599 H   0  0  0  0  0  0  0  0  0  0  0  0
   -5.3438   -2.7607    1.3163 H   0  0  0  0  0  0  0  0  0  0  0  0
   -5.8211   -2.6146   -0.4464 H   0  0  0  0  0  0  0  0  0  0  0  0
   -4.8384   -3.9613    0.1307 H   0  0  0  0  0  0  0  0  0  0  0  0
   -2.6337   -0.5054   -0.9604 H   0  0  0  0  0  0  0  0  0  0  0  0
   -4.3624   -0.5337   -1.1977 H   0  0  0  0  0  0  0  0  0  0  0  0
   -2.9029    0.1772    1.4033 H   0  0  0  0  0  0  0  0  0  0  0  0
   -4.6487    0.1958    1.1751 H   0  0  0  0  0  0  0  0  0  0  0  0
  1  2  2  0
  2  3  1  0
  3  4  2  0
  4  5  1  0
  5  6  1  0
  5  7  1  0
  7  8  1  0
  8  9  1  0
  9 10  1  0
 10 11  1  0
 11 12  1  0
 12 13  1  0
 13 14  1  6
 13 15  1  0
 13 16  1  0
 16 17  1  0
 17 18  1  0
 18 19  1  0
 19 20  1  0
 19 21  2  0
 11 22  1  0
 22 23  1  0
 23 24  2  0
 23 25  1  0
 25 26  2  0
 26 27  1  0
 26 28  1  0
 28 29  1  0
 29  1  1  0
 15  9  1  0
 21 16  1  0
  1 30  1  0
  2 31  1  0
  3 32  1  0
  4 33  1  0
  5 34  1  6
  6 35  1  0
  6 36  1  0
  6 37  1  0
  7 38  1  0
  7 39  1  0
  8 40  1  0
  8 41  1  0
  9 42  1  6
 10 43  1  0
 10 44  1  0
 11 45  1  1
 12 46  1  0
 12 47  1  0
 14 48  1  0
 16 49  1  6
 17 50  1  0
 17 51  1  0
 20 52  1  0
 25 53  1  0
 27 54  1  0
 27 55  1  0
 27 56  1  0
 28 57  1  0
 28 58  1  0
 29 59  1  0
 29 60  1  0
M  END
$$$$
