
     RDKit          3D

 55 57  0  0  0  0  0  0  0  0999 V2000
    2.2886    1.1046    1.4137 C   0  0  0  0  0  0  0  0  0  0  0  0
    1.8962   -0.3044    1.2376 N   0  0  0  0  0  0  0  0  0  0  0  0
    2.9129   -1.2752    1.5241 C   0  0  0  0  0  0  0  0  0  0  0  0
    4.0457   -1.0064    0.5906 C   0  0  0  0  0  0  0  0  0  0  0  0
    4.1017   -1.6163   -0.6447 C   0  0  0  0  0  0  0  0  0  0  0  0
    5.1261   -1.3763   -1.4948 N   0  0  0  0  0  0  0  0  0  0  0  0
    6.1064   -0.5311   -1.1340 C   0  0  0  0  0  0  0  0  0  0  0  0
    7.1552   -0.2458   -1.9288 N   0  0  0  0  0  0  0  0  0  0  0  0
    8.1294    0.6071   -1.5456 C   0  0  0  0  0  0  0  0  0  0  0  0
    9.2223    0.8896   -2.4020 N   0  0  0  0  0  0  0  0  0  0  0  0
    8.1125    1.2280   -0.3394 N   0  0  0  0  0  0  0  0  0  0  0  0
    7.0940    0.9739    0.4763 C   0  0  0  0  0  0  0  0  0  0  0  0
    7.0012    1.5818    1.7545 N   0  0  0  0  0  0  0  0  0  0  0  0
    6.0867    0.1068    0.1081 C   0  0  0  0  0  0  0  0  0  0  0  0
    5.0451   -0.1683    0.9133 N   0  0  0  0  0  0  0  0  0  0  0  0
    0.5754   -0.6273    0.8062 C   0  0  0  0  0  0  0  0  0  0  0  0
   -0.3091    0.3937    0.5618 C   0  0  0  0  0  0  0  0  0  0  0  0
   -1.6140    0.1531    0.1384 C   0  0  0  0  0  0  0  0  0  0  0  0
   -2.0742   -1.1300   -0.0542 C   0  0  0  0  0  0  0  0  0  0  0  0
   -3.4409   -1.4299   -0.4994 C   0  0  0  0  0  0  0  0  0  0  0  0
   -3.7812   -2.6314   -0.6509 O   0  0  0  0  0  0  0  0  0  0  0  0
   -4.4177   -0.4420   -0.7744 N   0  0  0  0  0  0  0  0  0  0  0  0
   -5.7397   -0.8287   -1.2086 C   0  0  1  0  0  0  0  0  0  0  0  0
   -6.7532   -0.3736   -0.1934 C   0  0  0  0  0  0  0  0  0  0  0  0
   -6.6954    1.1280   -0.0560 C   0  0  0  0  0  0  0  0  0  0  0  0
   -7.7019    1.6102    0.9473 C   0  0  0  0  0  0  0  0  0  0  0  0
   -8.4148    0.7487    1.5047 O   0  0  0  0  0  0  0  0  0  0  0  0
   -7.8284    2.9504    1.2364 O   0  0  0  0  0  0  0  0  0  0  0  0
   -6.0753   -0.1804   -2.5051 C   0  0  0  0  0  0  0  0  0  0  0  0
   -5.2347    0.5770   -3.0416 O   0  0  0  0  0  0  0  0  0  0  0  0
   -7.2795   -0.3891   -3.1287 O   0  0  0  0  0  0  0  0  0  0  0  0
   -1.1874   -2.1579    0.1906 C   0  0  0  0  0  0  0  0  0  0  0  0
    0.1214   -1.9093    0.6156 C   0  0  0  0  0  0  0  0  0  0  0  0
    1.5485    1.6362    2.0457 H   0  0  0  0  0  0  0  0  0  0  0  0
    3.2551    1.1848    1.9457 H   0  0  0  0  0  0  0  0  0  0  0  0
    2.3944    1.6199    0.4525 H   0  0  0  0  0  0  0  0  0  0  0  0
    2.6080   -2.3148    1.5349 H   0  0  0  0  0  0  0  0  0  0  0  0
    3.3501   -1.0866    2.5517 H   0  0  0  0  0  0  0  0  0  0  0  0
    3.3201   -2.3080   -0.9662 H   0  0  0  0  0  0  0  0  0  0  0  0
    9.2377    1.7528   -2.9780 H   0  0  0  0  0  0  0  0  0  0  0  0
   10.0090    0.2136   -2.4412 H   0  0  0  0  0  0  0  0  0  0  0  0
    7.6234    1.3094    2.5475 H   0  0  0  0  0  0  0  0  0  0  0  0
    6.3000    2.3296    1.9460 H   0  0  0  0  0  0  0  0  0  0  0  0
    0.0313    1.4298    0.7068 H   0  0  0  0  0  0  0  0  0  0  0  0
   -2.2784    0.9833   -0.0429 H   0  0  0  0  0  0  0  0  0  0  0  0
   -4.1488    0.5401   -0.6574 H   0  0  0  0  0  0  0  0  0  0  0  0
   -5.7701   -1.9351   -1.3002 H   0  0  0  0  0  0  0  0  0  0  0  0
   -7.7839   -0.7039   -0.4598 H   0  0  0  0  0  0  0  0  0  0  0  0
   -6.5473   -0.8032    0.8197 H   0  0  0  0  0  0  0  0  0  0  0  0
   -5.7005    1.5224    0.1468 H   0  0  0  0  0  0  0  0  0  0  0  0
   -7.0174    1.5611   -1.0419 H   0  0  0  0  0  0  0  0  0  0  0  0
   -8.5006    3.3147    1.9042 H   0  0  0  0  0  0  0  0  0  0  0  0
   -7.6568    0.2353   -3.8368 H   0  0  0  0  0  0  0  0  0  0  0  0
   -1.5315   -3.1826    0.0443 H   0  0  0  0  0  0  0  0  0  0  0  0
    0.7845   -2.7285    0.7964 H   0  0  0  0  0  0  0  0  0  0  0  0
  1  2  1  0
  2  3  1  0
  3  4  1  0
  4  5  2  0
  5  6  1  0
  6  7  2  0
  7  8  1  0
  8  9  2  0
  9 10  1  0
  9 11  1  0
 11 12  2  0
 12 13  1  0
 12 14  1  0
 14 15  2  0
  2 16  1  0
 16 17  2  0
 17 18  1  0
 18 19  2  0
 19 20  1  0
 20 21  2  0
 20 22  1  0
 22 23  1  0
 23 24  1  0
 24 25  1  0
 25 26  1  0
 26 27  2  0
 26 28  1  0
 23 29  1  0
 29 30  2  0
 29 31  1  0
 19 32  1  0
 32 33  2  0
 15  4  1  0
 33 16  1  0
 14  7  1  0
  1 34  1  0
  1 35  1  0
  1 36  1  0
  3 37  1  0
  3 38  1  0
  5 39  1  0
 10 40  1  0
 10 41  1  0
 13 42  1  0
 13 43  1  0
 17 44  1  0
 18 45  1  0
 22 46  1  0
 23 47  1  6
 24 48  1  0
 24 49  1  0
 25 50  1  0
 25 51  1  0
 28 52  1  0
 31 53  1  0
 32 54  1  0
 33 55  1  0
M  END
$$$$
