@<TRIPOS>MOLECULE
*****
 55 57 0 0 0
SMALL
GASTEIGER

@<TRIPOS>ATOM
      1 C           2.2886    1.1046    1.4137 C.3     0  UNK0        0.0011
      2 N           1.8962   -0.3044    1.2376 N.pl3   0  UNK0       -0.3271
      3 C           2.9129   -1.2752    1.5241 C.3     0  UNK0        0.0555
      4 C           4.0457   -1.0064    0.5906 C.ar    0  UNK0        0.0774
      5 C           4.1017   -1.6163   -0.6447 C.ar    0  UNK0        0.0528
      6 N           5.1261   -1.3763   -1.4948 N.ar    0  UNK0       -0.2324
      7 C           6.1064   -0.5311   -1.1340 C.ar    0  UNK0        0.1851
      8 N           7.1552   -0.2458   -1.9288 N.ar    0  UNK0       -0.1932
      9 C           8.1294    0.6071   -1.5456 C.ar    0  UNK0        0.2163
     10 N           9.2223    0.8896   -2.4020 N.pl3   0  UNK0       -0.3274
     11 N           8.1125    1.2280   -0.3394 N.ar    0  UNK0       -0.1978
     12 C           7.0940    0.9739    0.4763 C.ar    0  UNK0        0.1491
     13 N           7.0012    1.5818    1.7545 N.pl3   0  UNK0       -0.3413
     14 C           6.0867    0.1068    0.1081 C.ar    0  UNK0        0.1477
     15 N           5.0451   -0.1683    0.9133 N.ar    0  UNK0       -0.2419
     16 C           0.5754   -0.6273    0.8062 C.ar    0  UNK0        0.0298
     17 C          -0.3091    0.3937    0.5618 C.ar    0  UNK0       -0.0399
     18 C          -1.6140    0.1531    0.1384 C.ar    0  UNK0       -0.0479
     19 C          -2.0742   -1.1300   -0.0542 C.ar    0  UNK0        0.0368
     20 C          -3.4409   -1.4299   -0.4994 C.2     0  UNK0        0.2447
     21 O          -3.7812   -2.6314   -0.6509 O.2     0  UNK0       -0.2702
     22 N          -4.4177   -0.4420   -0.7744 N.am    1  GLU1       -0.2983
     23 CA         -5.7397   -0.8287   -1.2086 C.3     1  GLU1        0.1209
     24 CB         -6.7532   -0.3736   -0.1934 C.3     1  GLU1       -0.0140
     25 CG         -6.6954    1.1280   -0.0560 C.3     1  GLU1        0.0470
     26 CD         -7.7019    1.6102    0.9473 C.2     1  GLU1        0.3048
     27 OE1        -8.4148    0.7487    1.5047 O.2     1  GLU1       -0.2510
     28 OE2        -7.8284    2.9504    1.2364 O.3     1  GLU1       -0.4806
     29 C          -6.0753   -0.1804   -2.5051 C.2     1  GLU1        0.3253
     30 O          -5.2347    0.5770   -3.0416 O.2     1  GLU1       -0.2489
     31 OXT        -7.2795   -0.3891   -3.1287 O.3     1  GLU1       -0.4793
     32 C          -1.1874   -2.1579    0.1906 C.ar    0  UNK0       -0.0479
     33 C           0.1214   -1.9093    0.6156 C.ar    0  UNK0       -0.0399
     34 H           1.5485    1.6362    2.0457 H       0  UNK0        0.0428
     35 H           3.2551    1.1848    1.9457 H       0  UNK0        0.0428
     36 H           2.3944    1.6199    0.4525 H       0  UNK0        0.0428
     37 H           2.6080   -2.3148    1.5349 H       0  UNK0        0.0529
     38 H           3.3501   -1.0866    2.5517 H       0  UNK0        0.0529
     39 H           3.3201   -2.3080   -0.9662 H       0  UNK0        0.0849
     40 H           9.2377    1.7528   -2.9780 H       0  UNK0        0.1452
     41 H          10.0090    0.2136   -2.4412 H       0  UNK0        0.1452
     42 H           7.6234    1.3094    2.5475 H       0  UNK0        0.1438
     43 H           6.3000    2.3296    1.9460 H       0  UNK0        0.1438
     44 H           0.0313    1.4298    0.7068 H       0  UNK0        0.0636
     45 H          -2.2784    0.9833   -0.0429 H       0  UNK0        0.0626
     46 H          -4.1488    0.5401   -0.6574 H       1  GLU1        0.1498
     47 HA         -5.7701   -1.9351   -1.3002 H       1  GLU1        0.0614
     48 HB1        -7.7839   -0.7039   -0.4598 H       1  GLU1        0.0294
     49 HB2        -6.5473   -0.8032    0.8197 H       1  GLU1        0.0294
     50 HG1        -5.7005    1.5224    0.1468 H       1  GLU1        0.0378
     51 HG2        -7.0174    1.5611   -1.0419 H       1  GLU1        0.0378
     52 HE2        -8.5006    3.3147    1.9042 H       1  GLU1        0.2951
     53 HXT        -7.6568    0.2353   -3.8368 H       1  GLU1        0.2951
     54 H          -1.5315   -3.1826    0.0443 H       0  UNK0        0.0626
     55 H           0.7845   -2.7285    0.7964 H       0  UNK0        0.0636
@<TRIPOS>BOND
     1     1     2    1
     2     2     3    1
     3     3     4    1
     4     4     5   ar
     5     5     6   ar
     6     6     7   ar
     7     7     8   ar
     8     8     9   ar
     9     9    10    1
    10     9    11   ar
    11    11    12   ar
    12    12    13    1
    13    12    14   ar
    14    14    15   ar
    15     2    16    1
    16    16    17   ar
    17    17    18   ar
    18    18    19   ar
    19    19    20    1
    20    20    21    2
    21    20    22   am
    22    22    23    1
    23    23    24    1
    24    24    25    1
    25    25    26    1
    26    26    27    2
    27    26    28    1
    28    23    29    1
    29    29    30    2
    30    29    31    1
    31    19    32   ar
    32    32    33   ar
    33    15     4   ar
    34    33    16   ar
    35    14     7   ar
    36     1    34    1
    37     1    35    1
    38     1    36    1
    39     3    37    1
    40     3    38    1
    41     5    39    1
    42    10    40    1
    43    10    41    1
    44    13    42    1
    45    13    43    1
    46    17    44    1
    47    18    45    1
    48    22    46    1
    49    23    47    1
    50    24    48    1
    51    24    49    1
    52    25    50    1
    53    25    51    1
    54    28    52    1
    55    31    53    1
    56    32    54    1
    57    33    55    1
