
     RDKit          3D

 43 46  0  0  0  0  0  0  0  0999 V2000
   -5.6157   -1.7636   -0.3658 O   0  0  0  0  0  0  0  0  0  0  0  0
   -4.3536   -1.9149    0.2061 C   0  0  0  0  0  0  0  0  0  0  0  0
   -3.9154   -0.6078    0.8263 C   0  0  1  0  0  0  0  0  0  0  0  0
   -2.6799   -0.6817    1.4093 O   0  0  0  0  0  0  0  0  0  0  0  0
   -2.1285    0.5727    1.4660 C   0  0  1  0  0  0  0  0  0  0  0  0
   -0.7849    0.5642    0.9191 N   0  0  0  0  0  0  0  0  0  0  0  0
    0.1669    1.4677    1.2307 C   0  0  0  0  0  0  0  0  0  0  0  0
    1.2823    1.1563    0.5429 N   0  0  0  0  0  0  0  0  0  0  0  0
    1.0872    0.0687   -0.2143 C   0  0  0  0  0  0  0  0  0  0  0  0
    1.8745   -0.6438   -1.0822 C   0  0  0  0  0  0  0  0  0  0  0  0
    3.2194   -0.3053   -1.3546 N   0  0  0  0  0  0  0  0  0  0  0  0
    3.8099    0.8218   -0.6780 C   0  0  2  0  0  0  0  0  0  0  0  0
    5.2205    1.0940   -1.1664 C   0  0  0  0  0  0  0  0  0  0  0  0
    5.9684   -0.0061   -0.4017 C   0  0  0  0  0  0  0  0  0  0  0  0
    5.4298    0.0877    0.8535 O   0  0  0  0  0  0  0  0  0  0  0  0
    4.0788    0.4047    0.7513 C   0  0  0  0  0  0  0  0  0  0  0  0
    1.3168   -1.7098   -1.6812 N   0  0  0  0  0  0  0  0  0  0  0  0
    0.0501   -2.0895   -1.4640 C   0  0  0  0  0  0  0  0  0  0  0  0
   -0.7187   -1.3738   -0.6009 N   0  0  0  0  0  0  0  0  0  0  0  0
   -0.2391   -0.2942    0.0400 C   0  0  0  0  0  0  0  0  0  0  0  0
   -2.9645    1.4865    0.6030 C   0  0  2  0  0  0  0  0  0  0  0  0
   -3.8636    2.1414    1.4271 O   0  0  0  0  0  0  0  0  0  0  0  0
   -3.7158    0.4660   -0.2304 C   0  0  2  0  0  0  0  0  0  0  0  0
   -4.9308    0.9596   -0.6947 O   0  0  0  0  0  0  0  0  0  0  0  0
   -6.1709   -1.1103    0.0965 H   0  0  0  0  0  0  0  0  0  0  0  0
   -4.4851   -2.6313    1.0527 H   0  0  0  0  0  0  0  0  0  0  0  0
   -3.6139   -2.2970   -0.4991 H   0  0  0  0  0  0  0  0  0  0  0  0
   -4.7056   -0.2269    1.5054 H   0  0  0  0  0  0  0  0  0  0  0  0
   -2.0764    0.9791    2.4981 H   0  0  0  0  0  0  0  0  0  0  0  0
    0.0820    2.3092    1.9114 H   0  0  0  0  0  0  0  0  0  0  0  0
    3.7569   -0.8865   -2.0466 H   0  0  0  0  0  0  0  0  0  0  0  0
    3.2056    1.7272   -0.7832 H   0  0  0  0  0  0  0  0  0  0  0  0
    5.3337    1.0024   -2.2450 H   0  0  0  0  0  0  0  0  0  0  0  0
    5.5503    2.0643   -0.7436 H   0  0  0  0  0  0  0  0  0  0  0  0
    7.0458    0.2364   -0.3879 H   0  0  0  0  0  0  0  0  0  0  0  0
    5.7855   -0.9863   -0.8772 H   0  0  0  0  0  0  0  0  0  0  0  0
    3.4774   -0.4641    1.0819 H   0  0  0  0  0  0  0  0  0  0  0  0
    3.9275    1.3026    1.3888 H   0  0  0  0  0  0  0  0  0  0  0  0
   -0.4073   -2.9447   -1.9405 H   0  0  0  0  0  0  0  0  0  0  0  0
   -2.3619    2.1720   -0.0152 H   0  0  0  0  0  0  0  0  0  0  0  0
   -3.8610    1.7965    2.3510 H   0  0  0  0  0  0  0  0  0  0  0  0
   -3.0835    0.0601   -1.0378 H   0  0  0  0  0  0  0  0  0  0  0  0
   -4.9930    0.6914   -1.6509 H   0  0  0  0  0  0  0  0  0  0  0  0
  1  2  1  0
  2  3  1  0
  3  4  1  0
  4  5  1  0
  5  6  1  0
  6  7  1  0
  7  8  2  0
  8  9  1  0
  9 10  2  0
 10 11  1  0
 11 12  1  0
 12 13  1  0
 13 14  1  0
 14 15  1  0
 15 16  1  0
 10 17  1  0
 17 18  2  0
 18 19  1  0
 19 20  2  0
  5 21  1  0
 21 22  1  0
 21 23  1  0
 23 24  1  0
 23  3  1  0
 20  6  1  0
 20  9  1  0
 16 12  1  0
  1 25  1  0
  2 26  1  0
  2 27  1  0
  3 28  1  1
  5 29  1  1
  7 30  1  0
 11 31  1  0
 12 32  1  1
 13 33  1  0
 13 34  1  0
 14 35  1  0
 14 36  1  0
 16 37  1  0
 16 38  1  0
 18 39  1  0
 21 40  1  6
 22 41  1  0
 23 42  1  6
 24 43  1  0
M  END
$$$$
