@<TRIPOS>MOLECULE
*****
 43 46 0 0 0
SMALL
GASTEIGER

@<TRIPOS>ATOM
      1 O5*        -5.6157   -1.7636   -0.3658 O.3     1  UNL1       -0.3924
      2 C5*        -4.3536   -1.9149    0.2061 C.3     1  UNL1        0.0730
      3 C4*        -3.9154   -0.6078    0.8263 C.3     1  UNL1        0.1126
      4 O4*        -2.6799   -0.6817    1.4093 O.3     1  UNL1       -0.3457
      5 C1*        -2.1285    0.5727    1.4660 C.3     1  UNL1        0.1667
      6 N          -0.7849    0.5642    0.9191 N.ar    1  UNL1       -0.2855
      7 C           0.1669    1.4677    1.2307 C.ar    1  UNL1        0.1004
      8 N           1.2823    1.1563    0.5429 N.ar    1  UNL1       -0.2306
      9 C           1.0872    0.0687   -0.2143 C.ar    1  UNL1        0.1475
     10 C           1.8745   -0.6438   -1.0822 C.ar    1  UNL1        0.1500
     11 N           3.2194   -0.3053   -1.3546 N.pl3   1  UNL1       -0.3221
     12 C           3.8099    0.8218   -0.6780 C.3     1  UNL1        0.0474
     13 C           5.2205    1.0940   -1.1664 C.3     1  UNL1       -0.0089
     14 C           5.9684   -0.0061   -0.4017 C.3     1  UNL1        0.0495
     15 O           5.4298    0.0877    0.8535 O.3     1  UNL1       -0.3779
     16 C           4.0788    0.4047    0.7513 C.3     1  UNL1        0.0660
     17 N           1.3168   -1.7098   -1.6812 N.ar    1  UNL1       -0.2186
     18 C           0.0501   -2.0895   -1.4640 C.ar    1  UNL1        0.1205
     19 N          -0.7187   -1.3738   -0.6009 N.ar    1  UNL1       -0.2159
     20 C          -0.2391   -0.2942    0.0400 C.ar    1  UNL1        0.1674
     21 C2*        -2.9645    1.4865    0.6030 C.3     1  UNL1        0.1285
     22 O2*        -3.8636    2.1414    1.4271 O.3     1  UNL1       -0.3847
     23 C3*        -3.7158    0.4660   -0.2304 C.3     1  UNL1        0.1135
     24 O3*        -4.9308    0.9596   -0.6947 O.3     1  UNL1       -0.3864
     25 H5*        -6.1709   -1.1103    0.0965 H       1  UNL1        0.2095
     26 H5*1       -4.4851   -2.6313    1.0527 H       1  UNL1        0.0584
     27 H5*2       -3.6139   -2.2970   -0.4991 H       1  UNL1        0.0584
     28 H4*        -4.7056   -0.2269    1.5054 H       1  UNL1        0.0647
     29 H1*        -2.0764    0.9791    2.4981 H       1  UNL1        0.0866
     30 H           0.0820    2.3092    1.9114 H       1  UNL1        0.1030
     31 H           3.7569   -0.8865   -2.0466 H       1  UNL1        0.1479
     32 H           3.2056    1.7272   -0.7832 H       1  UNL1        0.0521
     33 H           5.3337    1.0024   -2.2450 H       1  UNL1        0.0306
     34 H           5.5503    2.0643   -0.7436 H       1  UNL1        0.0306
     35 H           7.0458    0.2364   -0.3879 H       1  UNL1        0.0560
     36 H           5.7855   -0.9863   -0.8772 H       1  UNL1        0.0560
     37 H           3.4774   -0.4641    1.0819 H       1  UNL1        0.0578
     38 H           3.9275    1.3026    1.3888 H       1  UNL1        0.0578
     39 H          -0.4073   -2.9447   -1.9405 H       1  UNL1        0.1048
     40 H2*        -2.3619    2.1720   -0.0152 H       1  UNL1        0.0665
     41 H2*        -3.8610    1.7965    2.3510 H       1  UNL1        0.2101
     42 H3*        -3.0835    0.0601   -1.0378 H       1  UNL1        0.0647
     43 H3*        -4.9930    0.6914   -1.6509 H       1  UNL1        0.2100
@<TRIPOS>BOND
     1     1     2    1
     2     2     3    1
     3     3     4    1
     4     4     5    1
     5     5     6    1
     6     6     7   ar
     7     7     8   ar
     8     8     9   ar
     9     9    10   ar
    10    10    11    1
    11    11    12    1
    12    12    13    1
    13    13    14    1
    14    14    15    1
    15    15    16    1
    16    10    17   ar
    17    17    18   ar
    18    18    19   ar
    19    19    20   ar
    20     5    21    1
    21    21    22    1
    22    21    23    1
    23    23    24    1
    24    23     3    1
    25    20     6   ar
    26    20     9   ar
    27    16    12    1
    28     1    25    1
    29     2    26    1
    30     2    27    1
    31     3    28    1
    32     5    29    1
    33     7    30    1
    34    11    31    1
    35    12    32    1
    36    13    33    1
    37    13    34    1
    38    14    35    1
    39    14    36    1
    40    16    37    1
    41    16    38    1
    42    18    39    1
    43    21    40    1
    44    22    41    1
    45    23    42    1
    46    24    43    1
