@<TRIPOS>MOLECULE
*****
 55 59 0 0 0
SMALL
GASTEIGER

@<TRIPOS>ATOM
      1 C           0.8563   -2.2026    2.7855 C.3     1  UNL1        0.0788
      2 O           0.3210   -1.4949    1.6851 O.3     1  UNL1       -0.4943
      3 C           1.0313   -0.4807    1.0423 C.ar    1  UNL1        0.1328
      4 C           2.2761   -0.0945    1.4309 C.ar    1  UNL1        0.0230
      5 C           2.9902    0.9162    0.7925 C.ar    1  UNL1        0.1319
      6 O           4.2398    1.3254    1.1535 O.3     1  UNL1       -0.4559
      7 C           5.4221    1.0119    0.5342 C.ar    1  UNL1        0.1284
      8 C           6.5991    1.3490    1.1661 C.ar    1  UNL1       -0.0193
      9 C           7.7893    1.0393    0.5403 C.ar    1  UNL1       -0.0583
     10 C           7.7614    0.4057   -0.6895 C.ar    1  UNL1       -0.0615
     11 C           6.5622    0.0834   -1.2953 C.ar    1  UNL1       -0.0583
     12 C           5.3582    0.3804   -0.6935 C.ar    1  UNL1       -0.0193
     13 C           2.3738    1.5321   -0.2803 C.ar    1  UNL1       -0.0185
     14 C           1.1361    1.1635   -0.6835 C.ar    1  UNL1       -0.0455
     15 C           0.4457    0.1578   -0.0345 C.ar    1  UNL1        0.0444
     16 C          -0.9285   -0.1991   -0.4374 C.ar    1  UNL1        0.1036
     17 N          -2.0608    0.0105    0.2632 N.ar    1  UNL1       -0.2308
     18 C          -3.1202   -0.4811   -0.3632 C.ar    1  UNL1        0.1182
     19 C          -4.5695   -0.4587    0.0012 C.3     1  UNL1        0.0228
     20 C          -4.8668   -0.2449    1.4406 C.3     1  UNL1       -0.0145
     21 C          -4.9202    1.2626    1.1877 C.3     1  UNL1        0.0646
     22 C          -6.1024    1.9495    1.8288 C.3     1  UNL1       -0.0360
     23 O          -3.7502    1.9324    1.4449 O.3     1  UNL1       -0.3888
     24 C          -5.2063    0.9239   -0.2606 C.3     1  UNL1       -0.0145
     25 N          -2.6570   -1.0373   -1.5190 N.ar    1  UNL1       -0.2982
     26 C          -3.2537   -1.6866   -2.5285 C.ar    1  UNL1        0.0297
     27 C          -2.5284   -2.1678   -3.5875 C.ar    1  UNL1        0.0463
     28 N          -1.1959   -2.0075   -3.6530 N.ar    1  UNL1       -0.2371
     29 C          -0.5788   -1.3649   -2.6615 C.ar    1  UNL1        0.1424
     30 N           0.8167   -1.1666   -2.6705 N.pl3   1  UNL1       -0.3414
     31 C          -1.3067   -0.8709   -1.5777 C.ar    1  UNL1        0.1136
     32 H           0.6749   -1.6771    3.7390 H       1  UNL1        0.0660
     33 H           1.9434   -2.4230    2.6413 H       1  UNL1        0.0660
     34 H           0.2866   -3.1776    2.8528 H       1  UNL1        0.0660
     35 H           2.7364   -0.5857    2.2702 H       1  UNL1        0.0691
     36 H           6.5696    1.8545    2.1427 H       1  UNL1        0.0654
     37 H           8.7095    1.3040    1.0390 H       1  UNL1        0.0619
     38 H           8.6692    0.1597   -1.1828 H       1  UNL1        0.0618
     39 H           6.5674   -0.3972   -2.2421 H       1  UNL1        0.0619
     40 H           4.4012    0.1290   -1.1699 H       1  UNL1        0.0654
     41 H           2.8563    2.3343   -0.8348 H       1  UNL1        0.0654
     42 H           0.6642    1.6545   -1.5296 H       1  UNL1        0.0626
     43 H          -5.1541   -1.2105   -0.5620 H       1  UNL1        0.0381
     44 H          -4.1019   -0.5195    2.1637 H       1  UNL1        0.0300
     45 H          -5.9117   -0.5678    1.6956 H       1  UNL1        0.0300
     46 H          -6.2153    1.5163    2.8538 H       1  UNL1        0.0257
     47 H          -5.8470    3.0191    1.9600 H       1  UNL1        0.0257
     48 H          -7.0257    1.8869    1.2273 H       1  UNL1        0.0257
     49 H          -3.3455    1.5426    2.2788 H       1  UNL1        0.2101
     50 H          -4.5313    1.4869   -0.9316 H       1  UNL1        0.0300
     51 H          -6.2700    0.8833   -0.5447 H       1  UNL1        0.0300
     52 H          -4.3161   -1.8182   -2.4731 H       1  UNL1        0.0829
     53 H          -3.0328   -2.7028   -4.4097 H       1  UNL1        0.0845
     54 H           1.4692   -1.7253   -2.0557 H       1  UNL1        0.1438
     55 H           1.2695   -0.4520   -3.2896 H       1  UNL1        0.1438
@<TRIPOS>BOND
     1     1     2    1
     2     2     3    1
     3     3     4   ar
     4     4     5   ar
     5     5     6    1
     6     6     7    1
     7     7     8   ar
     8     8     9   ar
     9     9    10   ar
    10    10    11   ar
    11    11    12   ar
    12     5    13   ar
    13    13    14   ar
    14    14    15   ar
    15    15    16    1
    16    16    17   ar
    17    17    18   ar
    18    18    19    1
    19    19    20    1
    20    20    21    1
    21    21    22    1
    22    21    23    1
    23    21    24    1
    24    18    25   ar
    25    25    26   ar
    26    26    27   ar
    27    27    28   ar
    28    28    29   ar
    29    29    30    1
    30    29    31   ar
    31    15     3   ar
    32    31    16   ar
    33    12     7   ar
    34    24    19    1
    35    31    25   ar
    36     1    32    1
    37     1    33    1
    38     1    34    1
    39     4    35    1
    40     8    36    1
    41     9    37    1
    42    10    38    1
    43    11    39    1
    44    12    40    1
    45    13    41    1
    46    14    42    1
    47    19    43    1
    48    20    44    1
    49    20    45    1
    50    22    46    1
    51    22    47    1
    52    22    48    1
    53    23    49    1
    54    24    50    1
    55    24    51    1
    56    26    52    1
    57    27    53    1
    58    30    54    1
    59    30    55    1
