
     RDKit          3D

 55 59  0  0  0  0  0  0  0  0999 V2000
    0.8563   -2.2026    2.7855 C   0  0  0  0  0  0  0  0  0  0  0  0
    0.3210   -1.4949    1.6851 O   0  0  0  0  0  0  0  0  0  0  0  0
    1.0313   -0.4807    1.0423 C   0  0  0  0  0  0  0  0  0  0  0  0
    2.2761   -0.0945    1.4309 C   0  0  0  0  0  0  0  0  0  0  0  0
    2.9902    0.9162    0.7925 C   0  0  0  0  0  0  0  0  0  0  0  0
    4.2398    1.3254    1.1535 O   0  0  0  0  0  0  0  0  0  0  0  0
    5.4221    1.0119    0.5342 C   0  0  0  0  0  0  0  0  0  0  0  0
    6.5991    1.3490    1.1661 C   0  0  0  0  0  0  0  0  0  0  0  0
    7.7893    1.0393    0.5403 C   0  0  0  0  0  0  0  0  0  0  0  0
    7.7614    0.4057   -0.6895 C   0  0  0  0  0  0  0  0  0  0  0  0
    6.5622    0.0834   -1.2953 C   0  0  0  0  0  0  0  0  0  0  0  0
    5.3582    0.3804   -0.6935 C   0  0  0  0  0  0  0  0  0  0  0  0
    2.3738    1.5321   -0.2803 C   0  0  0  0  0  0  0  0  0  0  0  0
    1.1361    1.1635   -0.6835 C   0  0  0  0  0  0  0  0  0  0  0  0
    0.4457    0.1578   -0.0345 C   0  0  0  0  0  0  0  0  0  0  0  0
   -0.9285   -0.1991   -0.4374 C   0  0  0  0  0  0  0  0  0  0  0  0
   -2.0608    0.0105    0.2632 N   0  0  0  0  0  0  0  0  0  0  0  0
   -3.1202   -0.4811   -0.3632 C   0  0  0  0  0  0  0  0  0  0  0  0
   -4.5695   -0.4587    0.0012 C   0  0  1  0  0  0  0  0  0  0  0  0
   -4.8668   -0.2449    1.4406 C   0  0  0  0  0  0  0  0  0  0  0  0
   -4.9202    1.2626    1.1877 C   0  0  1  0  0  0  0  0  0  0  0  0
   -6.1024    1.9495    1.8288 C   0  0  0  0  0  0  0  0  0  0  0  0
   -3.7502    1.9324    1.4449 O   0  0  0  0  0  0  0  0  0  0  0  0
   -5.2063    0.9239   -0.2606 C   0  0  0  0  0  0  0  0  0  0  0  0
   -2.6570   -1.0373   -1.5190 N   0  0  0  0  0  0  0  0  0  0  0  0
   -3.2537   -1.6866   -2.5285 C   0  0  0  0  0  0  0  0  0  0  0  0
   -2.5284   -2.1678   -3.5875 C   0  0  0  0  0  0  0  0  0  0  0  0
   -1.1959   -2.0075   -3.6530 N   0  0  0  0  0  0  0  0  0  0  0  0
   -0.5788   -1.3649   -2.6615 C   0  0  0  0  0  0  0  0  0  0  0  0
    0.8167   -1.1666   -2.6705 N   0  0  0  0  0  0  0  0  0  0  0  0
   -1.3067   -0.8709   -1.5777 C   0  0  0  0  0  0  0  0  0  0  0  0
    0.6749   -1.6771    3.7390 H   0  0  0  0  0  0  0  0  0  0  0  0
    1.9434   -2.4230    2.6413 H   0  0  0  0  0  0  0  0  0  0  0  0
    0.2866   -3.1776    2.8528 H   0  0  0  0  0  0  0  0  0  0  0  0
    2.7364   -0.5857    2.2702 H   0  0  0  0  0  0  0  0  0  0  0  0
    6.5696    1.8545    2.1427 H   0  0  0  0  0  0  0  0  0  0  0  0
    8.7095    1.3040    1.0390 H   0  0  0  0  0  0  0  0  0  0  0  0
    8.6692    0.1597   -1.1828 H   0  0  0  0  0  0  0  0  0  0  0  0
    6.5674   -0.3972   -2.2421 H   0  0  0  0  0  0  0  0  0  0  0  0
    4.4012    0.1290   -1.1699 H   0  0  0  0  0  0  0  0  0  0  0  0
    2.8563    2.3343   -0.8348 H   0  0  0  0  0  0  0  0  0  0  0  0
    0.6642    1.6545   -1.5296 H   0  0  0  0  0  0  0  0  0  0  0  0
   -5.1541   -1.2105   -0.5620 H   0  0  0  0  0  0  0  0  0  0  0  0
   -4.1019   -0.5195    2.1637 H   0  0  0  0  0  0  0  0  0  0  0  0
   -5.9117   -0.5678    1.6956 H   0  0  0  0  0  0  0  0  0  0  0  0
   -6.2153    1.5163    2.8538 H   0  0  0  0  0  0  0  0  0  0  0  0
   -5.8470    3.0191    1.9600 H   0  0  0  0  0  0  0  0  0  0  0  0
   -7.0257    1.8869    1.2273 H   0  0  0  0  0  0  0  0  0  0  0  0
   -3.3455    1.5426    2.2788 H   0  0  0  0  0  0  0  0  0  0  0  0
   -4.5313    1.4869   -0.9316 H   0  0  0  0  0  0  0  0  0  0  0  0
   -6.2700    0.8833   -0.5447 H   0  0  0  0  0  0  0  0  0  0  0  0
   -4.3161   -1.8182   -2.4731 H   0  0  0  0  0  0  0  0  0  0  0  0
   -3.0328   -2.7028   -4.4097 H   0  0  0  0  0  0  0  0  0  0  0  0
    1.4692   -1.7253   -2.0557 H   0  0  0  0  0  0  0  0  0  0  0  0
    1.2695   -0.4520   -3.2896 H   0  0  0  0  0  0  0  0  0  0  0  0
  1  2  1  0
  2  3  1  0
  3  4  2  0
  4  5  1  0
  5  6  1  0
  6  7  1  0
  7  8  2  0
  8  9  1  0
  9 10  2  0
 10 11  1  0
 11 12  2  0
  5 13  2  0
 13 14  1  0
 14 15  2  0
 15 16  1  0
 16 17  1  0
 17 18  2  0
 18 19  1  0
 19 20  1  0
 20 21  1  0
 21 22  1  0
 21 23  1  6
 21 24  1  0
 18 25  1  0
 25 26  1  0
 26 27  2  0
 27 28  1  0
 28 29  2  0
 29 30  1  0
 29 31  1  0
 15  3  1  0
 31 16  2  0
 12  7  1  0
 24 19  1  0
 31 25  1  0
  1 32  1  0
  1 33  1  0
  1 34  1  0
  4 35  1  0
  8 36  1  0
  9 37  1  0
 10 38  1  0
 11 39  1  0
 12 40  1  0
 13 41  1  0
 14 42  1  0
 19 43  1  6
 20 44  1  0
 20 45  1  0
 22 46  1  0
 22 47  1  0
 22 48  1  0
 23 49  1  0
 24 50  1  0
 24 51  1  0
 26 52  1  0
 27 53  1  0
 30 54  1  0
 30 55  1  0
M  END
$$$$
