@<TRIPOS>MOLECULE
*****
 38 37 0 0 0
SMALL
GASTEIGER

@<TRIPOS>ATOM
      1 C           3.9442   -3.1335   -0.6421 C.3     1  UNL1       -0.0410
      2 C           2.8456   -2.1283   -0.9866 C.3     1  UNL1        0.0549
      3 O           2.9141   -1.1220   -0.0273 O.3     1  UNL1       -0.3005
      4 P           1.7200    0.0500   -0.2636 P.3     1  UNL1        0.3914
      5 O           0.8269   -0.3494   -1.4154 O.2     1  UNL1       -0.2458
      6 O           2.4906    1.5091   -0.6310 O.3     1  UNL1       -0.3005
      7 C           3.2773    1.9617    0.4002 C.3     1  UNL1        0.0549
      8 C           3.8845    3.2767   -0.0656 C.3     1  UNL1       -0.0410
      9 S           0.5858    0.1564    1.5027 S.3     1  UNL1       -0.0359
     10 C          -1.1447    0.5723    1.1617 C.3     1  UNL1        0.0449
     11 C          -1.8521   -0.5044    0.4052 C.3     1  UNL1       -0.0211
     12 N          -3.2358   -0.1327    0.1508 N.4     1  UNL1        0.2375
     13 C          -3.3299    0.9869   -0.7620 C.3     1  UNL1       -0.0418
     14 C          -3.9305    0.2332    1.3575 C.3     1  UNL1       -0.0418
     15 C          -3.9490   -1.2488   -0.4436 C.3     1  UNL1       -0.0418
     16 H           4.0462   -3.2225    0.4726 H       1  UNL1        0.0252
     17 H           4.8967   -2.8193   -1.1017 H       1  UNL1        0.0252
     18 H           3.6661   -4.1546   -0.9935 H       1  UNL1        0.0252
     19 H           1.8478   -2.5955   -0.9299 H       1  UNL1        0.0562
     20 H           3.0259   -1.7507   -2.0319 H       1  UNL1        0.0562
     21 H           2.6318    2.1692    1.2576 H       1  UNL1        0.0562
     22 H           4.0866    1.2593    0.7045 H       1  UNL1        0.0562
     23 H           3.1419    4.0923    0.1254 H       1  UNL1        0.0252
     24 H           4.1301    3.2705   -1.1489 H       1  UNL1        0.0252
     25 H           4.7823    3.4513    0.5593 H       1  UNL1        0.0252
     26 H          -1.6335    0.6389    2.1629 H       1  UNL1        0.0434
     27 H          -1.2762    1.5515    0.6951 H       1  UNL1        0.0434
     28 H          -1.8593   -1.4609    0.9564 H       1  UNL1        0.0823
     29 H          -1.3967   -0.6556   -0.6061 H       1  UNL1        0.0823
     30 H          -4.4277    1.1089   -0.9817 H       1  UNL1        0.0778
     31 H          -2.9796    1.9436   -0.3578 H       1  UNL1        0.0778
     32 H          -2.8597    0.7565   -1.7594 H       1  UNL1        0.0778
     33 H          -5.0234   -0.0529    1.3276 H       1  UNL1        0.0778
     34 H          -3.4422   -0.3246    2.1903 H       1  UNL1        0.0778
     35 H          -3.9308    1.3329    1.5309 H       1  UNL1        0.0778
     36 H          -4.1436   -1.0568   -1.5198 H       1  UNL1        0.0778
     37 H          -3.3916   -2.2122   -0.3293 H       1  UNL1        0.0778
     38 H          -4.9379   -1.3965    0.0367 H       1  UNL1        0.0778
@<TRIPOS>UNITY_ATOM_ATTR
12 1
charge 1
@<TRIPOS>BOND
     1     1     2    1
     2     2     3    1
     3     3     4    1
     4     4     5    2
     5     4     6    1
     6     6     7    1
     7     7     8    1
     8     4     9    1
     9     9    10    1
    10    10    11    1
    11    11    12    1
    12    12    13    1
    13    12    14    1
    14    12    15    1
    15     1    16    1
    16     1    17    1
    17     1    18    1
    18     2    19    1
    19     2    20    1
    20     7    21    1
    21     7    22    1
    22     8    23    1
    23     8    24    1
    24     8    25    1
    25    10    26    1
    26    10    27    1
    27    11    28    1
    28    11    29    1
    29    13    30    1
    30    13    31    1
    31    13    32    1
    32    14    33    1
    33    14    34    1
    34    14    35    1
    35    15    36    1
    36    15    37    1
    37    15    38    1
