
     RDKit          3D

 38 37  0  0  0  0  0  0  0  0999 V2000
    3.9442   -3.1335   -0.6421 C   0  0  0  0  0  0  0  0  0  0  0  0
    2.8456   -2.1283   -0.9866 C   0  0  0  0  0  0  0  0  0  0  0  0
    2.9141   -1.1220   -0.0273 O   0  0  0  0  0  0  0  0  0  0  0  0
    1.7200    0.0500   -0.2636 P   0  0  0  0  0  0  0  0  0  0  0  0
    0.8269   -0.3494   -1.4154 O   0  0  0  0  0  0  0  0  0  0  0  0
    2.4906    1.5091   -0.6310 O   0  0  0  0  0  0  0  0  0  0  0  0
    3.2773    1.9617    0.4002 C   0  0  0  0  0  0  0  0  0  0  0  0
    3.8845    3.2767   -0.0656 C   0  0  0  0  0  0  0  0  0  0  0  0
    0.5858    0.1564    1.5027 S   0  0  0  0  0  0  0  0  0  0  0  0
   -1.1447    0.5723    1.1617 C   0  0  0  0  0  0  0  0  0  0  0  0
   -1.8521   -0.5044    0.4052 C   0  0  0  0  0  0  0  0  0  0  0  0
   -3.2358   -0.1327    0.1508 N   0  0  0  0  0  4  0  0  0  0  0  0
   -3.3299    0.9869   -0.7620 C   0  0  0  0  0  0  0  0  0  0  0  0
   -3.9305    0.2332    1.3575 C   0  0  0  0  0  0  0  0  0  0  0  0
   -3.9490   -1.2488   -0.4436 C   0  0  0  0  0  0  0  0  0  0  0  0
    4.0462   -3.2225    0.4726 H   0  0  0  0  0  0  0  0  0  0  0  0
    4.8967   -2.8193   -1.1017 H   0  0  0  0  0  0  0  0  0  0  0  0
    3.6661   -4.1546   -0.9935 H   0  0  0  0  0  0  0  0  0  0  0  0
    1.8478   -2.5955   -0.9299 H   0  0  0  0  0  0  0  0  0  0  0  0
    3.0259   -1.7507   -2.0319 H   0  0  0  0  0  0  0  0  0  0  0  0
    2.6318    2.1692    1.2576 H   0  0  0  0  0  0  0  0  0  0  0  0
    4.0866    1.2593    0.7045 H   0  0  0  0  0  0  0  0  0  0  0  0
    3.1419    4.0923    0.1254 H   0  0  0  0  0  0  0  0  0  0  0  0
    4.1301    3.2705   -1.1489 H   0  0  0  0  0  0  0  0  0  0  0  0
    4.7823    3.4513    0.5593 H   0  0  0  0  0  0  0  0  0  0  0  0
   -1.6335    0.6389    2.1629 H   0  0  0  0  0  0  0  0  0  0  0  0
   -1.2762    1.5515    0.6951 H   0  0  0  0  0  0  0  0  0  0  0  0
   -1.8593   -1.4609    0.9564 H   0  0  0  0  0  0  0  0  0  0  0  0
   -1.3967   -0.6556   -0.6061 H   0  0  0  0  0  0  0  0  0  0  0  0
   -4.4277    1.1089   -0.9817 H   0  0  0  0  0  0  0  0  0  0  0  0
   -2.9796    1.9436   -0.3578 H   0  0  0  0  0  0  0  0  0  0  0  0
   -2.8597    0.7565   -1.7594 H   0  0  0  0  0  0  0  0  0  0  0  0
   -5.0234   -0.0529    1.3276 H   0  0  0  0  0  0  0  0  0  0  0  0
   -3.4422   -0.3246    2.1903 H   0  0  0  0  0  0  0  0  0  0  0  0
   -3.9308    1.3329    1.5309 H   0  0  0  0  0  0  0  0  0  0  0  0
   -4.1436   -1.0568   -1.5198 H   0  0  0  0  0  0  0  0  0  0  0  0
   -3.3916   -2.2122   -0.3293 H   0  0  0  0  0  0  0  0  0  0  0  0
   -4.9379   -1.3965    0.0367 H   0  0  0  0  0  0  0  0  0  0  0  0
  1  2  1  0
  2  3  1  0
  3  4  1  0
  4  5  2  0
  4  6  1  0
  6  7  1  0
  7  8  1  0
  4  9  1  0
  9 10  1  0
 10 11  1  0
 11 12  1  0
 12 13  1  0
 12 14  1  0
 12 15  1  0
  1 16  1  0
  1 17  1  0
  1 18  1  0
  2 19  1  0
  2 20  1  0
  7 21  1  0
  7 22  1  0
  8 23  1  0
  8 24  1  0
  8 25  1  0
 10 26  1  0
 10 27  1  0
 11 28  1  0
 11 29  1  0
 13 30  1  0
 13 31  1  0
 13 32  1  0
 14 33  1  0
 14 34  1  0
 14 35  1  0
 15 36  1  0
 15 37  1  0
 15 38  1  0
M  CHG  1  12   1
M  END
$$$$
