@<TRIPOS>MOLECULE
*****
 50 54 0 0 0
SMALL
GASTEIGER

@<TRIPOS>ATOM
      1 O           9.1863   -1.3602   -1.5823 O.2     1  UNL1       -0.2489
      2 C           9.3900   -0.5868   -0.6114 C.2     1  UNL1        0.3282
      3 O          10.0741    0.6266   -0.7926 O.3     1  UNL1       -0.4793
      4 C           8.9007   -0.9674    0.7303 C.3     1  UNL1        0.1593
      5 N           7.5540   -0.4573    0.9096 N.ar    1  UNL1       -0.1519
      6 N           7.2656    0.7245    1.4097 N.ar    1  UNL1       -0.0452
      7 N           5.9619    0.8391    1.4201 N.ar    1  UNL1       -0.1072
      8 C           5.4300   -0.2710    0.9263 C.ar    1  UNL1        0.2126
      9 C           4.0330   -0.6339    0.7283 C.ar    1  UNL1        0.0810
     10 C           3.2299   -1.6232    1.1946 C.ar    1  UNL1        0.0477
     11 N           1.9916   -1.6235    0.7800 N.ar    1  UNL1       -0.2324
     12 C           1.4821   -0.8428    0.0292 C.ar    1  UNL1        0.1613
     13 N           0.2172   -0.5534   -0.6101 N.pl3   1  UNL1       -0.3096
     14 C           0.0143    0.5580   -1.5024 C.3     1  UNL1        0.0146
     15 C          -1.1876    1.3785   -1.1429 C.3     1  UNL1       -0.0286
     16 C          -2.3404    0.4746   -0.7974 C.3     1  UNL1        0.0049
     17 C          -2.0532   -0.9677   -1.1542 C.3     1  UNL1       -0.0286
     18 C          -0.8586   -1.4348   -0.3183 C.3     1  UNL1        0.0146
     19 C          -2.9722    0.7147    0.5319 C.3     1  UNL1        0.0194
     20 N          -4.2613    0.7647   -0.0804 N.pl3   1  UNL1       -0.3275
     21 C          -5.6310    0.6725    0.3263 C.ar    1  UNL1        0.0510
     22 C          -6.4444    1.7458    0.0604 C.ar    1  UNL1       -0.0040
     23 C          -7.7749    1.6592    0.4525 C.ar    1  UNL1        0.1252
     24 F          -8.6337    2.6751    0.2244 F       1  UNL1       -0.2054
     25 C          -8.2392    0.5262    1.0845 C.ar    1  UNL1       -0.0250
     26 C          -7.3949   -0.5368    1.3376 C.ar    1  UNL1       -0.0389
     27 C          -6.0633   -0.4725    0.9552 C.ar    1  UNL1        0.0621
     28 CL         -4.9220   -1.7542    1.2292 Cl      1  UNL1       -0.0816
     29 C          -3.6329    0.9619   -1.3641 C.3     1  UNL1        0.0194
     30 S           2.9140    0.2760   -0.3228 S.2     1  UNL1       -0.0490
     31 N           6.4424   -1.0909    0.6036 N.ar    1  UNL1       -0.1293
     32 H          10.3405    0.9488   -1.7177 H       1  UNL1        0.2951
     33 H           8.9153   -2.0787    0.8375 H       1  UNL1        0.0644
     34 H           9.5461   -0.5153    1.5030 H       1  UNL1        0.0644
     35 H           3.6179   -2.3864    1.8918 H       1  UNL1        0.0843
     36 H           0.9120    1.2319   -1.3908 H       1  UNL1        0.0464
     37 H           0.0197    0.2538   -2.5685 H       1  UNL1        0.0464
     38 H          -1.4610    2.0117   -2.0058 H       1  UNL1        0.0287
     39 H          -0.9367    2.0531   -0.3008 H       1  UNL1        0.0287
     40 H          -1.7322   -1.0100   -2.2151 H       1  UNL1        0.0287
     41 H          -2.8988   -1.6253   -0.9747 H       1  UNL1        0.0287
     42 H          -1.1292   -1.4448    0.7635 H       1  UNL1        0.0464
     43 H          -0.6145   -2.4612   -0.6496 H       1  UNL1        0.0464
     44 H          -2.8392   -0.0763    1.2978 H       1  UNL1        0.0470
     45 H          -2.6860    1.7176    0.9309 H       1  UNL1        0.0470
     46 H          -6.1305    2.6517   -0.4298 H       1  UNL1        0.0665
     47 H          -9.2739    0.4424    1.3968 H       1  UNL1        0.0647
     48 H          -7.7545   -1.4238    1.8314 H       1  UNL1        0.0634
     49 H          -3.5644    2.0196   -1.6930 H       1  UNL1        0.0470
     50 H          -4.0082    0.2700   -2.1633 H       1  UNL1        0.0470
@<TRIPOS>BOND
     1     1     2    2
     2     2     3    1
     3     2     4    1
     4     4     5    1
     5     5     6   ar
     6     6     7   ar
     7     7     8   ar
     8     8     9    1
     9     9    10   ar
    10    10    11   ar
    11    11    12   ar
    12    12    13    1
    13    13    14    1
    14    14    15    1
    15    15    16    1
    16    16    17    1
    17    17    18    1
    18    16    19    1
    19    19    20    1
    20    20    21    1
    21    21    22   ar
    22    22    23   ar
    23    23    24    1
    24    23    25   ar
    25    25    26   ar
    26    26    27   ar
    27    27    28    1
    28    20    29    1
    29    12    30   ar
    30     8    31   ar
    31    31     5   ar
    32    30     9   ar
    33    18    13    1
    34    27    21   ar
    35    29    16    1
    36     3    32    1
    37     4    33    1
    38     4    34    1
    39    10    35    1
    40    14    36    1
    41    14    37    1
    42    15    38    1
    43    15    39    1
    44    17    40    1
    45    17    41    1
    46    18    42    1
    47    18    43    1
    48    19    44    1
    49    19    45    1
    50    22    46    1
    51    25    47    1
    52    26    48    1
    53    29    49    1
    54    29    50    1
