
     RDKit          3D

 50 54  0  0  0  0  0  0  0  0999 V2000
    9.1863   -1.3602   -1.5823 O   0  0  0  0  0  0  0  0  0  0  0  0
    9.3900   -0.5868   -0.6114 C   0  0  0  0  0  0  0  0  0  0  0  0
   10.0741    0.6266   -0.7926 O   0  0  0  0  0  0  0  0  0  0  0  0
    8.9007   -0.9674    0.7303 C   0  0  0  0  0  0  0  0  0  0  0  0
    7.5540   -0.4573    0.9096 N   0  0  0  0  0  0  0  0  0  0  0  0
    7.2656    0.7245    1.4097 N   0  0  0  0  0  0  0  0  0  0  0  0
    5.9619    0.8391    1.4201 N   0  0  0  0  0  0  0  0  0  0  0  0
    5.4300   -0.2710    0.9263 C   0  0  0  0  0  0  0  0  0  0  0  0
    4.0330   -0.6339    0.7283 C   0  0  0  0  0  0  0  0  0  0  0  0
    3.2299   -1.6232    1.1946 C   0  0  0  0  0  0  0  0  0  0  0  0
    1.9916   -1.6235    0.7800 N   0  0  0  0  0  0  0  0  0  0  0  0
    1.4821   -0.8428    0.0292 C   0  0  0  0  0  0  0  0  0  0  0  0
    0.2172   -0.5534   -0.6101 N   0  0  0  0  0  0  0  0  0  0  0  0
    0.0143    0.5580   -1.5024 C   0  0  0  0  0  0  0  0  0  0  0  0
   -1.1876    1.3785   -1.1429 C   0  0  0  0  0  0  0  0  0  0  0  0
   -2.3404    0.4746   -0.7974 C   0  0  0  0  0  0  0  0  0  0  0  0
   -2.0532   -0.9677   -1.1542 C   0  0  0  0  0  0  0  0  0  0  0  0
   -0.8586   -1.4348   -0.3183 C   0  0  0  0  0  0  0  0  0  0  0  0
   -2.9722    0.7147    0.5319 C   0  0  0  0  0  0  0  0  0  0  0  0
   -4.2613    0.7647   -0.0804 N   0  0  0  0  0  0  0  0  0  0  0  0
   -5.6310    0.6725    0.3263 C   0  0  0  0  0  0  0  0  0  0  0  0
   -6.4444    1.7458    0.0604 C   0  0  0  0  0  0  0  0  0  0  0  0
   -7.7749    1.6592    0.4525 C   0  0  0  0  0  0  0  0  0  0  0  0
   -8.6337    2.6751    0.2244 F   0  0  0  0  0  0  0  0  0  0  0  0
   -8.2392    0.5262    1.0845 C   0  0  0  0  0  0  0  0  0  0  0  0
   -7.3949   -0.5368    1.3376 C   0  0  0  0  0  0  0  0  0  0  0  0
   -6.0633   -0.4725    0.9552 C   0  0  0  0  0  0  0  0  0  0  0  0
   -4.9220   -1.7542    1.2292 Cl  0  0  0  0  0  0  0  0  0  0  0  0
   -3.6329    0.9619   -1.3641 C   0  0  0  0  0  0  0  0  0  0  0  0
    2.9140    0.2760   -0.3228 S   0  0  0  0  0  0  0  0  0  0  0  0
    6.4424   -1.0909    0.6036 N   0  0  0  0  0  0  0  0  0  0  0  0
   10.3405    0.9488   -1.7177 H   0  0  0  0  0  0  0  0  0  0  0  0
    8.9153   -2.0787    0.8375 H   0  0  0  0  0  0  0  0  0  0  0  0
    9.5461   -0.5153    1.5030 H   0  0  0  0  0  0  0  0  0  0  0  0
    3.6179   -2.3864    1.8918 H   0  0  0  0  0  0  0  0  0  0  0  0
    0.9120    1.2319   -1.3908 H   0  0  0  0  0  0  0  0  0  0  0  0
    0.0197    0.2538   -2.5685 H   0  0  0  0  0  0  0  0  0  0  0  0
   -1.4610    2.0117   -2.0058 H   0  0  0  0  0  0  0  0  0  0  0  0
   -0.9367    2.0531   -0.3008 H   0  0  0  0  0  0  0  0  0  0  0  0
   -1.7322   -1.0100   -2.2151 H   0  0  0  0  0  0  0  0  0  0  0  0
   -2.8988   -1.6253   -0.9747 H   0  0  0  0  0  0  0  0  0  0  0  0
   -1.1292   -1.4448    0.7635 H   0  0  0  0  0  0  0  0  0  0  0  0
   -0.6145   -2.4612   -0.6496 H   0  0  0  0  0  0  0  0  0  0  0  0
   -2.8392   -0.0763    1.2978 H   0  0  0  0  0  0  0  0  0  0  0  0
   -2.6860    1.7176    0.9309 H   0  0  0  0  0  0  0  0  0  0  0  0
   -6.1305    2.6517   -0.4298 H   0  0  0  0  0  0  0  0  0  0  0  0
   -9.2739    0.4424    1.3968 H   0  0  0  0  0  0  0  0  0  0  0  0
   -7.7545   -1.4238    1.8314 H   0  0  0  0  0  0  0  0  0  0  0  0
   -3.5644    2.0196   -1.6930 H   0  0  0  0  0  0  0  0  0  0  0  0
   -4.0082    0.2700   -2.1633 H   0  0  0  0  0  0  0  0  0  0  0  0
  1  2  2  0
  2  3  1  0
  2  4  1  0
  4  5  1  0
  5  6  1  0
  6  7  2  0
  7  8  1  0
  8  9  1  0
  9 10  2  0
 10 11  1  0
 11 12  2  0
 12 13  1  0
 13 14  1  0
 14 15  1  0
 15 16  1  0
 16 17  1  0
 17 18  1  0
 16 19  1  0
 19 20  1  0
 20 21  1  0
 21 22  2  0
 22 23  1  0
 23 24  1  0
 23 25  2  0
 25 26  1  0
 26 27  2  0
 27 28  1  0
 20 29  1  0
 12 30  1  0
  8 31  2  0
 31  5  1  0
 30  9  1  0
 18 13  1  0
 27 21  1  0
 29 16  1  0
  3 32  1  0
  4 33  1  0
  4 34  1  0
 10 35  1  0
 14 36  1  0
 14 37  1  0
 15 38  1  0
 15 39  1  0
 17 40  1  0
 17 41  1  0
 18 42  1  0
 18 43  1  0
 19 44  1  0
 19 45  1  0
 22 46  1  0
 25 47  1  0
 26 48  1  0
 29 49  1  0
 29 50  1  0
M  END
$$$$
