@<TRIPOS>MOLECULE
*****
 31 32 0 0 0
SMALL
GASTEIGER

@<TRIPOS>ATOM
      1 C5M         4.3450    0.1493   -1.1081 C.3     1    T1       -0.0332
      2 C5          3.2563    0.1383   -0.0973 C.ar    1    T1        0.0302
      3 C6          1.9505   -0.0529   -0.4631 C.ar    1    T1        0.0199
      4 N1          0.8762   -0.0822    0.3699 N.ar    1    T1       -0.2737
      5 C1*        -0.4245   -0.2887   -0.1369 C.3     1    T1        0.1422
      6 C2*        -1.2279   -1.3874    0.4663 C.3     1    T1        0.0214
      7 C3*        -2.6526   -0.8905    0.1834 C.3     1    T1        0.0876
      8 O3*        -3.4240   -1.8528   -0.4575 O.3     1    T1       -0.3890
      9 C4*        -2.3804    0.2816   -0.7049 C.3     1    T1        0.1100
     10 C5*        -3.5385    1.2361   -0.8016 C.3     1    T1        0.0729
     11 O5*        -3.2153    2.3788   -1.5177 O.3     1    T1       -0.3924
     12 O4*        -1.2697    0.8402   -0.0725 O.3     1    T1       -0.3483
     13 C2          1.1666    0.0956    1.6503 C.ar    1    T1        0.3313
     14 O2          0.2400    0.0867    2.5134 O.2     1    T1       -0.2464
     15 N3          2.4402    0.2924    2.0985 N.ar    1    T1       -0.2747
     16 C4          3.4853    0.3159    1.2437 C.ar    1    T1        0.2568
     17 O4          4.6800    0.4966    1.6294 O.2     1    T1       -0.2674
     18 H5M1        4.7733    1.1893   -1.1237 H       1    T1        0.0280
     19 H5M2        5.1108   -0.6181   -0.9036 H       1    T1        0.0280
     20 H5M3        3.9061   -0.0510   -2.1003 H       1    T1        0.0280
     21 H6          1.7639   -0.1954   -1.5367 H       1    T1        0.0816
     22 H1*        -0.3778   -0.5049   -1.2406 H       1    T1        0.0840
     23 H2*1       -1.0584   -1.5888    1.5277 H       1    T1        0.0335
     24 H2*2       -1.1293   -2.3353   -0.1342 H       1    T1        0.0335
     25 H3*        -3.1277   -0.5920    1.1394 H       1    T1        0.0621
     26 H3*        -3.6667   -2.5703    0.1637 H       1    T1        0.2099
     27 H4*        -2.0514   -0.1001   -1.6794 H       1    T1        0.0646
     28 H5*1       -4.3338    0.6744   -1.3563 H       1    T1        0.0584
     29 H5*2       -3.9757    1.4652    0.1902 H       1    T1        0.0584
     30 H5*        -2.8389    3.0343   -0.8485 H       1    T1        0.2095
     31 H3          2.6987    0.4358    3.1071 H       1    T1        0.1734
@<TRIPOS>BOND
     1     1     2    1
     2     2     3   ar
     3     3     4   ar
     4     4     5    1
     5     5     6    1
     6     6     7    1
     7     7     8    1
     8     7     9    1
     9     9    10    1
    10    10    11    1
    11     9    12    1
    12     4    13   ar
    13    13    14    2
    14    13    15   ar
    15    15    16   ar
    16    16    17    2
    17    16     2   ar
    18    12     5    1
    19     1    18    1
    20     1    19    1
    21     1    20    1
    22     3    21    1
    23     5    22    1
    24     6    23    1
    25     6    24    1
    26     7    25    1
    27     8    26    1
    28     9    27    1
    29    10    28    1
    30    10    29    1
    31    11    30    1
    32    15    31    1
