
     RDKit          3D

 31 32  0  0  0  0  0  0  0  0999 V2000
    4.3450    0.1493   -1.1081 C   0  0  0  0  0  0  0  0  0  0  0  0
    3.2563    0.1383   -0.0973 C   0  0  0  0  0  0  0  0  0  0  0  0
    1.9505   -0.0529   -0.4631 C   0  0  0  0  0  0  0  0  0  0  0  0
    0.8762   -0.0822    0.3699 N   0  0  0  0  0  0  0  0  0  0  0  0
   -0.4245   -0.2887   -0.1369 C   0  0  1  0  0  0  0  0  0  0  0  0
   -1.2279   -1.3874    0.4663 C   0  0  0  0  0  0  0  0  0  0  0  0
   -2.6526   -0.8905    0.1834 C   0  0  2  0  0  0  0  0  0  0  0  0
   -3.4240   -1.8528   -0.4575 O   0  0  0  0  0  0  0  0  0  0  0  0
   -2.3804    0.2816   -0.7049 C   0  0  1  0  0  0  0  0  0  0  0  0
   -3.5385    1.2361   -0.8016 C   0  0  0  0  0  0  0  0  0  0  0  0
   -3.2153    2.3788   -1.5177 O   0  0  0  0  0  0  0  0  0  0  0  0
   -1.2697    0.8402   -0.0725 O   0  0  0  0  0  0  0  0  0  0  0  0
    1.1666    0.0956    1.6503 C   0  0  0  0  0  0  0  0  0  0  0  0
    0.2400    0.0867    2.5134 O   0  0  0  0  0  0  0  0  0  0  0  0
    2.4402    0.2924    2.0985 N   0  0  0  0  0  0  0  0  0  0  0  0
    3.4853    0.3159    1.2437 C   0  0  0  0  0  0  0  0  0  0  0  0
    4.6800    0.4966    1.6294 O   0  0  0  0  0  0  0  0  0  0  0  0
    4.7733    1.1893   -1.1237 H   0  0  0  0  0  0  0  0  0  0  0  0
    5.1108   -0.6181   -0.9036 H   0  0  0  0  0  0  0  0  0  0  0  0
    3.9061   -0.0510   -2.1003 H   0  0  0  0  0  0  0  0  0  0  0  0
    1.7639   -0.1954   -1.5367 H   0  0  0  0  0  0  0  0  0  0  0  0
   -0.3778   -0.5049   -1.2406 H   0  0  0  0  0  0  0  0  0  0  0  0
   -1.0584   -1.5888    1.5277 H   0  0  0  0  0  0  0  0  0  0  0  0
   -1.1293   -2.3353   -0.1342 H   0  0  0  0  0  0  0  0  0  0  0  0
   -3.1277   -0.5920    1.1394 H   0  0  0  0  0  0  0  0  0  0  0  0
   -3.6667   -2.5703    0.1637 H   0  0  0  0  0  0  0  0  0  0  0  0
   -2.0514   -0.1001   -1.6794 H   0  0  0  0  0  0  0  0  0  0  0  0
   -4.3338    0.6744   -1.3563 H   0  0  0  0  0  0  0  0  0  0  0  0
   -3.9757    1.4652    0.1902 H   0  0  0  0  0  0  0  0  0  0  0  0
   -2.8389    3.0343   -0.8485 H   0  0  0  0  0  0  0  0  0  0  0  0
    2.6987    0.4358    3.1071 H   0  0  0  0  0  0  0  0  0  0  0  0
  1  2  1  0
  2  3  2  0
  3  4  1  0
  4  5  1  0
  5  6  1  0
  6  7  1  0
  7  8  1  0
  7  9  1  0
  9 10  1  0
 10 11  1  0
  9 12  1  0
  4 13  1  0
 13 14  2  0
 13 15  1  0
 15 16  1  0
 16 17  2  0
 16  2  1  0
 12  5  1  0
  1 18  1  0
  1 19  1  0
  1 20  1  0
  3 21  1  0
  5 22  1  6
  6 23  1  0
  6 24  1  0
  7 25  1  1
  8 26  1  0
  9 27  1  6
 10 28  1  0
 10 29  1  0
 11 30  1  0
 15 31  1  0
M  END
$$$$
