
     RDKit          3D

 43 45  0  0  0  0  0  0  0  0999 V2000
   -2.0207    0.9418    1.0346 N   0  0  0  0  0  0  0  0  0  0  0  0
   -1.8608    0.1881   -0.1627 C   0  0  1  0  0  0  0  0  0  0  0  0
   -0.4312   -0.2635   -0.3904 C   0  0  0  0  0  0  0  0  0  0  0  0
    0.5019    0.8693   -0.4905 C   0  0  0  0  0  0  0  0  0  0  0  0
    0.0161    2.0309   -0.3881 O   0  0  0  0  0  0  0  0  0  0  0  0
    1.8876    0.6444   -0.6934 N   0  0  0  0  0  0  0  0  0  0  0  0
    2.3602   -0.7078   -0.8002 C   0  0  0  0  0  0  0  0  0  0  0  0
    3.8322   -0.8686   -0.5986 C   0  0  0  0  0  0  0  0  0  0  0  0
    4.5048    0.2725   -0.0636 N   0  0  0  0  0  0  0  0  0  0  0  0
    4.0491    1.5260   -0.1217 C   0  0  0  0  0  0  0  0  0  0  0  0
    4.9077    2.3633    0.4675 N   0  0  0  0  0  0  0  0  0  0  0  0
    5.9141    1.6202    0.8995 N   0  0  0  0  0  0  0  0  0  0  0  0
    5.6818    0.3455    0.5831 C   0  0  0  0  0  0  0  0  0  0  0  0
    6.6098   -0.7864    0.9151 C   0  0  0  0  0  0  0  0  0  0  0  0
    7.2721   -1.2374   -0.2123 F   0  0  0  0  0  0  0  0  0  0  0  0
    5.8830   -1.8329    1.4616 F   0  0  0  0  0  0  0  0  0  0  0  0
    7.5255   -0.3912    1.8428 F   0  0  0  0  0  0  0  0  0  0  0  0
    2.7499    1.8053   -0.7798 C   0  0  0  0  0  0  0  0  0  0  0  0
   -2.7046   -1.0618   -0.0889 C   0  0  0  0  0  0  0  0  0  0  0  0
   -4.1279   -0.7087    0.0728 C   0  0  0  0  0  0  0  0  0  0  0  0
   -5.0022   -0.7265   -1.0179 C   0  0  0  0  0  0  0  0  0  0  0  0
   -6.3021   -0.3836   -0.8454 C   0  0  0  0  0  0  0  0  0  0  0  0
   -7.1169   -0.4135   -1.9290 F   0  0  0  0  0  0  0  0  0  0  0  0
   -6.7810   -0.0171    0.3858 C   0  0  0  0  0  0  0  0  0  0  0  0
   -8.0918    0.3119    0.4766 F   0  0  0  0  0  0  0  0  0  0  0  0
   -5.9332    0.0032    1.4589 C   0  0  0  0  0  0  0  0  0  0  0  0
   -4.6070   -0.3421    1.3062 C   0  0  0  0  0  0  0  0  0  0  0  0
   -3.7922   -0.3234    2.4089 F   0  0  0  0  0  0  0  0  0  0  0  0
   -2.6670    1.7395    0.9670 H   0  0  0  0  0  0  0  0  0  0  0  0
   -1.1603    1.0986    1.5766 H   0  0  0  0  0  0  0  0  0  0  0  0
   -2.1414    0.8288   -1.0190 H   0  0  0  0  0  0  0  0  0  0  0  0
   -0.4332   -0.8614   -1.3270 H   0  0  0  0  0  0  0  0  0  0  0  0
   -0.1806   -0.9524    0.4424 H   0  0  0  0  0  0  0  0  0  0  0  0
    1.8448   -1.3538   -0.0397 H   0  0  0  0  0  0  0  0  0  0  0  0
    2.0752   -1.1282   -1.7876 H   0  0  0  0  0  0  0  0  0  0  0  0
    4.3205   -1.0916   -1.5934 H   0  0  0  0  0  0  0  0  0  0  0  0
    4.0643   -1.7557    0.0272 H   0  0  0  0  0  0  0  0  0  0  0  0
    2.2658    2.6591   -0.2641 H   0  0  0  0  0  0  0  0  0  0  0  0
    2.9183    2.1154   -1.8316 H   0  0  0  0  0  0  0  0  0  0  0  0
   -2.3563   -1.7535    0.7024 H   0  0  0  0  0  0  0  0  0  0  0  0
   -2.6337   -1.6611   -1.0378 H   0  0  0  0  0  0  0  0  0  0  0  0
   -4.5684   -1.0252   -1.9742 H   0  0  0  0  0  0  0  0  0  0  0  0
   -6.2724    0.2838    2.4280 H   0  0  0  0  0  0  0  0  0  0  0  0
  1  2  1  0
  2  3  1  0
  3  4  1  0
  4  5  2  0
  4  6  1  0
  6  7  1  0
  7  8  1  0
  8  9  1  0
  9 10  1  0
 10 11  2  0
 11 12  1  0
 12 13  2  0
 13 14  1  0
 14 15  1  0
 14 16  1  0
 14 17  1  0
 10 18  1  0
  2 19  1  0
 19 20  1  0
 20 21  2  0
 21 22  1  0
 22 23  1  0
 22 24  2  0
 24 25  1  0
 24 26  1  0
 26 27  2  0
 27 28  1  0
 18  6  1  0
 27 20  1  0
 13  9  1  0
  1 29  1  0
  1 30  1  0
  2 31  1  6
  3 32  1  0
  3 33  1  0
  7 34  1  0
  7 35  1  0
  8 36  1  0
  8 37  1  0
 18 38  1  0
 18 39  1  0
 19 40  1  0
 19 41  1  0
 21 42  1  0
 26 43  1  0
M  END
$$$$
