@<TRIPOS>MOLECULE
*****
 43 45 0 0 0
SMALL
GASTEIGER

@<TRIPOS>ATOM
      1 N          -2.0207    0.9418    1.0346 N.3     1  UNL1       -0.3265
      2 C          -1.8608    0.1881   -0.1627 C.3     1  UNL1        0.0172
      3 C          -0.4312   -0.2635   -0.3904 C.3     1  UNL1        0.0396
      4 C           0.5019    0.8693   -0.4905 C.2     1  UNL1        0.2175
      5 O           0.0161    2.0309   -0.3881 O.2     1  UNL1       -0.2755
      6 N           1.8876    0.6444   -0.6934 N.am    1  UNL1       -0.2924
      7 C           2.3602   -0.7078   -0.8002 C.3     1  UNL1        0.0332
      8 C           3.8322   -0.8686   -0.5986 C.3     1  UNL1        0.0422
      9 N           4.5048    0.2725   -0.0636 N.ar    1  UNL1       -0.3048
     10 C           4.0491    1.5260   -0.1217 C.ar    1  UNL1        0.1512
     11 N           4.9077    2.3633    0.4675 N.ar    1  UNL1       -0.1324
     12 N           5.9141    1.6202    0.8995 N.ar    1  UNL1       -0.1250
     13 C           5.6818    0.3455    0.5831 C.ar    1  UNL1        0.2376
     14 C           6.6098   -0.7864    0.9151 C.3     1  UNL1        0.4524
     15 F           7.2721   -1.2374   -0.2123 F       1  UNL1       -0.1632
     16 F           5.8830   -1.8329    1.4616 F       1  UNL1       -0.1632
     17 F           7.5255   -0.3912    1.8428 F       1  UNL1       -0.1632
     18 C           2.7499    1.8053   -0.7798 C.3     1  UNL1        0.0746
     19 C          -2.7046   -1.0618   -0.0889 C.3     1  UNL1       -0.0092
     20 C          -4.1279   -0.7087    0.0728 C.ar    1  UNL1       -0.0078
     21 C          -5.0022   -0.7265   -1.0179 C.ar    1  UNL1       -0.0176
     22 C          -6.3021   -0.3836   -0.8454 C.ar    1  UNL1        0.1588
     23 F          -7.1169   -0.4135   -1.9290 F       1  UNL1       -0.2025
     24 C          -6.7810   -0.0171    0.3858 C.ar    1  UNL1        0.1611
     25 F          -8.0918    0.3119    0.4766 F       1  UNL1       -0.2024
     26 C          -5.9332    0.0032    1.4589 C.ar    1  UNL1        0.0119
     27 C          -4.6070   -0.3421    1.3062 C.ar    1  UNL1        0.1295
     28 F          -3.7922   -0.3234    2.4089 F       1  UNL1       -0.2051
     29 H          -2.6670    1.7395    0.9670 H       1  UNL1        0.1185
     30 H          -1.1603    1.0986    1.5766 H       1  UNL1        0.1185
     31 H          -2.1414    0.8288   -1.0190 H       1  UNL1        0.0466
     32 H          -0.4332   -0.8614   -1.3270 H       1  UNL1        0.0374
     33 H          -0.1806   -0.9524    0.4424 H       1  UNL1        0.0374
     34 H           1.8448   -1.3538   -0.0397 H       1  UNL1        0.0482
     35 H           2.0752   -1.1282   -1.7876 H       1  UNL1        0.0482
     36 H           4.3205   -1.0916   -1.5934 H       1  UNL1        0.0508
     37 H           4.0643   -1.7557    0.0272 H       1  UNL1        0.0508
     38 H           2.2658    2.6591   -0.2641 H       1  UNL1        0.0545
     39 H           2.9183    2.1154   -1.8316 H       1  UNL1        0.0545
     40 H          -2.3563   -1.7535    0.7024 H       1  UNL1        0.0329
     41 H          -2.6337   -1.6611   -1.0378 H       1  UNL1        0.0329
     42 H          -4.5684   -1.0252   -1.9742 H       1  UNL1        0.0651
     43 H          -6.2724    0.2838    2.4280 H       1  UNL1        0.0676
@<TRIPOS>BOND
     1     1     2    1
     2     2     3    1
     3     3     4    1
     4     4     5    2
     5     4     6   am
     6     6     7    1
     7     7     8    1
     8     8     9    1
     9     9    10   ar
    10    10    11   ar
    11    11    12   ar
    12    12    13   ar
    13    13    14    1
    14    14    15    1
    15    14    16    1
    16    14    17    1
    17    10    18    1
    18     2    19    1
    19    19    20    1
    20    20    21   ar
    21    21    22   ar
    22    22    23    1
    23    22    24   ar
    24    24    25    1
    25    24    26   ar
    26    26    27   ar
    27    27    28    1
    28    18     6    1
    29    27    20   ar
    30    13     9   ar
    31     1    29    1
    32     1    30    1
    33     2    31    1
    34     3    32    1
    35     3    33    1
    36     7    34    1
    37     7    35    1
    38     8    36    1
    39     8    37    1
    40    18    38    1
    41    18    39    1
    42    19    40    1
    43    19    41    1
    44    21    42    1
    45    26    43    1
