@<TRIPOS>MOLECULE
*****
 55 59 0 0 0
SMALL
GASTEIGER

@<TRIPOS>ATOM
      1 N          -3.1258   -3.1384    1.2907 N.pl3   1  UNL1       -0.3565
      2 C          -4.1454   -2.1921    1.0466 C.ar    1  UNL1        0.0461
      3 C          -5.4650   -2.5961    1.0506 C.ar    1  UNL1       -0.0386
      4 C          -6.4145   -1.6286    0.8064 C.ar    1  UNL1       -0.0517
      5 C          -6.1220   -0.3181    0.5656 C.ar    1  UNL1       -0.0094
      6 C          -7.1708    0.5965    0.3258 C.ar    1  UNL1        0.0194
      7 C          -8.5149    0.6087    0.2462 C.ar    1  UNL1       -0.0469
      8 C          -9.2241    1.7043   -0.0098 C.ar    1  UNL1       -0.0541
      9 C          -8.5329    2.8919   -0.2034 C.ar    1  UNL1       -0.0237
     10 S          -6.8170    2.4063   -0.0095 S.2     1  UNL1       -0.0967
     11 C          -4.7861    0.0501    0.5695 C.ar    1  UNL1       -0.0305
     12 C          -3.8172   -0.8911    0.8098 C.ar    1  UNL1        0.0551
     13 N          -2.4509   -0.4724    0.8056 N.am    1  UNL1       -0.2799
     14 C          -1.7554   -0.5226   -0.4222 C.2     1  UNL1        0.2498
     15 O          -2.3574   -0.9280   -1.4483 O.2     1  UNL1       -0.2698
     16 C          -0.3813   -0.1161   -0.4937 C.ar    1  UNL1        0.0552
     17 C           0.2772    0.3261    0.6196 C.ar    1  UNL1       -0.0449
     18 C           1.6175    0.7144    0.5120 C.ar    1  UNL1       -0.0210
     19 C           2.2640    0.6518   -0.6989 C.ar    1  UNL1        0.1212
     20 N           3.6473    1.0471   -0.8317 N.pl3   1  UNL1       -0.3149
     21 C           4.2819    0.9730   -2.1297 C.3     1  UNL1        0.0172
     22 C           5.6639    0.4114   -2.1114 C.3     1  UNL1        0.0046
     23 C           6.0809    0.1465   -0.7012 C.3     1  UNL1        0.1334
     24 C           5.8657    1.4123    0.1011 C.3     1  UNL1        0.0046
     25 C           4.3575    1.5048    0.3321 C.3     1  UNL1        0.0172
     26 C           7.4832   -0.3416   -0.5592 C.3     1  UNL1        0.0548
     27 N           7.4493   -1.0487    0.7073 N.am    1  UNL1       -0.2773
     28 C           6.0726   -1.3116    0.9955 C.2     1  UNL1        0.4010
     29 O           5.6035   -1.8126    2.0707 O.2     1  UNL1       -0.2265
     30 O           5.3269   -0.9184   -0.1208 O.3     1  UNL1       -0.4421
     31 N           1.5678    0.2093   -1.7605 N.ar    1  UNL1       -0.2396
     32 C           0.2863   -0.1695   -1.6926 C.ar    1  UNL1        0.0418
     33 H          -2.7108   -3.6374    0.4692 H       1  UNL1        0.1424
     34 H          -2.8400   -3.2901    2.2787 H       1  UNL1        0.1424
     35 H          -5.7415   -3.6201    1.2360 H       1  UNL1        0.0637
     36 H          -7.4582   -1.9403    0.8080 H       1  UNL1        0.0624
     37 H          -9.0428   -0.3911    0.4121 H       1  UNL1        0.0629
     38 H         -10.3528    1.6849   -0.0709 H       1  UNL1        0.0623
     39 H          -8.9236    3.9275   -0.4294 H       1  UNL1        0.0693
     40 H          -4.5645    1.0937    0.3771 H       1  UNL1        0.0643
     41 H          -2.0636   -0.1598    1.7073 H       1  UNL1        0.1552
     42 H          -0.1561    0.4066    1.6106 H       1  UNL1        0.0627
     43 H           2.1505    1.0642    1.3743 H       1  UNL1        0.0652
     44 H           3.6631    0.2809   -2.7723 H       1  UNL1        0.0465
     45 H           4.2113    1.9576   -2.6350 H       1  UNL1        0.0465
     46 H           5.7697   -0.5198   -2.7418 H       1  UNL1        0.0319
     47 H           6.3564    1.1683   -2.5307 H       1  UNL1        0.0319
     48 H           6.2075    2.2524   -0.5396 H       1  UNL1        0.0319
     49 H           6.4276    1.3591    1.0436 H       1  UNL1        0.0319
     50 H           4.1383    2.5471    0.6129 H       1  UNL1        0.0465
     51 H           4.1719    0.8680    1.2354 H       1  UNL1        0.0465
     52 H           8.1818    0.5397   -0.4822 H       1  UNL1        0.0502
     53 H           7.7879   -1.0114   -1.3893 H       1  UNL1        0.0502
     54 H           8.2769   -1.3071    1.2822 H       1  UNL1        0.1521
     55 H          -0.2538   -0.5216   -2.5565 H       1  UNL1        0.0838
@<TRIPOS>BOND
     1     1     2    1
     2     2     3   ar
     3     3     4   ar
     4     4     5   ar
     5     5     6    1
     6     6     7   ar
     7     7     8   ar
     8     8     9   ar
     9     9    10   ar
    10     5    11   ar
    11    11    12   ar
    12    12    13    1
    13    13    14   am
    14    14    15    2
    15    14    16    1
    16    16    17   ar
    17    17    18   ar
    18    18    19   ar
    19    19    20    1
    20    20    21    1
    21    21    22    1
    22    22    23    1
    23    23    24    1
    24    24    25    1
    25    23    26    1
    26    26    27    1
    27    27    28   am
    28    28    29    2
    29    28    30    1
    30    19    31   ar
    31    31    32   ar
    32    12     2   ar
    33    32    16   ar
    34    10     6   ar
    35    25    20    1
    36    30    23    1
    37     1    33    1
    38     1    34    1
    39     3    35    1
    40     4    36    1
    41     7    37    1
    42     8    38    1
    43     9    39    1
    44    11    40    1
    45    13    41    1
    46    17    42    1
    47    18    43    1
    48    21    44    1
    49    21    45    1
    50    22    46    1
    51    22    47    1
    52    24    48    1
    53    24    49    1
    54    25    50    1
    55    25    51    1
    56    26    52    1
    57    26    53    1
    58    27    54    1
    59    32    55    1
