
     RDKit          3D

 38 41  0  0  0  0  0  0  0  0999 V2000
   -3.0057   -4.9539   -0.5671 Br  0  0  0  0  0  0  0  0  0  0  0  0
   -1.4070   -3.9442   -0.3959 C   0  0  0  0  0  0  0  0  0  0  0  0
   -0.1451   -4.5163   -0.3697 C   0  0  0  0  0  0  0  0  0  0  0  0
    0.6900   -3.4702   -0.2386 N   0  0  0  0  0  0  0  0  0  0  0  0
   -0.0252   -2.3158   -0.1873 C   0  0  0  0  0  0  0  0  0  0  0  0
   -1.3306   -2.5859   -0.2833 N   0  0  0  0  0  0  0  0  0  0  0  0
   -2.2845   -1.6357   -0.2618 C   0  0  0  0  0  0  0  0  0  0  0  0
   -1.8796   -0.3257   -0.1341 C   0  0  0  0  0  0  0  0  0  0  0  0
   -0.5339   -0.0139   -0.0325 C   0  0  0  0  0  0  0  0  0  0  0  0
    0.4325   -1.0210   -0.0578 C   0  0  0  0  0  0  0  0  0  0  0  0
    1.8085   -0.6702    0.0489 N   0  0  0  0  0  0  0  0  0  0  0  0
    2.2464    0.7099    0.1844 C   0  0  0  0  0  0  0  0  0  0  0  0
    3.7164    0.8245    0.2782 C   0  0  0  0  0  0  0  0  0  0  0  0
    4.2871    0.7737    1.5546 C   0  0  0  0  0  0  0  0  0  0  0  0
    5.6052    0.8722    1.6957 N   0  0  0  0  0  0  0  0  0  0  0  0
    6.4359    1.0201    0.6693 C   0  0  0  0  0  0  0  0  0  0  0  0
    5.9330    1.0732   -0.5639 N   0  0  0  0  0  0  0  0  0  0  0  0
    4.6070    0.9796   -0.7783 C   0  0  0  0  0  0  0  0  0  0  0  0
   -2.8749    0.7412   -0.1065 C   0  0  0  0  0  0  0  0  0  0  0  0
   -4.0854    0.7055   -0.7869 C   0  0  0  0  0  0  0  0  0  0  0  0
   -4.9683    1.7511   -0.7085 C   0  0  0  0  0  0  0  0  0  0  0  0
   -4.7012    2.8890    0.0476 C   0  0  0  0  0  0  0  0  0  0  0  0
   -3.5065    2.9765    0.7471 C   0  0  0  0  0  0  0  0  0  0  0  0
   -2.6619    1.8891    0.6253 C   0  0  0  0  0  0  0  0  0  0  0  0
    0.1577   -5.5318   -0.4335 H   0  0  0  0  0  0  0  0  0  0  0  0
   -3.3401   -1.9224   -0.3447 H   0  0  0  0  0  0  0  0  0  0  0  0
   -0.2309    1.0184    0.0671 H   0  0  0  0  0  0  0  0  0  0  0  0
    2.4880   -1.4867    0.0223 H   0  0  0  0  0  0  0  0  0  0  0  0
    1.8013    1.1082    1.1008 H   0  0  0  0  0  0  0  0  0  0  0  0
    1.9599    1.2862   -0.7341 H   0  0  0  0  0  0  0  0  0  0  0  0
    3.7042    0.6556    2.4606 H   0  0  0  0  0  0  0  0  0  0  0  0
    7.4953    1.0917    0.8807 H   0  0  0  0  0  0  0  0  0  0  0  0
    4.1435    1.0166   -1.7596 H   0  0  0  0  0  0  0  0  0  0  0  0
   -4.2991   -0.1877   -1.3827 H   0  0  0  0  0  0  0  0  0  0  0  0
   -5.9235    1.7232   -1.2453 H   0  0  0  0  0  0  0  0  0  0  0  0
   -5.3863    3.7300    0.1240 H   0  0  0  0  0  0  0  0  0  0  0  0
   -3.2111    3.8159    1.3583 H   0  0  0  0  0  0  0  0  0  0  0  0
   -1.7111    1.9298    1.1665 H   0  0  0  0  0  0  0  0  0  0  0  0
  1  2  1  0
  2  3  2  0
  3  4  1  0
  4  5  2  0
  5  6  1  0
  6  7  1  0
  7  8  2  0
  8  9  1  0
  9 10  2  0
 10 11  1  0
 11 12  1  0
 12 13  1  0
 13 14  2  0
 14 15  1  0
 15 16  2  0
 16 17  1  0
 17 18  2  0
  8 19  1  0
 19 20  2  0
 20 21  1  0
 21 22  2  0
 22 23  1  0
 23 24  2  0
  6  2  1  0
 18 13  1  0
 24 19  1  0
 10  5  1  0
  3 25  1  0
  7 26  1  0
  9 27  1  0
 11 28  1  0
 12 29  1  0
 12 30  1  0
 14 31  1  0
 16 32  1  0
 18 33  1  0
 20 34  1  0
 21 35  1  0
 22 36  1  0
 23 37  1  0
 24 38  1  0
M  END
$$$$
