@<TRIPOS>MOLECULE
*****
 49 51 0 0 0
SMALL
GASTEIGER

@<TRIPOS>ATOM
      1 C          -3.8543   -1.6466    0.7805 C.3     1  UNL1       -0.0395
      2 C          -5.1861   -1.4406    0.1432 C.3     1  UNL1       -0.0621
      3 C          -3.9856   -2.0239    2.2619 C.3     1  UNL1       -0.0457
      4 C          -2.6468   -2.6222    2.6172 C.3     1  UNL1       -0.0208
      5 C          -1.6134   -1.8850    1.8251 C.ar    1  UNL1       -0.0045
      6 C          -1.5578   -0.8870    0.9509 C.ar    1  UNL1       -0.0229
      7 C          -2.9570   -0.4357    0.7638 C.3     1  UNL1       -0.0235
      8 C          -0.2960   -0.5898    0.5076 C.ar    1  UNL1        0.0688
      9 C          -0.3286    0.5017   -0.4298 C.2     1  UNL1        0.2492
     10 O           0.8240    0.7341   -0.8550 O.2     1  UNL1       -0.2699
     11 N           0.0114    1.4927   -1.3539 N.am    1  UNL1       -0.2980
     12 C           1.3066    1.8238   -1.9126 C.3     1  UNL1        0.0121
     13 C           2.0106    2.8369   -1.0298 C.3     1  UNL1       -0.0493
     14 C          -1.1129    2.3317   -1.8310 C.3     1  UNL1        0.0121
     15 C          -1.3164    3.5360   -0.9781 C.3     1  UNL1       -0.0493
     16 C           0.8225   -1.2561    0.9209 C.ar    1  UNL1        0.0847
     17 N           2.1659   -1.0817    0.5693 N.am    1  UNL1       -0.2749
     18 C           2.9561   -1.6716   -0.4440 C.2     1  UNL1        0.2552
     19 O           2.6578   -2.5404   -1.3271 O.2     1  UNL1       -0.2693
     20 C           4.3262   -1.2472   -0.5252 C.ar    1  UNL1        0.0742
     21 C           5.0498   -0.3324    0.2191 C.ar    1  UNL1       -0.0425
     22 C           6.3708   -0.0708   -0.0395 C.ar    1  UNL1       -0.0540
     23 C           6.9264   -0.8061   -1.1179 C.ar    1  UNL1       -0.0236
     24 S           5.5064   -1.8390   -1.7026 S.2     1  UNL1       -0.0921
     25 S           0.0326   -2.4479    2.0715 S.2     1  UNL1       -0.0774
     26 H          -3.3024   -2.4830    0.2610 H       1  UNL1        0.0301
     27 H          -5.3015   -0.4460   -0.3020 H       1  UNL1        0.0233
     28 H          -5.9558   -1.5444    0.9473 H       1  UNL1        0.0233
     29 H          -5.3843   -2.2760   -0.5608 H       1  UNL1        0.0233
     30 H          -4.1149   -1.0852    2.8334 H       1  UNL1        0.0271
     31 H          -4.8289   -2.7175    2.4396 H       1  UNL1        0.0271
     32 H          -2.6459   -3.7144    2.4180 H       1  UNL1        0.0318
     33 H          -2.5178   -2.4387    3.7085 H       1  UNL1        0.0318
     34 H          -3.1587    0.0702   -0.1977 H       1  UNL1        0.0316
     35 H          -3.2641    0.2516    1.5753 H       1  UNL1        0.0316
     36 H           1.9281    0.9787   -2.2175 H       1  UNL1        0.0462
     37 H           1.1243    2.3866   -2.8811 H       1  UNL1        0.0462
     38 H           2.6467    2.2604   -0.3079 H       1  UNL1        0.0245
     39 H           1.2459    3.3897   -0.4404 H       1  UNL1        0.0245
     40 H           2.6090    3.5184   -1.6498 H       1  UNL1        0.0245
     41 H          -0.9689    2.5520   -2.9139 H       1  UNL1        0.0462
     42 H          -2.0101    1.6939   -1.7821 H       1  UNL1        0.0462
     43 H          -0.7289    4.3760   -1.3691 H       1  UNL1        0.0245
     44 H          -2.4135    3.7981   -1.0282 H       1  UNL1        0.0245
     45 H          -1.0882    3.2737    0.0632 H       1  UNL1        0.0245
     46 H           2.5667   -0.3782    1.2225 H       1  UNL1        0.1557
     47 H           4.5151    0.1628    1.0151 H       1  UNL1        0.0630
     48 H           6.9616    0.6372    0.5193 H       1  UNL1        0.0623
     49 H           7.9743   -0.6987   -1.4370 H       1  UNL1        0.0693
@<TRIPOS>BOND
     1     1     2    1
     2     1     3    1
     3     3     4    1
     4     4     5    1
     5     5     6   ar
     6     6     7    1
     7     6     8   ar
     8     8     9    1
     9     9    10    2
    10     9    11   am
    11    11    12    1
    12    12    13    1
    13    11    14    1
    14    14    15    1
    15     8    16   ar
    16    16    17    1
    17    17    18   am
    18    18    19    2
    19    18    20    1
    20    20    21   ar
    21    21    22   ar
    22    22    23   ar
    23    23    24   ar
    24    16    25   ar
    25     7     1    1
    26    24    20   ar
    27    25     5   ar
    28     1    26    1
    29     2    27    1
    30     2    28    1
    31     2    29    1
    32     3    30    1
    33     3    31    1
    34     4    32    1
    35     4    33    1
    36     7    34    1
    37     7    35    1
    38    12    36    1
    39    12    37    1
    40    13    38    1
    41    13    39    1
    42    13    40    1
    43    14    41    1
    44    14    42    1
    45    15    43    1
    46    15    44    1
    47    15    45    1
    48    17    46    1
    49    21    47    1
    50    22    48    1
    51    23    49    1
