
     RDKit          3D

 46 50  0  0  0  0  0  0  0  0999 V2000
   -1.7923   -2.0131   -2.6792 C   0  0  0  0  0  0  0  0  0  0  0  0
   -1.7538   -1.3564   -1.4483 O   0  0  0  0  0  0  0  0  0  0  0  0
   -2.3547   -1.7712   -0.2903 C   0  0  0  0  0  0  0  0  0  0  0  0
   -3.0790   -2.9460   -0.2927 C   0  0  0  0  0  0  0  0  0  0  0  0
   -3.7077   -3.4168    0.8419 C   0  0  0  0  0  0  0  0  0  0  0  0
   -3.6088   -2.6850    2.0259 C   0  0  0  0  0  0  0  0  0  0  0  0
   -2.8839   -1.5270    1.9917 C   0  0  0  0  0  0  0  0  0  0  0  0
   -2.2337   -1.0207    0.8582 C   0  0  0  0  0  0  0  0  0  0  0  0
   -1.4982    0.1977    0.9148 N   0  0  0  0  0  0  0  0  0  0  0  0
   -2.0017    1.2878    0.3055 C   0  0  0  0  0  0  0  0  0  0  0  0
   -3.1176    1.1877   -0.2990 O   0  0  0  0  0  0  0  0  0  0  0  0
   -1.3507    2.5068    0.3141 C   0  0  0  0  0  0  0  0  0  0  0  0
   -1.8918    3.6040   -0.3191 C   0  0  0  0  0  0  0  0  0  0  0  0
   -3.4264    3.3775   -1.1235 Cl  0  0  0  0  0  0  0  0  0  0  0  0
   -1.1793    4.7829   -0.2643 C   0  0  0  0  0  0  0  0  0  0  0  0
    0.0262    4.8934    0.3879 C   0  0  0  0  0  0  0  0  0  0  0  0
    0.5873    3.7877    1.0350 C   0  0  0  0  0  0  0  0  0  0  0  0
   -0.1361    2.6003    0.9766 C   0  0  0  0  0  0  0  0  0  0  0  0
    0.3453    1.4915    1.5787 N   0  0  0  0  0  0  0  0  0  0  0  0
   -0.3188    0.3193    1.5488 C   0  0  0  0  0  0  0  0  0  0  0  0
    0.2714   -0.8600    2.2335 C   0  0  0  0  0  0  0  0  0  0  0  0
    1.3221   -1.7206    1.0106 S   0  0  0  0  0  0  0  0  0  0  0  0
    2.7050   -0.6921    0.5741 C   0  0  0  0  0  0  0  0  0  0  0  0
    3.6715   -1.0730   -0.3276 C   0  0  0  0  0  0  0  0  0  0  0  0
    3.8234   -2.2010   -1.0486 N   0  0  0  0  0  0  0  0  0  0  0  0
    4.9405   -2.1058   -1.8002 C   0  0  0  0  0  0  0  0  0  0  0  0
    5.5191   -0.9095   -1.5674 N   0  0  0  0  0  0  0  0  0  0  0  0
    4.7421   -0.2818   -0.6683 C   0  0  0  0  0  0  0  0  0  0  0  0
    4.8474    0.9388   -0.0820 N   0  0  0  0  0  0  0  0  0  0  0  0
    3.8878    1.2974    0.8027 C   0  0  0  0  0  0  0  0  0  0  0  0
    2.8527    0.5350    1.1335 N   0  0  0  0  0  0  0  0  0  0  0  0
   -1.9301   -3.0950   -2.6487 H   0  0  0  0  0  0  0  0  0  0  0  0
   -0.8208   -1.8241   -3.2060 H   0  0  0  0  0  0  0  0  0  0  0  0
   -2.6219   -1.6130   -3.3341 H   0  0  0  0  0  0  0  0  0  0  0  0
   -3.2186   -3.5814   -1.1409 H   0  0  0  0  0  0  0  0  0  0  0  0
   -4.2878   -4.3272    0.9035 H   0  0  0  0  0  0  0  0  0  0  0  0
   -4.0677   -2.9770    2.9620 H   0  0  0  0  0  0  0  0  0  0  0  0
   -2.7797   -0.9201    2.8992 H   0  0  0  0  0  0  0  0  0  0  0  0
   -1.6619    5.6124   -0.7844 H   0  0  0  0  0  0  0  0  0  0  0  0
    0.5471    5.8401    0.4027 H   0  0  0  0  0  0  0  0  0  0  0  0
    1.5332    3.8448    1.5556 H   0  0  0  0  0  0  0  0  0  0  0  0
    0.8726   -0.5499    3.1205 H   0  0  0  0  0  0  0  0  0  0  0  0
   -0.4841   -1.6142    2.5400 H   0  0  0  0  0  0  0  0  0  0  0  0
    5.3623   -2.8255   -2.4939 H   0  0  0  0  0  0  0  0  0  0  0  0
    6.3980   -0.4558   -1.9535 H   0  0  0  0  0  0  0  0  0  0  0  0
    3.9520    2.2584    1.2778 H   0  0  0  0  0  0  0  0  0  0  0  0
  1  2  1  0
  2  3  1  0
  3  4  2  0
  4  5  1  0
  5  6  2  0
  6  7  1  0
  7  8  2  0
  8  9  1  0
  9 10  1  0
 10 11  2  0
 10 12  1  0
 12 13  2  0
 13 14  1  0
 13 15  1  0
 15 16  2  0
 16 17  1  0
 17 18  2  0
 18 19  1  0
 19 20  2  0
 20 21  1  0
 21 22  1  0
 22 23  1  0
 23 24  2  0
 24 25  1  0
 25 26  2  0
 26 27  1  0
 27 28  1  0
 28 29  2  0
 29 30  1  0
 30 31  2  0
  8  3  1  0
 20  9  1  0
 31 23  1  0
 18 12  1  0
 28 24  1  0
  1 32  1  0
  1 33  1  0
  1 34  1  0
  4 35  1  0
  5 36  1  0
  6 37  1  0
  7 38  1  0
 15 39  1  0
 16 40  1  0
 17 41  1  0
 21 42  1  0
 21 43  1  0
 26 44  1  0
 27 45  1  0
 30 46  1  0
M  END
$$$$
