@<TRIPOS>MOLECULE
*****
 55 59 0 0 0
SMALL
GASTEIGER

@<TRIPOS>ATOM
      1 C          -2.8465    0.9230    4.5832 C.3     1  UNL1       -0.0397
      2 C          -3.1661    0.4955    3.1793 C.ar    1  UNL1       -0.0496
      3 C          -4.1836   -0.3895    2.9024 C.ar    1  UNL1       -0.0567
      4 C          -4.4874   -0.7889    1.6093 C.ar    1  UNL1       -0.0336
      5 C          -3.7546   -0.2918    0.5542 C.ar    1  UNL1        0.0982
      6 N          -4.0513   -0.6735   -0.7741 N.ar    1  UNL1       -0.1496
      7 N          -3.5106   -1.6014   -1.5049 N.ar    1  UNL1       -0.1556
      8 C          -4.0938   -1.6384   -2.7325 C.ar    1  UNL1        0.0697
      9 C          -5.0551   -0.6507   -2.7192 C.ar    1  UNL1        0.0697
     10 N          -4.9925   -0.0921   -1.5098 N.ar    1  UNL1       -0.1556
     11 C          -2.7198    0.6054    0.8163 C.ar    1  UNL1        0.0642
     12 C          -1.9924    1.1022   -0.3233 C.2     1  UNL1        0.2491
     13 O          -2.4203    2.1594   -0.8491 O.2     1  UNL1       -0.2699
     14 N          -0.8524    0.4688   -0.8615 N.am    1  UNL1       -0.2897
     15 C          -0.2512    1.1161   -2.0306 C.3     1  UNL1        0.0388
     16 C           0.3438    0.0666   -2.9419 C.3     1  UNL1        0.0635
     17 O           1.1015   -0.8496   -2.2366 O.3     1  UNL1       -0.3764
     18 C           0.2059   -1.6189   -1.4638 C.3     1  UNL1        0.0666
     19 C          -0.3234   -0.7489   -0.3255 C.3     1  UNL1        0.0537
     20 C           0.6189   -0.6664    0.8065 C.3     1  UNL1       -0.0040
     21 C           1.8708    0.0871    0.5855 C.ar    1  UNL1       -0.0083
     22 C           3.0760   -0.5711    0.3050 C.ar    1  UNL1       -0.0286
     23 C           4.2618    0.0925    0.0945 C.ar    1  UNL1        0.0866
     24 N           5.4874   -0.5659   -0.1909 N.ar    1  UNL1       -0.1503
     25 N           5.6440   -1.8265   -0.5937 N.ar    1  UNL1       -0.1556
     26 C           6.9472   -2.0917   -0.7628 C.ar    1  UNL1        0.0697
     27 C           7.6357   -0.9468   -0.4522 C.ar    1  UNL1        0.0697
     28 N           6.6969   -0.0369   -0.1068 N.ar    1  UNL1       -0.1556
     29 C           4.2350    1.4782    0.1692 C.ar    1  UNL1       -0.0318
     30 C           3.0519    2.1311    0.4448 C.ar    1  UNL1       -0.0241
     31 C           1.8545    1.4585    0.6574 C.ar    1  UNL1        0.1267
     32 F           0.7138    2.1494    0.9321 F       1  UNL1       -0.2052
     33 C          -2.4354    0.9905    2.1232 C.ar    1  UNL1       -0.0446
     34 H          -1.9267    0.4208    4.9283 H       1  UNL1        0.0278
     35 H          -2.7588    2.0304    4.5770 H       1  UNL1        0.0278
     36 H          -3.6715    0.6613    5.2706 H       1  UNL1        0.0278
     37 H          -4.7468   -0.7693    3.7271 H       1  UNL1        0.0621
     38 H          -5.2964   -1.4864    1.4466 H       1  UNL1        0.0640
     39 H          -3.8279   -2.3201   -3.5300 H       1  UNL1        0.0864
     40 H          -5.7227   -0.3931   -3.5413 H       1  UNL1        0.0864
     41 H           0.4987    1.8681   -1.7989 H       1  UNL1        0.0487
     42 H          -1.0698    1.6270   -2.6174 H       1  UNL1        0.0487
     43 H           0.9130    0.6034   -3.7306 H       1  UNL1        0.0575
     44 H          -0.5247   -0.4426   -3.4242 H       1  UNL1        0.0575
     45 H           0.6886   -2.5194   -1.0507 H       1  UNL1        0.0578
     46 H          -0.6761   -1.9015   -2.0730 H       1  UNL1        0.0578
     47 H          -1.2256   -1.3239    0.0553 H       1  UNL1        0.0526
     48 H           0.9355   -1.6919    1.1738 H       1  UNL1        0.0333
     49 H           0.0807   -0.2230    1.6967 H       1  UNL1        0.0333
     50 H           3.0690   -1.6428    0.2515 H       1  UNL1        0.0643
     51 H           7.3972   -3.0169   -1.0806 H       1  UNL1        0.0864
     52 H           8.7210   -0.8011   -0.4783 H       1  UNL1        0.0864
     53 H           5.1631    2.0104    0.0057 H       1  UNL1        0.0640
     54 H           2.9967    3.2030    0.5097 H       1  UNL1        0.0647
     55 H          -1.6250    1.6902    2.2988 H       1  UNL1        0.0628
@<TRIPOS>BOND
     1     1     2    1
     2     2     3   ar
     3     3     4   ar
     4     4     5   ar
     5     5     6    1
     6     6     7   ar
     7     7     8   ar
     8     8     9   ar
     9     9    10   ar
    10     5    11   ar
    11    11    12    1
    12    12    13    2
    13    12    14   am
    14    14    15    1
    15    15    16    1
    16    16    17    1
    17    17    18    1
    18    18    19    1
    19    19    20    1
    20    20    21    1
    21    21    22   ar
    22    22    23   ar
    23    23    24    1
    24    24    25   ar
    25    25    26   ar
    26    26    27   ar
    27    27    28   ar
    28    23    29   ar
    29    29    30   ar
    30    30    31   ar
    31    31    32    1
    32    11    33   ar
    33    33     2   ar
    34    10     6   ar
    35    19    14    1
    36    31    21   ar
    37    28    24   ar
    38     1    34    1
    39     1    35    1
    40     1    36    1
    41     3    37    1
    42     4    38    1
    43     8    39    1
    44     9    40    1
    45    15    41    1
    46    15    42    1
    47    16    43    1
    48    16    44    1
    49    18    45    1
    50    18    46    1
    51    19    47    1
    52    20    48    1
    53    20    49    1
    54    22    50    1
    55    26    51    1
    56    27    52    1
    57    29    53    1
    58    30    54    1
    59    33    55    1
