@<TRIPOS>MOLECULE
*****
 39 40 0 0 0
SMALL
GASTEIGER

@<TRIPOS>ATOM
      1 C           6.3822    0.1173   -0.6308 C.3     1  UNL1        0.0788
      2 O           5.5044   -0.9848   -0.5912 O.3     1  UNL1       -0.4951
      3 C           4.2011   -0.8430   -0.1649 C.ar    1  UNL1        0.1202
      4 C           3.7575    0.3861    0.2242 C.ar    1  UNL1       -0.0181
      5 C           2.4431    0.5525    0.6590 C.ar    1  UNL1       -0.0319
      6 C           1.5488   -0.4992    0.7141 C.ar    1  UNL1        0.1057
      7 S          -0.0864   -0.2640    1.2610 S.O2    1  UNL1        0.0616
      8 O          -0.0691    0.8852    2.2574 O.2     1  UNL1       -0.1528
      9 O          -0.5211   -1.4719    2.0057 O.2     1  UNL1       -0.1528
     10 N          -1.1140    0.1205    0.0029 N.3     1  UNL1       -0.1615
     11 C          -0.8957    1.2791   -0.7297 C.3     1  UNL1        0.0407
     12 C          -2.1046    2.1807   -0.9118 C.3     1  UNL1        0.0802
     13 S          -3.2701    1.2200   -1.8865 S.O2    1  UNL1       -0.0278
     14 O          -3.0991    1.5423   -3.3338 O.2     1  UNL1       -0.1742
     15 O          -4.6747    1.5159   -1.4915 O.2     1  UNL1       -0.1742
     16 C          -2.8305   -0.4823   -1.6001 C.3     1  UNL1        0.0915
     17 C          -2.2468   -0.6616   -0.2058 C.3     1  UNL1        0.1289
     18 C          -3.3160   -0.4955    0.8130 C.2     1  UNL1        0.2559
     19 O          -3.1508    0.3051    1.7667 O.2     1  UNL1       -0.2719
     20 N          -4.5439   -1.2058    0.7713 N.am    1  UNL1       -0.1961
     21 O          -5.5037   -1.0289    1.7233 O.3     1  UNL1       -0.2951
     22 C           2.0226   -1.7324    0.3150 C.ar    1  UNL1       -0.0319
     23 C           3.3293   -1.9095   -0.1196 C.ar    1  UNL1       -0.0181
     24 H           6.3264    0.6032    0.3682 H       1  UNL1        0.0660
     25 H           6.0409    0.7868   -1.4383 H       1  UNL1        0.0660
     26 H           7.4208   -0.1613   -0.8278 H       1  UNL1        0.0660
     27 H           4.4073    1.2748    0.2098 H       1  UNL1        0.0655
     28 H           2.0702    1.5232    0.9731 H       1  UNL1        0.0638
     29 H          -0.5711    1.0077   -1.7755 H       1  UNL1        0.0460
     30 H          -0.0851    1.8811   -0.2874 H       1  UNL1        0.0460
     31 H          -1.7590    3.0706   -1.4931 H       1  UNL1        0.0513
     32 H          -2.5404    2.5175    0.0320 H       1  UNL1        0.0513
     33 H          -2.0285   -0.7548   -2.3192 H       1  UNL1        0.0521
     34 H          -3.7060   -1.1279   -1.7631 H       1  UNL1        0.0521
     35 H          -1.9503   -1.7482   -0.1542 H       1  UNL1        0.0593
     36 H          -4.6721   -1.8706   -0.0273 H       1  UNL1        0.1822
     37 H          -5.7725   -0.0793    1.7175 H       1  UNL1        0.2414
     38 H           1.3687   -2.5876    0.3376 H       1  UNL1        0.0638
     39 H           3.6882   -2.8606   -0.4255 H       1  UNL1        0.0655
@<TRIPOS>BOND
     1     1     2    1
     2     2     3    1
     3     3     4   ar
     4     4     5   ar
     5     5     6   ar
     6     6     7    1
     7     7     8    2
     8     7     9    2
     9     7    10    1
    10    10    11    1
    11    11    12    1
    12    12    13    1
    13    13    14    2
    14    13    15    2
    15    13    16    1
    16    16    17    1
    17    17    18    1
    18    18    19    2
    19    18    20   am
    20    20    21    1
    21     6    22   ar
    22    22    23   ar
    23    23     3   ar
    24    17    10    1
    25     1    24    1
    26     1    25    1
    27     1    26    1
    28     4    27    1
    29     5    28    1
    30    11    29    1
    31    11    30    1
    32    12    31    1
    33    12    32    1
    34    16    33    1
    35    16    34    1
    36    17    35    1
    37    20    36    1
    38    21    37    1
    39    22    38    1
    40    23    39    1
