@<TRIPOS>MOLECULE
*****
 42 44 0 0 0
SMALL
GASTEIGER

@<TRIPOS>ATOM
      1 C           1.0729   -1.3195    3.0537 C.3     1  UNK1       -0.0217
      2 C           1.2109   -0.6581    1.7298 C.ar    1  UNK1        0.0471
      3 N           2.4741   -0.4049    1.2750 N.ar    1  UNK1       -0.2431
      4 C           2.6731    0.1920    0.0834 C.ar    1  UNK1        0.1675
      5 C           4.0585    0.4059   -0.2871 C.2     1  UNK1        0.2665
      6 O           4.9473    0.0225    0.5218 O.2     1  UNK1       -0.2684
      7 N           4.6147    0.9935   -1.4447 N.am    2  GLY2       -0.2995
      8 CA          6.0434    1.0248   -1.4462 C.3     2  GLY2        0.1091
      9 C           6.6663   -0.3411   -1.3610 C.2     2  GLY2        0.3221
     10 O           8.0540   -0.3554   -1.3598 O.3     2  GLY2       -0.4795
     11 OXT         6.2020   -1.5120   -1.2883 O.2     2  GLY2       -0.2492
     12 C           1.5375    0.5115   -0.6079 C.ar    1  UNK1        0.1549
     13 O           1.6957    1.1228   -1.8304 O.3     1  UNK1       -0.5039
     14 C           0.2537    0.2698   -0.1772 C.ar    1  UNK1        0.0278
     15 C          -0.8178    0.6378   -0.9631 C.ar    1  UNK1       -0.0469
     16 C          -2.0648    0.3517   -0.4416 C.ar    1  UNK1       -0.0186
     17 C          -2.2907   -0.2584    0.7754 C.ar    1  UNK1        0.1291
     18 O          -3.5224   -0.5442    1.2972 O.3     1  UNK1       -0.4560
     19 C          -4.6857   -0.2447    0.6445 C.ar    1  UNK1        0.1284
     20 C          -5.3256   -1.0938   -0.2336 C.ar    1  UNK1       -0.0193
     21 C          -6.5021   -0.7672   -0.8816 C.ar    1  UNK1       -0.0583
     22 C          -7.0326    0.4897   -0.6056 C.ar    1  UNK1       -0.0615
     23 C          -6.4436    1.3924    0.2648 C.ar    1  UNK1       -0.0583
     24 C          -5.2841    0.9837    0.8588 C.ar    1  UNK1       -0.0193
     25 C          -1.1886   -0.6214    1.5527 C.ar    1  UNK1       -0.0098
     26 C           0.0602   -0.3409    1.0424 C.ar    1  UNK1        0.0101
     27 H           0.5115   -2.2702    2.9904 H       1  UNK1        0.0293
     28 H           0.5903   -0.5895    3.7395 H       1  UNK1        0.0293
     29 H           2.0641   -1.5517    3.4944 H       1  UNK1        0.0293
     30 H           3.9345    1.3331   -2.1566 H       2  GLY2        0.1496
     31 HA1         6.3607    1.4229   -2.4380 H       2  GLY2        0.0577
     32 HA2         6.4711    1.6943   -0.6866 H       2  GLY2        0.0577
     33 H           8.6089   -1.0555   -0.8796 H       2  GLY2        0.2951
     34 H           1.4617    0.6860   -2.7098 H       1  UNK1        0.2923
     35 H          -0.6761    1.1138   -1.9142 H       1  UNK1        0.0626
     36 H          -2.9395    0.6277   -1.0343 H       1  UNK1        0.0654
     37 H          -4.8421   -2.0599   -0.3933 H       1  UNK1        0.0654
     38 H          -6.9865   -1.4512   -1.5674 H       1  UNK1        0.0619
     39 H          -7.9681    0.7605   -1.1151 H       1  UNK1        0.0618
     40 H          -6.8977    2.3593    0.4451 H       1  UNK1        0.0619
     41 H          -4.8167    1.6911    1.5448 H       1  UNK1        0.0654
     42 H          -1.2825   -1.0991    2.5093 H       1  UNK1        0.0661
@<TRIPOS>BOND
     1     1     2    1
     2     2     3   ar
     3     3     4   ar
     4     4     5    1
     5     5     6    2
     6     5     7   am
     7     7     8    1
     8     8     9    1
     9     9    10    1
    10     9    11    2
    11     4    12   ar
    12    12    13    1
    13    12    14   ar
    14    14    15   ar
    15    15    16   ar
    16    16    17   ar
    17    17    18    1
    18    18    19    1
    19    19    20   ar
    20    20    21   ar
    21    21    22   ar
    22    22    23   ar
    23    23    24   ar
    24    17    25   ar
    25    25    26   ar
    26    26     2   ar
    27    26    14   ar
    28    24    19   ar
    29     1    27    1
    30     1    28    1
    31     1    29    1
    32     7    30    1
    33     8    31    1
    34     8    32    1
    35    10    33    1
    36    13    34    1
    37    15    35    1
    38    16    36    1
    39    20    37    1
    40    21    38    1
    41    22    39    1
    42    23    40    1
    43    24    41    1
    44    25    42    1
