
     RDKit          3D

 39 39  0  0  0  0  0  0  0  0999 V2000
   -0.8573   -2.9508   -1.4377 C   0  0  0  0  0  0  0  0  0  0  0  0
    0.3509   -2.0937   -1.1387 C   0  0  0  0  0  0  0  0  0  0  0  0
   -0.0879   -0.6568   -1.2591 C   0  0  2  0  0  0  0  0  0  0  0  0
    1.0223    0.3402   -0.9830 C   0  0  1  0  0  0  0  0  0  0  0  0
    0.4906    1.7389   -1.1611 C   0  0  0  0  0  0  0  0  0  0  0  0
    1.6965    0.1855    0.3130 C   0  0  0  0  0  0  0  0  0  0  0  0
    2.7870    1.0753    0.6425 N   0  0  0  0  0  0  0  0  0  0  0  0
    3.3835    0.4857    1.8889 C   0  0  0  0  0  0  0  0  0  0  0  0
    2.3272    2.3939    1.1188 C   0  0  0  0  0  0  0  0  0  0  0  0
   -1.2449   -0.4667   -0.3401 C   0  0  0  0  0  0  0  0  0  0  0  0
   -2.3431    0.2529   -0.8143 C   0  0  0  0  0  0  0  0  0  0  0  0
   -3.4029    0.3826    0.0981 C   0  0  0  0  0  0  0  0  0  0  0  0
   -4.5085    1.1012   -0.3586 O   0  0  0  0  0  0  0  0  0  0  0  0
   -3.4446   -0.1351    1.4021 C   0  0  0  0  0  0  0  0  0  0  0  0
   -2.2786   -0.8055    1.6819 C   0  0  0  0  0  0  0  0  0  0  0  0
   -1.1776   -1.0095    0.9017 C   0  0  0  0  0  0  0  0  0  0  0  0
   -1.6818   -2.3533   -1.8775 H   0  0  0  0  0  0  0  0  0  0  0  0
   -0.5810   -3.7420   -2.1507 H   0  0  0  0  0  0  0  0  0  0  0  0
   -1.2008   -3.4935   -0.5151 H   0  0  0  0  0  0  0  0  0  0  0  0
    0.7173   -2.3739   -0.1453 H   0  0  0  0  0  0  0  0  0  0  0  0
    1.1075   -2.3303   -1.9439 H   0  0  0  0  0  0  0  0  0  0  0  0
   -0.4396   -0.4821   -2.2890 H   0  0  0  0  0  0  0  0  0  0  0  0
    1.8017    0.2090   -1.7913 H   0  0  0  0  0  0  0  0  0  0  0  0
    1.2774    2.3888   -1.6480 H   0  0  0  0  0  0  0  0  0  0  0  0
   -0.3599    1.7280   -1.8982 H   0  0  0  0  0  0  0  0  0  0  0  0
    0.1293    2.2237   -0.2646 H   0  0  0  0  0  0  0  0  0  0  0  0
    0.9388    0.3107    1.1603 H   0  0  0  0  0  0  0  0  0  0  0  0
    2.0591   -0.8531    0.4632 H   0  0  0  0  0  0  0  0  0  0  0  0
    2.6724    0.7249    2.6989 H   0  0  0  0  0  0  0  0  0  0  0  0
    4.4087    0.8492    2.0381 H   0  0  0  0  0  0  0  0  0  0  0  0
    3.3502   -0.6070    1.7111 H   0  0  0  0  0  0  0  0  0  0  0  0
    2.2839    3.0920    0.2852 H   0  0  0  0  0  0  0  0  0  0  0  0
    1.4085    2.2881    1.6907 H   0  0  0  0  0  0  0  0  0  0  0  0
    3.1353    2.7490    1.8445 H   0  0  0  0  0  0  0  0  0  0  0  0
   -2.4502    0.6986   -1.7797 H   0  0  0  0  0  0  0  0  0  0  0  0
   -4.3547    1.9697   -0.8868 H   0  0  0  0  0  0  0  0  0  0  0  0
   -4.2594   -0.0286    2.0740 H   0  0  0  0  0  0  0  0  0  0  0  0
   -2.2837   -1.2304    2.7025 H   0  0  0  0  0  0  0  0  0  0  0  0
   -0.3914   -1.5757    1.3314 H   0  0  0  0  0  0  0  0  0  0  0  0
  1  2  1  0
  2  3  1  0
  3  4  1  0
  4  5  1  0
  4  6  1  0
  6  7  1  0
  7  8  1  0
  7  9  1  0
  3 10  1  0
 10 11  2  0
 11 12  1  0
 12 13  1  0
 12 14  2  0
 14 15  1  0
 15 16  2  0
 16 10  1  0
  1 17  1  0
  1 18  1  0
  1 19  1  0
  2 20  1  0
  2 21  1  0
  3 22  1  6
  4 23  1  6
  5 24  1  0
  5 25  1  0
  5 26  1  0
  6 27  1  0
  6 28  1  0
  8 29  1  0
  8 30  1  0
  8 31  1  0
  9 32  1  0
  9 33  1  0
  9 34  1  0
 11 35  1  0
 13 36  1  0
 14 37  1  0
 15 38  1  0
 16 39  1  0
M  END
$$$$
