
     RDKit          3D

 44 46  0  0  0  0  0  0  0  0999 V2000
    8.3040   -1.2762    0.2701 C   0  0  0  0  0  0  0  0  0  0  0  0
    6.8339   -1.1734    0.6417 C   0  0  0  0  0  0  0  0  0  0  0  0
    6.5300   -1.7402    1.6946 O   0  0  0  0  0  0  0  0  0  0  0  0
    5.9721   -0.4680   -0.2110 N   0  0  0  0  0  0  0  0  0  0  0  0
    4.5895   -0.3131    0.0420 C   0  0  0  0  0  0  0  0  0  0  0  0
    3.8620    0.4191   -0.9021 C   0  0  0  0  0  0  0  0  0  0  0  0
    2.5180    0.6250   -0.7478 C   0  0  0  0  0  0  0  0  0  0  0  0
    1.8833    0.1023    0.3513 C   0  0  0  0  0  0  0  0  0  0  0  0
    0.4646    0.3084    0.5332 C   0  0  0  0  0  0  0  0  0  0  0  0
   -0.0786   -0.1959    1.5719 O   0  0  0  0  0  0  0  0  0  0  0  0
   -0.3119    1.0424   -0.3994 N   0  0  0  0  0  0  0  0  0  0  0  0
   -1.7070    1.1560   -0.0719 C   0  0  0  0  0  0  0  0  0  0  0  0
   -2.6402    0.2375   -0.4915 C   0  0  0  0  0  0  0  0  0  0  0  0
   -3.9838    0.3455   -0.1767 C   0  0  0  0  0  0  0  0  0  0  0  0
   -4.9855   -0.6150   -0.6106 C   0  0  0  0  0  0  0  0  0  0  0  0
   -6.2717   -0.1925   -0.8470 C   0  0  0  0  0  0  0  0  0  0  0  0
   -7.2130   -1.1033   -1.2562 C   0  0  0  0  0  0  0  0  0  0  0  0
   -6.9100   -2.4126   -1.4347 N   0  0  0  0  0  0  0  0  0  0  0  0
   -5.6567   -2.8430   -1.2079 C   0  0  0  0  0  0  0  0  0  0  0  0
   -4.6886   -1.9547   -0.7964 C   0  0  0  0  0  0  0  0  0  0  0  0
   -4.3712    1.4428    0.5989 C   0  0  0  0  0  0  0  0  0  0  0  0
   -3.4638    2.3785    1.0342 C   0  0  0  0  0  0  0  0  0  0  0  0
   -2.1436    2.2191    0.6907 C   0  0  0  0  0  0  0  0  0  0  0  0
   -1.2006    3.1805    1.1361 N   0  0  0  0  0  0  0  0  0  0  0  0
    2.6008   -0.6258    1.2922 C   0  0  0  0  0  0  0  0  0  0  0  0
    3.9765   -0.8421    1.1434 C   0  0  0  0  0  0  0  0  0  0  0  0
    8.5419   -0.5226   -0.5136 H   0  0  0  0  0  0  0  0  0  0  0  0
    8.4962   -2.3156   -0.0519 H   0  0  0  0  0  0  0  0  0  0  0  0
    8.8498   -0.9998    1.2023 H   0  0  0  0  0  0  0  0  0  0  0  0
    6.3982   -0.0291   -1.0966 H   0  0  0  0  0  0  0  0  0  0  0  0
    4.3438    0.8456   -1.7855 H   0  0  0  0  0  0  0  0  0  0  0  0
    1.9849    1.2080   -1.5161 H   0  0  0  0  0  0  0  0  0  0  0  0
    0.0711    1.4733   -1.2573 H   0  0  0  0  0  0  0  0  0  0  0  0
   -2.3282   -0.6038   -1.0890 H   0  0  0  0  0  0  0  0  0  0  0  0
   -6.5208    0.8448   -0.7078 H   0  0  0  0  0  0  0  0  0  0  0  0
   -8.2529   -0.8190   -1.4585 H   0  0  0  0  0  0  0  0  0  0  0  0
   -5.4718   -3.8997   -1.3667 H   0  0  0  0  0  0  0  0  0  0  0  0
   -3.6914   -2.3203   -0.6205 H   0  0  0  0  0  0  0  0  0  0  0  0
   -5.4207    1.5629    0.8678 H   0  0  0  0  0  0  0  0  0  0  0  0
   -3.8014    3.2064    1.6277 H   0  0  0  0  0  0  0  0  0  0  0  0
   -1.4528    3.9230    1.8242 H   0  0  0  0  0  0  0  0  0  0  0  0
   -0.2158    3.1834    0.7927 H   0  0  0  0  0  0  0  0  0  0  0  0
    2.0836   -1.0283    2.1492 H   0  0  0  0  0  0  0  0  0  0  0  0
    4.4777   -1.4106    1.8997 H   0  0  0  0  0  0  0  0  0  0  0  0
  1  2  1  0
  2  3  2  0
  2  4  1  0
  4  5  1  0
  5  6  2  0
  6  7  1  0
  7  8  2  0
  8  9  1  0
  9 10  2  0
  9 11  1  0
 11 12  1  0
 12 13  2  0
 13 14  1  0
 14 15  1  0
 15 16  2  0
 16 17  1  0
 17 18  2  0
 18 19  1  0
 19 20  2  0
 14 21  2  0
 21 22  1  0
 22 23  2  0
 23 24  1  0
  8 25  1  0
 25 26  2  0
 26  5  1  0
 23 12  1  0
 20 15  1  0
  1 27  1  0
  1 28  1  0
  1 29  1  0
  4 30  1  0
  6 31  1  0
  7 32  1  0
 11 33  1  0
 13 34  1  0
 16 35  1  0
 17 36  1  0
 19 37  1  0
 20 38  1  0
 21 39  1  0
 22 40  1  0
 24 41  1  0
 24 42  1  0
 25 43  1  0
 26 44  1  0
M  END
$$$$
