@<TRIPOS>MOLECULE
*****
 44 46 0 0 0
SMALL
GASTEIGER

@<TRIPOS>ATOM
      1 C           8.3040   -1.2762    0.2701 C.3     1  UNL1        0.0125
      2 C           6.8339   -1.1734    0.6417 C.2     1  UNL1        0.2141
      3 O           6.5300   -1.7402    1.6946 O.2     1  UNL1       -0.2758
      4 N           5.9721   -0.4680   -0.2110 N.am    1  UNL1       -0.2857
      5 C           4.5895   -0.3131    0.0420 C.ar    1  UNL1        0.0334
      6 C           3.8620    0.4191   -0.9021 C.ar    1  UNL1       -0.0398
      7 C           2.5180    0.6250   -0.7478 C.ar    1  UNL1       -0.0479
      8 C           1.8833    0.1023    0.3513 C.ar    1  UNL1        0.0371
      9 C           0.4646    0.3084    0.5332 C.2     1  UNL1        0.2483
     10 O          -0.0786   -0.1959    1.5719 O.2     1  UNL1       -0.2699
     11 N          -0.3119    1.0424   -0.3994 N.am    1  UNL1       -0.2799
     12 C          -1.7070    1.1560   -0.0719 C.ar    1  UNL1        0.0551
     13 C          -2.6402    0.2375   -0.4915 C.ar    1  UNL1       -0.0310
     14 C          -3.9838    0.3455   -0.1767 C.ar    1  UNL1       -0.0159
     15 C          -4.9855   -0.6150   -0.6106 C.ar    1  UNL1       -0.0150
     16 C          -6.2717   -0.1925   -0.8470 C.ar    1  UNL1       -0.0359
     17 C          -7.2130   -1.1033   -1.2562 C.ar    1  UNL1        0.0281
     18 N          -6.9100   -2.4126   -1.4347 N.ar    1  UNL1       -0.2632
     19 C          -5.6567   -2.8430   -1.2079 C.ar    1  UNL1        0.0281
     20 C          -4.6886   -1.9547   -0.7964 C.ar    1  UNL1       -0.0359
     21 C          -4.3712    1.4428    0.5989 C.ar    1  UNL1       -0.0522
     22 C          -3.4638    2.3785    1.0342 C.ar    1  UNL1       -0.0387
     23 C          -2.1436    2.2191    0.6907 C.ar    1  UNL1        0.0461
     24 N          -1.2006    3.1805    1.1361 N.pl3   1  UNL1       -0.3565
     25 C           2.6008   -0.6258    1.2922 C.ar    1  UNL1       -0.0479
     26 C           3.9765   -0.8421    1.1434 C.ar    1  UNL1       -0.0398
     27 H           8.5419   -0.5226   -0.5136 H       1  UNL1        0.0323
     28 H           8.4962   -2.3156   -0.0519 H       1  UNL1        0.0323
     29 H           8.8498   -0.9998    1.2023 H       1  UNL1        0.0323
     30 H           6.3982   -0.0291   -1.0966 H       1  UNL1        0.1548
     31 H           4.3438    0.8456   -1.7855 H       1  UNL1        0.0636
     32 H           1.9849    1.2080   -1.5161 H       1  UNL1        0.0626
     33 H           0.0711    1.4733   -1.2573 H       1  UNL1        0.1552
     34 H          -2.3282   -0.6038   -1.0890 H       1  UNL1        0.0643
     35 H          -6.5208    0.8448   -0.7078 H       1  UNL1        0.0639
     36 H          -8.2529   -0.8190   -1.4585 H       1  UNL1        0.0830
     37 H          -5.4718   -3.8997   -1.3667 H       1  UNL1        0.0830
     38 H          -3.6914   -2.3203   -0.6205 H       1  UNL1        0.0639
     39 H          -5.4207    1.5629    0.8678 H       1  UNL1        0.0624
     40 H          -3.8014    3.2064    1.6277 H       1  UNL1        0.0637
     41 H          -1.4528    3.9230    1.8242 H       1  UNL1        0.1424
     42 H          -0.2158    3.1834    0.7927 H       1  UNL1        0.1424
     43 H           2.0836   -1.0283    2.1492 H       1  UNL1        0.0626
     44 H           4.4777   -1.4106    1.8997 H       1  UNL1        0.0636
@<TRIPOS>BOND
     1     1     2    1
     2     2     3    2
     3     2     4   am
     4     4     5    1
     5     5     6   ar
     6     6     7   ar
     7     7     8   ar
     8     8     9    1
     9     9    10    2
    10     9    11   am
    11    11    12    1
    12    12    13   ar
    13    13    14   ar
    14    14    15    1
    15    15    16   ar
    16    16    17   ar
    17    17    18   ar
    18    18    19   ar
    19    19    20   ar
    20    14    21   ar
    21    21    22   ar
    22    22    23   ar
    23    23    24    1
    24     8    25   ar
    25    25    26   ar
    26    26     5   ar
    27    23    12   ar
    28    20    15   ar
    29     1    27    1
    30     1    28    1
    31     1    29    1
    32     4    30    1
    33     6    31    1
    34     7    32    1
    35    11    33    1
    36    13    34    1
    37    16    35    1
    38    17    36    1
    39    19    37    1
    40    20    38    1
    41    21    39    1
    42    22    40    1
    43    24    41    1
    44    24    42    1
    45    25    43    1
    46    26    44    1
