@<TRIPOS>MOLECULE
*****
 52 55 0 0 0
SMALL
GASTEIGER

@<TRIPOS>ATOM
      1 C           4.7545    0.9984    2.2191 C.3     1  UNL1       -0.0234
      2 C           4.3488    0.0943    1.0536 C.3     1  UNL1        0.1253
      3 O           3.0338    0.1640    0.7564 O.3     1  UNL1       -0.4810
      4 C           2.0097   -0.7311    0.7709 C.ar    1  UNL1        0.1613
      5 C           0.7137   -0.3156    0.3873 C.ar    1  UNL1       -0.0072
      6 C          -0.3724   -1.1396    0.3705 C.ar    1  UNL1        0.0068
      7 C          -1.7063   -0.6964   -0.0277 C.ar    1  UNL1        0.0211
      8 C          -1.9402    0.2858   -0.9747 C.ar    1  UNL1        0.0571
      9 N          -3.2676    0.4407   -1.0912 N.ar    1  UNL1       -0.1788
     10 N          -3.8783   -0.3897   -0.2698 N.ar    1  UNL1       -0.2677
     11 C          -5.3136   -0.5552   -0.0720 C.3     1  UNL1        0.0550
     12 C          -5.7813    0.6224    0.7604 C.3     1  UNL1       -0.0179
     13 C          -5.4113    1.8861    0.0143 C.3     1  UNL1       -0.0022
     14 N          -5.6445    1.7246   -1.4014 N.3     1  UNL1       -0.3158
     15 C          -6.6627    0.7139   -1.6497 C.3     1  UNL1       -0.0022
     16 C          -6.0097   -0.6231   -1.4018 C.3     1  UNL1       -0.0179
     17 C          -2.9365   -1.1017    0.3970 C.ar    1  UNL1        0.0336
     18 C          -0.2156   -2.4618    0.7473 C.ar    1  UNL1        0.0377
     19 N           1.0010   -2.8863    1.1164 N.ar    1  UNL1       -0.2364
     20 C           2.0866   -2.0553    1.1314 C.ar    1  UNL1        0.1583
     21 N           3.2888   -2.6726    1.5480 N.pl3   1  UNL1       -0.3402
     22 C           5.1790    0.4223   -0.1508 C.ar    1  UNL1        0.0318
     23 C           6.3872   -0.2003   -0.4015 C.ar    1  UNL1        0.0492
     24 CL          6.9544   -1.4181    0.7408 Cl      1  UNL1       -0.0831
     25 C           7.1464    0.1146   -1.5204 C.ar    1  UNL1       -0.0402
     26 C           6.7181    1.0640   -2.4236 C.ar    1  UNL1       -0.0236
     27 C           5.5120    1.6814   -2.1679 C.ar    1  UNL1        0.1421
     28 F           5.0427    2.6324   -3.0368 F       1  UNL1       -0.2039
     29 C           4.7516    1.3705   -1.0533 C.ar    1  UNL1        0.0841
     30 CL          3.2130    2.1595   -0.7285 Cl      1  UNL1       -0.0801
     31 H           4.6146    0.4429    3.1783 H       1  UNL1        0.0269
     32 H           5.8141    1.2399    2.1469 H       1  UNL1        0.0269
     33 H           4.0801    1.8620    2.2578 H       1  UNL1        0.0269
     34 H           4.6694   -0.9133    1.3600 H       1  UNL1        0.0782
     35 H           0.5871    0.7167    0.0918 H       1  UNL1        0.0662
     36 H          -1.1650    0.8209   -1.5133 H       1  UNL1        0.0854
     37 H          -5.5146   -1.5169    0.4607 H       1  UNL1        0.0545
     38 H          -6.8667    0.5653    0.9915 H       1  UNL1        0.0298
     39 H          -5.1807    0.5916    1.7019 H       1  UNL1        0.0298
     40 H          -4.3412    2.1225    0.1974 H       1  UNL1        0.0425
     41 H          -6.0735    2.7271    0.3425 H       1  UNL1        0.0425
     42 H          -5.8781    2.6317   -1.8602 H       1  UNL1        0.1219
     43 H          -7.0079    0.8015   -2.6818 H       1  UNL1        0.0425
     44 H          -7.4936    0.8731   -0.9335 H       1  UNL1        0.0425
     45 H          -5.2400   -0.7657   -2.1867 H       1  UNL1        0.0298
     46 H          -6.7280   -1.4640   -1.4743 H       1  UNL1        0.0298
     47 H          -3.0862   -1.8730    1.1494 H       1  UNL1        0.0832
     48 H          -1.0716   -3.1277    0.7380 H       1  UNL1        0.0836
     49 H           3.6057   -2.7045    2.5456 H       1  UNL1        0.1438
     50 H           3.8970   -3.1205    0.8406 H       1  UNL1        0.1438
     51 H           8.0908   -0.3751   -1.7105 H       1  UNL1        0.0633
     52 H           7.2870    1.3373   -3.3114 H       1  UNL1        0.0647
@<TRIPOS>BOND
     1     1     2    1
     2     2     3    1
     3     3     4    1
     4     4     5   ar
     5     5     6   ar
     6     6     7    1
     7     7     8   ar
     8     8     9   ar
     9     9    10   ar
    10    10    11    1
    11    11    12    1
    12    12    13    1
    13    13    14    1
    14    14    15    1
    15    15    16    1
    16    10    17   ar
    17     6    18   ar
    18    18    19   ar
    19    19    20   ar
    20    20    21    1
    21     2    22    1
    22    22    23   ar
    23    23    24    1
    24    23    25   ar
    25    25    26   ar
    26    26    27   ar
    27    27    28    1
    28    27    29   ar
    29    29    30    1
    30    20     4   ar
    31    29    22   ar
    32    17     7   ar
    33    16    11    1
    34     1    31    1
    35     1    32    1
    36     1    33    1
    37     2    34    1
    38     5    35    1
    39     8    36    1
    40    11    37    1
    41    12    38    1
    42    12    39    1
    43    13    40    1
    44    13    41    1
    45    14    42    1
    46    15    43    1
    47    15    44    1
    48    16    45    1
    49    16    46    1
    50    17    47    1
    51    18    48    1
    52    21    49    1
    53    21    50    1
    54    25    51    1
    55    26    52    1
