@<TRIPOS>MOLECULE
*****
 65 68 0 0 0
SMALL
GASTEIGER

@<TRIPOS>ATOM
      1 C          -6.0513   -1.4933   -3.4511 C.3     1  UNL1        0.0789
      2 O          -5.9702   -0.4917   -2.6029 O.3     1  UNL1       -0.4936
      3 C          -5.8283    0.4143   -1.7237 C.ar    1  UNL1        0.1402
      4 C          -5.0514    0.2429   -0.5721 C.ar    1  UNL1        0.0041
      5 C          -4.9299    1.2516    0.3483 C.ar    1  UNL1        0.0535
      6 N          -4.1720    1.1760    1.5370 N.pl3   1  UNL1       -0.3117
      7 C          -3.3636    0.2519    2.1940 C.ar    1  UNL1        0.0598
      8 C          -3.8714   -0.6638    3.0949 C.ar    1  UNL1        0.0915
      9 C          -3.0816   -1.5722    3.7515 C.ar    1  UNL1        0.0474
     10 N          -1.7540   -1.5849    3.5194 N.ar    1  UNL1       -0.2535
     11 C          -1.2239   -0.7085    2.6492 C.ar    1  UNL1        0.0765
     12 C           0.1268   -0.7232    2.4174 C.ar    1  UNL1        0.0097
     13 C           0.7922    0.1137    1.5588 C.ar    1  UNL1        0.1639
     14 O           2.0971    0.2514    1.1994 O.3     1  UNL1       -0.4882
     15 C           3.2010   -0.4596    1.6109 C.3     1  UNL1        0.0909
     16 C           3.1984   -1.9299    1.2968 C.3     1  UNL1       -0.0058
     17 C           3.1010   -2.1298   -0.2057 C.3     1  UNL1        0.0021
     18 N           4.2024   -1.5133   -0.8158 N.3     1  UNL1       -0.2998
     19 C           5.4976   -2.0462   -0.6413 C.3     1  UNL1        0.0117
     20 C           6.4470   -0.8722   -0.6737 C.3     1  UNL1        0.0114
     21 N           6.2296    0.0483   -1.7232 N.3     1  UNL1       -0.3029
     22 C           6.6631    1.3597   -1.2668 C.3     1  UNL1       -0.0127
     23 C           4.9292    0.1803   -2.2665 C.3     1  UNL1        0.0114
     24 C           4.0669   -1.0493   -2.1542 C.3     1  UNL1        0.0117
     25 C          -0.0010    1.0485    0.8793 C.ar    1  UNL1        0.1622
     26 O           0.4983    1.9912   -0.0416 O.3     1  UNL1       -0.4914
     27 C          -0.4225    2.8697   -0.6524 C.3     1  UNL1        0.0790
     28 C          -1.3838    1.0866    1.0968 C.ar    1  UNL1       -0.0053
     29 C          -2.0010    0.2109    1.9803 C.ar    1  UNL1        0.0265
     30 C          -5.2780   -0.6274    3.3230 C.1     1  UNL1        0.1026
     31 N          -6.4232   -0.5919    3.4975 N.1     1  UNL1       -0.1908
     32 C          -5.5837    2.4322    0.1194 C.ar    1  UNL1        0.0637
     33 CL         -5.4732    3.7588    1.2489 Cl      1  UNL1       -0.0816
     34 C          -6.3621    2.6809   -0.9799 C.ar    1  UNL1       -0.0197
     35 C          -6.4677    1.6308   -1.9034 C.ar    1  UNL1        0.0840
     36 CL         -7.4543    1.8894   -3.3365 Cl      1  UNL1       -0.0797
     37 H          -6.0239   -2.5222   -2.9724 H       1  UNL1        0.0660
     38 H          -5.2130   -1.5634   -4.2123 H       1  UNL1        0.0660
     39 H          -7.0023   -1.5536   -4.0704 H       1  UNL1        0.0660
     40 H          -4.5331   -0.6833   -0.3820 H       1  UNL1        0.0674
     41 H          -4.0957    1.9512    2.2249 H       1  UNL1        0.1522
     42 H          -3.4971   -2.2736    4.4466 H       1  UNL1        0.0843
     43 H           0.7687   -1.4188    2.9278 H       1  UNL1        0.0677
     44 H           4.1317    0.0230    1.2060 H       1  UNL1        0.0697
     45 H           3.3330   -0.3598    2.7294 H       1  UNL1        0.0697
     46 H           4.2247   -2.2934    1.6139 H       1  UNL1        0.0310
     47 H           2.4927   -2.5391    1.8513 H       1  UNL1        0.0310
     48 H           2.1277   -1.7339   -0.5857 H       1  UNL1        0.0428
     49 H           3.0275   -3.2342   -0.3816 H       1  UNL1        0.0428
     50 H           5.6923   -2.5791    0.3012 H       1  UNL1        0.0439
     51 H           5.7747   -2.7046   -1.4982 H       1  UNL1        0.0439
     52 H           6.4193   -0.3998    0.3292 H       1  UNL1        0.0439
     53 H           7.4966   -1.2691   -0.7870 H       1  UNL1        0.0439
     54 H           5.7485    1.8211   -0.8335 H       1  UNL1        0.0391
     55 H           6.9877    2.0265   -2.0839 H       1  UNL1        0.0391
     56 H           7.3931    1.2775   -0.4378 H       1  UNL1        0.0391
     57 H           4.3559    1.0083   -1.7876 H       1  UNL1        0.0439
     58 H           4.9925    0.4532   -3.3398 H       1  UNL1        0.0439
     59 H           4.4412   -1.7848   -2.8958 H       1  UNL1        0.0439
     60 H           3.0232   -0.7372   -2.3434 H       1  UNL1        0.0439
     61 H           0.0998    3.5603   -1.3343 H       1  UNL1        0.0660
     62 H          -1.1706    2.2205   -1.1797 H       1  UNL1        0.0660
     63 H          -0.9621    3.4819    0.1097 H       1  UNL1        0.0660
     64 H          -2.0584    1.7789    0.6093 H       1  UNL1        0.0662
     65 H          -6.8772    3.6154   -1.1562 H       1  UNL1        0.0648
@<TRIPOS>BOND
     1     1     2    1
     2     2     3    1
     3     3     4   ar
     4     4     5   ar
     5     5     6    1
     6     6     7    1
     7     7     8   ar
     8     8     9   ar
     9     9    10   ar
    10    10    11   ar
    11    11    12   ar
    12    12    13   ar
    13    13    14    1
    14    14    15    1
    15    15    16    1
    16    16    17    1
    17    17    18    1
    18    18    19    1
    19    19    20    1
    20    20    21    1
    21    21    22    1
    22    21    23    1
    23    23    24    1
    24    13    25   ar
    25    25    26    1
    26    26    27    1
    27    25    28   ar
    28    28    29   ar
    29     8    30    1
    30    30    31    3
    31     5    32   ar
    32    32    33    1
    33    32    34   ar
    34    34    35   ar
    35    35    36    1
    36    35     3   ar
    37    29     7   ar
    38    29    11   ar
    39    24    18    1
    40     1    37    1
    41     1    38    1
    42     1    39    1
    43     4    40    1
    44     6    41    1
    45     9    42    1
    46    12    43    1
    47    15    44    1
    48    15    45    1
    49    16    46    1
    50    16    47    1
    51    17    48    1
    52    17    49    1
    53    19    50    1
    54    19    51    1
    55    20    52    1
    56    20    53    1
    57    22    54    1
    58    22    55    1
    59    22    56    1
    60    23    57    1
    61    23    58    1
    62    24    59    1
    63    24    60    1
    64    27    61    1
    65    27    62    1
    66    27    63    1
    67    28    64    1
    68    34    65    1
