@<TRIPOS>MOLECULE
*****
 59 63 0 0 0
SMALL
GASTEIGER

@<TRIPOS>ATOM
      1 N1          5.9964   -4.0752   -0.0652 N.3     1  <1>        -0.2035
      2 S1          5.6530   -2.5908   -0.8685 S.O2    1  <1>         0.0559
      3 O1          6.8410   -1.6659   -0.6337 O.2     1  <1>        -0.1533
      4 O2          5.4780   -2.7432   -2.3470 O.2     1  <1>        -0.1533
      5 C1          4.2064   -1.8414   -0.2024 C.ar    1  <1>         0.1050
      6 C2          4.2679   -0.9176    0.8163 C.ar    1  <1>        -0.0351
      7 C3          3.1205   -0.3385    1.3267 C.ar    1  <1>        -0.0564
      8 C4          1.8616   -0.6492    0.8491 C.ar    1  <1>        -0.0428
      9 C5          0.7097    0.0487    1.4557 C.3     1  <1>         0.0017
     10 C6          0.1223    1.1282    0.6412 C.ar    1  <1>         0.0146
     11 C7         -0.7493    1.0661   -0.4219 C.ar    1  <1>         0.0972
     12 C8         -1.3254   -0.1307   -1.0131 C.ar    1  <1>         0.0030
     13 C9         -1.1865   -0.2363   -2.3905 C.ar    1  <1>        -0.0525
     14 C10        -1.7242   -1.3358   -3.0215 C.ar    1  <1>        -0.0606
     15 C11        -2.3894   -2.3276   -2.3480 C.ar    1  <1>        -0.0540
     16 C12        -2.5217   -2.2088   -0.9684 C.ar    1  <1>        -0.0173
     17 C13        -3.2170   -3.2376   -0.2224 C.ar    1  <1>        -0.0179
     18 C14        -4.2514   -3.9131   -0.8294 C.ar    1  <1>        -0.0540
     19 C15        -4.9448   -4.9122   -0.1495 C.ar    1  <1>        -0.0612
     20 C16        -4.6104   -5.2392    1.1313 C.ar    1  <1>        -0.0617
     21 C17        -3.5643   -4.5579    1.7494 C.ar    1  <1>        -0.0612
     22 C18        -2.8721   -3.5555    1.0608 C.ar    1  <1>        -0.0540
     23 C19        -1.9803   -1.0963   -0.3130 C.ar    1  <1>        -0.0448
     24 N2         -0.9828    2.3377   -0.8559 N.ar    1  <1>        -0.1638
     25 N3         -0.3192    3.1947   -0.1389 N.ar    1  <1>        -0.2030
     26 C20        -0.2724    4.6411   -0.2662 C.ar    1  <1>         0.1949
     27 N4         -1.0701    5.5500    0.2316 N.ar    1  <1>        -0.2145
     28 C21        -0.9241    6.8009    0.0434 C.ar    1  <1>         0.1568
     29 C22        -1.8326    7.8260    0.6110 C.2     1  <1>         0.3559
     30 O3         -1.6474    9.0276    0.3971 O.2     1  <1>        -0.2434
     31 O4         -2.9018    7.4442    1.3902 O.3     1  <1>        -0.4761
     32 C23         0.1596    7.2205   -0.7460 C.ar    1  <1>         0.0116
     33 S2          0.8690    5.5833   -1.1319 S.2     1  <1>        -0.0554
     34 C24         0.3658    2.4993    0.7833 C.ar    1  <1>         0.1534
     35 C25         1.2741    3.0967    1.7936 C.3     1  <1>         0.4347
     36 F1          1.2215    4.4910    1.6920 F       1  <1>        -0.1644
     37 F2          1.0530    2.7057    3.0697 F       1  <1>        -0.1644
     38 F3          2.6131    2.8165    1.4399 F       1  <1>        -0.1644
     39 C26         1.7880   -1.5638   -0.1590 C.ar    1  <1>        -0.0564
     40 C27         2.9460   -2.1444   -0.6695 C.ar    1  <1>        -0.0351
     41 H1          7.0327   -4.1926   -0.0092 H       1  <1>         0.1442
     42 H2          5.5156   -4.8891   -0.5297 H       1  <1>         0.1442
     43 H3          5.2455   -0.6313    1.2357 H       1  <1>         0.0637
     44 H4          3.1854    0.3829    2.1504 H       1  <1>         0.0621
     45 H5         -0.0209   -0.7609    1.7125 H       1  <1>         0.0363
     46 H6          1.0255    0.4614    2.4669 H       1  <1>         0.0363
     47 H7         -0.6790    0.4993   -2.9863 H       1  <1>         0.0624
     48 H8         -1.6158   -1.4223   -4.1079 H       1  <1>         0.0618
     49 H9         -2.8181   -3.1963   -2.8189 H       1  <1>         0.0624
     50 H10        -4.5938   -3.7314   -1.8368 H       1  <1>         0.0624
     51 H11        -5.7637   -5.4492   -0.6259 H       1  <1>         0.0618
     52 H12        -5.1071   -6.0098    1.7249 H       1  <1>         0.0618
     53 H13        -3.2731   -4.7890    2.7611 H       1  <1>         0.0618
     54 H14        -2.0767   -3.0699    1.5960 H       1  <1>         0.0624
     55 H15        -2.1070   -1.0170    0.7532 H       1  <1>         0.0630
     56 H16        -3.4090    8.1492    1.9452 H       1  <1>         0.2955
     57 H17         0.5274    8.1898   -1.0714 H       1  <1>         0.0718
     58 H18         0.8301   -1.8450   -0.5540 H       1  <1>         0.0621
     59 H19         2.8425   -2.8756   -1.4826 H       1  <1>         0.0637
@<TRIPOS>BOND
     1     1     2    1
     2     2     3    2
     3     2     4    2
     4     2     5    1
     5     5     6   ar
     6     6     7   ar
     7     7     8   ar
     8     8     9    1
     9     9    10    1
    10    10    11   ar
    11    11    12    1
    12    12    13   ar
    13    13    14   ar
    14    14    15   ar
    15    15    16   ar
    16    16    17    1
    17    17    18   ar
    18    18    19   ar
    19    19    20   ar
    20    20    21   ar
    21    21    22   ar
    22    16    23   ar
    23    11    24   ar
    24    24    25   ar
    25    25    26    1
    26    26    27   ar
    27    27    28   ar
    28    28    29    1
    29    29    30    2
    30    29    31    1
    31    28    32   ar
    32    32    33   ar
    33    25    34   ar
    34    34    35    1
    35    35    36    1
    36    35    37    1
    37    35    38    1
    38     8    39   ar
    39    39    40   ar
    40    40     5   ar
    41    34    10   ar
    42    23    12   ar
    43    33    26   ar
    44    22    17   ar
    45     1    41    1
    46     1    42    1
    47     6    43    1
    48     7    44    1
    49     9    45    1
    50     9    46    1
    51    13    47    1
    52    14    48    1
    53    15    49    1
    54    18    50    1
    55    19    51    1
    56    20    52    1
    57    21    53    1
    58    22    54    1
    59    23    55    1
    60    31    56    1
    61    32    57    1
    62    39    58    1
    63    40    59    1
