
     RDKit          3D

 59 63  0  0  0  0  0  0  0  0999 V2000
    5.9964   -4.0752   -0.0652 N   0  0  0  0  0  0  0  0  0  0  0  0
    5.6530   -2.5908   -0.8685 S   0  0  0  0  0  6  0  0  0  0  0  0
    6.8410   -1.6659   -0.6337 O   0  0  0  0  0  0  0  0  0  0  0  0
    5.4780   -2.7432   -2.3470 O   0  0  0  0  0  0  0  0  0  0  0  0
    4.2064   -1.8414   -0.2024 C   0  0  0  0  0  0  0  0  0  0  0  0
    4.2679   -0.9176    0.8163 C   0  0  0  0  0  0  0  0  0  0  0  0
    3.1205   -0.3385    1.3267 C   0  0  0  0  0  0  0  0  0  0  0  0
    1.8616   -0.6492    0.8491 C   0  0  0  0  0  0  0  0  0  0  0  0
    0.7097    0.0487    1.4557 C   0  0  0  0  0  0  0  0  0  0  0  0
    0.1223    1.1282    0.6412 C   0  0  0  0  0  0  0  0  0  0  0  0
   -0.7493    1.0661   -0.4219 C   0  0  0  0  0  0  0  0  0  0  0  0
   -1.3254   -0.1307   -1.0131 C   0  0  0  0  0  0  0  0  0  0  0  0
   -1.1865   -0.2363   -2.3905 C   0  0  0  0  0  0  0  0  0  0  0  0
   -1.7242   -1.3358   -3.0215 C   0  0  0  0  0  0  0  0  0  0  0  0
   -2.3894   -2.3276   -2.3480 C   0  0  0  0  0  0  0  0  0  0  0  0
   -2.5217   -2.2088   -0.9684 C   0  0  0  0  0  0  0  0  0  0  0  0
   -3.2170   -3.2376   -0.2224 C   0  0  0  0  0  0  0  0  0  0  0  0
   -4.2514   -3.9131   -0.8294 C   0  0  0  0  0  0  0  0  0  0  0  0
   -4.9448   -4.9122   -0.1495 C   0  0  0  0  0  0  0  0  0  0  0  0
   -4.6104   -5.2392    1.1313 C   0  0  0  0  0  0  0  0  0  0  0  0
   -3.5643   -4.5579    1.7494 C   0  0  0  0  0  0  0  0  0  0  0  0
   -2.8721   -3.5555    1.0608 C   0  0  0  0  0  0  0  0  0  0  0  0
   -1.9803   -1.0963   -0.3130 C   0  0  0  0  0  0  0  0  0  0  0  0
   -0.9828    2.3377   -0.8559 N   0  0  0  0  0  0  0  0  0  0  0  0
   -0.3192    3.1947   -0.1389 N   0  0  0  0  0  0  0  0  0  0  0  0
   -0.2724    4.6411   -0.2662 C   0  0  0  0  0  0  0  0  0  0  0  0
   -1.0701    5.5500    0.2316 N   0  0  0  0  0  0  0  0  0  0  0  0
   -0.9241    6.8009    0.0434 C   0  0  0  0  0  0  0  0  0  0  0  0
   -1.8326    7.8260    0.6110 C   0  0  0  0  0  0  0  0  0  0  0  0
   -1.6474    9.0276    0.3971 O   0  0  0  0  0  0  0  0  0  0  0  0
   -2.9018    7.4442    1.3902 O   0  0  0  0  0  0  0  0  0  0  0  0
    0.1596    7.2205   -0.7460 C   0  0  0  0  0  0  0  0  0  0  0  0
    0.8690    5.5833   -1.1319 S   0  0  0  0  0  0  0  0  0  0  0  0
    0.3658    2.4993    0.7833 C   0  0  0  0  0  0  0  0  0  0  0  0
    1.2741    3.0967    1.7936 C   0  0  0  0  0  0  0  0  0  0  0  0
    1.2215    4.4910    1.6920 F   0  0  0  0  0  0  0  0  0  0  0  0
    1.0530    2.7057    3.0697 F   0  0  0  0  0  0  0  0  0  0  0  0
    2.6131    2.8165    1.4399 F   0  0  0  0  0  0  0  0  0  0  0  0
    1.7880   -1.5638   -0.1590 C   0  0  0  0  0  0  0  0  0  0  0  0
    2.9460   -2.1444   -0.6695 C   0  0  0  0  0  0  0  0  0  0  0  0
    7.0327   -4.1926   -0.0092 H   0  0  0  0  0  0  0  0  0  0  0  0
    5.5156   -4.8891   -0.5297 H   0  0  0  0  0  0  0  0  0  0  0  0
    5.2455   -0.6313    1.2357 H   0  0  0  0  0  0  0  0  0  0  0  0
    3.1854    0.3829    2.1504 H   0  0  0  0  0  0  0  0  0  0  0  0
   -0.0209   -0.7609    1.7125 H   0  0  0  0  0  0  0  0  0  0  0  0
    1.0255    0.4614    2.4669 H   0  0  0  0  0  0  0  0  0  0  0  0
   -0.6790    0.4993   -2.9863 H   0  0  0  0  0  0  0  0  0  0  0  0
   -1.6158   -1.4223   -4.1079 H   0  0  0  0  0  0  0  0  0  0  0  0
   -2.8181   -3.1963   -2.8189 H   0  0  0  0  0  0  0  0  0  0  0  0
   -4.5938   -3.7314   -1.8368 H   0  0  0  0  0  0  0  0  0  0  0  0
   -5.7637   -5.4492   -0.6259 H   0  0  0  0  0  0  0  0  0  0  0  0
   -5.1071   -6.0098    1.7249 H   0  0  0  0  0  0  0  0  0  0  0  0
   -3.2731   -4.7890    2.7611 H   0  0  0  0  0  0  0  0  0  0  0  0
   -2.0767   -3.0699    1.5960 H   0  0  0  0  0  0  0  0  0  0  0  0
   -2.1070   -1.0170    0.7532 H   0  0  0  0  0  0  0  0  0  0  0  0
   -3.4090    8.1492    1.9452 H   0  0  0  0  0  0  0  0  0  0  0  0
    0.5274    8.1898   -1.0714 H   0  0  0  0  0  0  0  0  0  0  0  0
    0.8301   -1.8450   -0.5540 H   0  0  0  0  0  0  0  0  0  0  0  0
    2.8425   -2.8756   -1.4826 H   0  0  0  0  0  0  0  0  0  0  0  0
  1  2  1  0
  2  3  2  0
  2  4  2  0
  2  5  1  0
  5  6  2  0
  6  7  1  0
  7  8  2  0
  8  9  1  0
  9 10  1  0
 10 11  1  0
 11 12  1  0
 12 13  2  0
 13 14  1  0
 14 15  2  0
 15 16  1  0
 16 17  1  0
 17 18  2  0
 18 19  1  0
 19 20  2  0
 20 21  1  0
 21 22  2  0
 16 23  2  0
 11 24  2  0
 24 25  1  0
 25 26  1  0
 26 27  2  0
 27 28  1  0
 28 29  1  0
 29 30  2  0
 29 31  1  0
 28 32  2  0
 32 33  1  0
 25 34  1  0
 34 35  1  0
 35 36  1  0
 35 37  1  0
 35 38  1  0
  8 39  1  0
 39 40  2  0
 40  5  1  0
 34 10  2  0
 23 12  1  0
 33 26  1  0
 22 17  1  0
  1 41  1  0
  1 42  1  0
  6 43  1  0
  7 44  1  0
  9 45  1  0
  9 46  1  0
 13 47  1  0
 14 48  1  0
 15 49  1  0
 18 50  1  0
 19 51  1  0
 20 52  1  0
 21 53  1  0
 22 54  1  0
 23 55  1  0
 31 56  1  0
 32 57  1  0
 39 58  1  0
 40 59  1  0
M  END
$$$$
