
     RDKit          3D

 50 53  0  0  0  0  0  0  0  0999 V2000
   -3.5211   -3.0027    1.0934 C   0  0  0  0  0  0  0  0  0  0  0  0
   -4.0178   -1.6430    0.7085 C   0  0  0  0  0  0  0  0  0  0  0  0
   -4.8706   -0.8606    1.3769 N   0  0  0  0  0  0  0  0  0  0  0  0
   -5.0578    0.2726    0.6944 C   0  0  0  0  0  0  0  0  0  0  0  0
   -5.8436    1.3887    0.9654 C   0  0  0  0  0  0  0  0  0  0  0  0
   -6.6184    1.4359    2.1458 N   0  0  0  0  0  4  0  0  0  0  0  0
   -7.3146    2.4338    2.3790 O   0  0  0  0  0  0  0  0  0  0  0  0
   -6.6247    0.4140    3.0405 O   0  0  0  0  0  1  0  0  0  0  0  0
   -5.8315    2.4122    0.0590 C   0  0  0  0  0  0  0  0  0  0  0  0
   -6.7978    3.8526    0.3336 Cl  0  0  0  0  0  0  0  0  0  0  0  0
   -5.0617    2.3267   -1.0803 C   0  0  0  0  0  0  0  0  0  0  0  0
   -5.0600    3.6540   -2.2340 Cl  0  0  0  0  0  0  0  0  0  0  0  0
   -4.2757    1.2290   -1.3674 C   0  0  0  0  0  0  0  0  0  0  0  0
   -4.2842    0.1790   -0.4430 C   0  0  0  0  0  0  0  0  0  0  0  0
   -3.6327   -1.0189   -0.4355 N   0  0  0  0  0  0  0  0  0  0  0  0
   -2.7270   -1.4923   -1.4419 C   0  0  0  0  0  0  0  0  0  0  0  0
   -1.3110   -1.1451   -1.2031 C   0  0  0  0  0  0  0  0  0  0  0  0
   -0.5254   -2.0095   -0.4798 C   0  0  0  0  0  0  0  0  0  0  0  0
    0.8141   -1.6782   -0.2565 C   0  0  0  0  0  0  0  0  0  0  0  0
    1.3609   -0.5208   -0.7374 C   0  0  0  0  0  0  0  0  0  0  0  0
    2.8452   -0.1644   -0.4837 B   0  0  0  0  0  0  0  0  0  0  0  0
    3.1796    1.2761   -0.7618 O   0  0  0  0  0  0  0  0  0  0  0  0
    4.4174    1.8403   -1.0652 C   0  0  0  0  0  0  0  0  0  0  0  0
    4.3523    2.7794   -1.9015 O   0  0  0  0  0  0  0  0  0  0  0  0
    5.7834    1.5863   -0.6286 C   0  0  0  0  0  0  0  0  0  0  0  0
    5.9754    0.7502    0.4840 N   0  0  0  0  0  0  0  0  0  0  0  0
    6.9776    1.2323    1.4174 C   0  0  0  0  0  0  0  0  0  0  0  0
    6.1468   -0.6306    0.2917 C   0  0  0  0  0  0  0  0  0  0  0  0
    4.9043   -1.4422    0.4985 C   0  0  0  0  0  0  0  0  0  0  0  0
    5.1130   -2.6436    0.7987 O   0  0  0  0  0  0  0  0  0  0  0  0
    3.5454   -1.1440    0.4277 O   0  0  0  0  0  0  0  0  0  0  0  0
    0.5809    0.3410   -1.4577 C   0  0  0  0  0  0  0  0  0  0  0  0
   -0.7556    0.0132   -1.6820 C   0  0  0  0  0  0  0  0  0  0  0  0
   -2.5636   -2.9123    1.6451 H   0  0  0  0  0  0  0  0  0  0  0  0
   -3.4085   -3.6485    0.1970 H   0  0  0  0  0  0  0  0  0  0  0  0
   -4.2684   -3.4214    1.7911 H   0  0  0  0  0  0  0  0  0  0  0  0
   -3.6759    1.1430   -2.2451 H   0  0  0  0  0  0  0  0  0  0  0  0
   -3.0551   -1.1631   -2.4691 H   0  0  0  0  0  0  0  0  0  0  0  0
   -2.8263   -2.6152   -1.4644 H   0  0  0  0  0  0  0  0  0  0  0  0
   -0.8786   -2.9500   -0.0632 H   0  0  0  0  0  0  0  0  0  0  0  0
    1.4176   -2.3895    0.3257 H   0  0  0  0  0  0  0  0  0  0  0  0
    6.4195    1.1949   -1.4777 H   0  0  0  0  0  0  0  0  0  0  0  0
    6.2516    2.5905   -0.4002 H   0  0  0  0  0  0  0  0  0  0  0  0
    7.4600    2.1498    1.0408 H   0  0  0  0  0  0  0  0  0  0  0  0
    6.4747    1.4967    2.3624 H   0  0  0  0  0  0  0  0  0  0  0  0
    7.7587    0.4623    1.6161 H   0  0  0  0  0  0  0  0  0  0  0  0
    6.9136   -1.0635    0.9864 H   0  0  0  0  0  0  0  0  0  0  0  0
    6.4971   -0.8978   -0.7422 H   0  0  0  0  0  0  0  0  0  0  0  0
    0.9584    1.2815   -1.8690 H   0  0  0  0  0  0  0  0  0  0  0  0
   -1.3396    0.7214   -2.2588 H   0  0  0  0  0  0  0  0  0  0  0  0
  1  2  1  0
  2  3  2  0
  3  4  1  0
  4  5  2  0
  5  6  1  0
  6  7  2  0
  6  8  1  0
  5  9  1  0
  9 10  1  0
  9 11  2  0
 11 12  1  0
 11 13  1  0
 13 14  2  0
 14 15  1  0
 15 16  1  0
 16 17  1  0
 17 18  2  0
 18 19  1  0
 19 20  2  0
 20 21  1  0
 21 22  1  0
 22 23  1  0
 23 24  2  0
 23 25  1  0
 25 26  1  0
 26 27  1  0
 26 28  1  0
 28 29  1  0
 29 30  2  0
 29 31  1  0
 20 32  1  0
 32 33  2  0
 15  2  1  0
 33 17  1  0
 14  4  1  0
 31 21  1  0
  1 34  1  0
  1 35  1  0
  1 36  1  0
 13 37  1  0
 16 38  1  0
 16 39  1  0
 18 40  1  0
 19 41  1  0
 25 42  1  0
 25 43  1  0
 27 44  1  0
 27 45  1  0
 27 46  1  0
 28 47  1  0
 28 48  1  0
 32 49  1  0
 33 50  1  0
M  CHG  2   6   1   8  -1
M  END
$$$$
