@<TRIPOS>MOLECULE
*****
 50 53 0 0 0
SMALL
GASTEIGER

@<TRIPOS>ATOM
      1 C          -3.5211   -3.0027    1.0934 C.3     1  UNL1        0.0000
      2 C          -4.0178   -1.6430    0.7085 C.ar    1  UNL1        0.0000
      3 N          -4.8706   -0.8606    1.3769 N.ar    1  UNL1        0.0000
      4 C          -5.0578    0.2726    0.6944 C.ar    1  UNL1        0.0000
      5 C          -5.8436    1.3887    0.9654 C.ar    1  UNL1        0.0000
      6 N          -6.6184    1.4359    2.1458 N.pl3   1  UNL1        1.0000
      7 O          -7.3146    2.4338    2.3790 O.2     1  UNL1        0.0000
      8 O          -6.6247    0.4140    3.0405 O.co2   1  UNL1       -1.0000
      9 C          -5.8315    2.4122    0.0590 C.ar    1  UNL1        0.0000
     10 CL         -6.7978    3.8526    0.3336 Cl      1  UNL1        0.0000
     11 C          -5.0617    2.3267   -1.0803 C.ar    1  UNL1        0.0000
     12 CL         -5.0600    3.6540   -2.2340 Cl      1  UNL1        0.0000
     13 C          -4.2757    1.2290   -1.3674 C.ar    1  UNL1        0.0000
     14 C          -4.2842    0.1790   -0.4430 C.ar    1  UNL1        0.0000
     15 N          -3.6327   -1.0189   -0.4355 N.ar    1  UNL1        0.0000
     16 C          -2.7270   -1.4923   -1.4419 C.3     1  UNL1        0.0000
     17 C          -1.3110   -1.1451   -1.2031 C.ar    1  UNL1        0.0000
     18 C          -0.5254   -2.0095   -0.4798 C.ar    1  UNL1        0.0000
     19 C           0.8141   -1.6782   -0.2565 C.ar    1  UNL1        0.0000
     20 C           1.3609   -0.5208   -0.7374 C.ar    1  UNL1        0.0000
     21 B           2.8452   -0.1644   -0.4837 B       1  UNL1        0.0000
     22 O           3.1796    1.2761   -0.7618 O.3     1  UNL1        0.0000
     23 C           4.4174    1.8403   -1.0652 C.2     1  UNL1        0.0000
     24 O           4.3523    2.7794   -1.9015 O.2     1  UNL1        0.0000
     25 C           5.7834    1.5863   -0.6286 C.3     1  UNL1        0.0000
     26 N           5.9754    0.7502    0.4840 N.3     1  UNL1        0.0000
     27 C           6.9776    1.2323    1.4174 C.3     1  UNL1        0.0000
     28 C           6.1468   -0.6306    0.2917 C.3     1  UNL1        0.0000
     29 C           4.9043   -1.4422    0.4985 C.2     1  UNL1        0.0000
     30 O           5.1130   -2.6436    0.7987 O.2     1  UNL1        0.0000
     31 O           3.5454   -1.1440    0.4277 O.3     1  UNL1        0.0000
     32 C           0.5809    0.3410   -1.4577 C.ar    1  UNL1        0.0000
     33 C          -0.7556    0.0132   -1.6820 C.ar    1  UNL1        0.0000
     34 H          -2.5636   -2.9123    1.6451 H       1  UNL1        0.0000
     35 H          -3.4085   -3.6485    0.1970 H       1  UNL1        0.0000
     36 H          -4.2684   -3.4214    1.7911 H       1  UNL1        0.0000
     37 H          -3.6759    1.1430   -2.2451 H       1  UNL1        0.0000
     38 H          -3.0551   -1.1631   -2.4691 H       1  UNL1        0.0000
     39 H          -2.8263   -2.6152   -1.4644 H       1  UNL1        0.0000
     40 H          -0.8786   -2.9500   -0.0632 H       1  UNL1        0.0000
     41 H           1.4176   -2.3895    0.3257 H       1  UNL1        0.0000
     42 H           6.4195    1.1949   -1.4777 H       1  UNL1        0.0000
     43 H           6.2516    2.5905   -0.4002 H       1  UNL1        0.0000
     44 H           7.4600    2.1498    1.0408 H       1  UNL1        0.0000
     45 H           6.4747    1.4967    2.3624 H       1  UNL1        0.0000
     46 H           7.7587    0.4623    1.6161 H       1  UNL1        0.0000
     47 H           6.9136   -1.0635    0.9864 H       1  UNL1        0.0000
     48 H           6.4971   -0.8978   -0.7422 H       1  UNL1        0.0000
     49 H           0.9584    1.2815   -1.8690 H       1  UNL1        0.0000
     50 H          -1.3396    0.7214   -2.2588 H       1  UNL1        0.0000
@<TRIPOS>UNITY_ATOM_ATTR
6 1
charge 1
8 1
charge -1
@<TRIPOS>BOND
     1     1     2    1
     2     2     3   ar
     3     3     4   ar
     4     4     5   ar
     5     5     6    1
     6     6     7    2
     7     6     8    1
     8     5     9   ar
     9     9    10    1
    10     9    11   ar
    11    11    12    1
    12    11    13   ar
    13    13    14   ar
    14    14    15   ar
    15    15    16    1
    16    16    17    1
    17    17    18   ar
    18    18    19   ar
    19    19    20   ar
    20    20    21    1
    21    21    22    1
    22    22    23    1
    23    23    24    2
    24    23    25    1
    25    25    26    1
    26    26    27    1
    27    26    28    1
    28    28    29    1
    29    29    30    2
    30    29    31    1
    31    20    32   ar
    32    32    33   ar
    33    15     2   ar
    34    33    17   ar
    35    14     4   ar
    36    31    21    1
    37     1    34    1
    38     1    35    1
    39     1    36    1
    40    13    37    1
    41    16    38    1
    42    16    39    1
    43    18    40    1
    44    19    41    1
    45    25    42    1
    46    25    43    1
    47    27    44    1
    48    27    45    1
    49    27    46    1
    50    28    47    1
    51    28    48    1
    52    32    49    1
    53    33    50    1
