
     RDKit          3D

 55 57  0  0  0  0  0  0  0  0999 V2000
    6.1715   -3.3993    1.0455 C   0  0  0  0  0  0  0  0  0  0  0  0
    5.8471   -1.9384    1.0787 C   0  0  0  0  0  0  0  0  0  0  0  0
    6.7365   -1.2824    0.2251 F   0  0  0  0  0  0  0  0  0  0  0  0
    4.4133   -1.6897    0.5925 C   0  0  0  0  0  0  0  0  0  0  0  0
    4.1039    0.0473    0.6607 S   0  0  0  0  0  6  0  0  0  0  0  0
    4.3763    0.5606    2.0554 O   0  0  0  0  0  0  0  0  0  0  0  0
    5.1296    0.7226   -0.2378 O   0  0  0  0  0  0  0  0  0  0  0  0
    2.5869    0.5425    0.1683 N   0  0  0  0  0  0  0  0  0  0  0  0
    1.4693    0.0287    0.9385 C   0  0  0  0  0  0  0  0  0  0  0  0
    0.2677    0.9145    0.7700 C   0  0  0  0  0  0  0  0  0  0  0  0
   -0.0944    1.1928   -0.6194 C   0  0  0  0  0  0  0  0  0  0  0  0
   -0.7957    0.1659   -1.4275 C   0  0  0  0  0  0  0  0  0  0  0  0
   -2.0425   -0.3407   -1.0228 N   0  0  0  0  0  0  0  0  0  0  0  0
   -2.3357   -1.1656    0.0717 C   0  0  0  0  0  0  0  0  0  0  0  0
   -1.4379   -1.5725    0.8254 O   0  0  0  0  0  0  0  0  0  0  0  0
   -3.7305   -1.5720    0.3540 C   0  0  0  0  0  0  0  0  0  0  0  0
   -4.4339   -2.3266   -0.5600 C   0  0  0  0  0  0  0  0  0  0  0  0
   -5.7398   -2.7125   -0.3075 C   0  0  0  0  0  0  0  0  0  0  0  0
   -6.3893   -2.3629    0.8580 C   0  0  0  0  0  0  0  0  0  0  0  0
   -8.0402   -2.8443    1.1870 Cl  0  0  0  0  0  0  0  0  0  0  0  0
   -5.6795   -1.6061    1.7712 C   0  0  0  0  0  0  0  0  0  0  0  0
   -4.3787   -1.2220    1.5193 C   0  0  0  0  0  0  0  0  0  0  0  0
   -3.4741   -0.2565    2.6853 Cl  0  0  0  0  0  0  0  0  0  0  0  0
   -0.9189    2.4299   -0.6825 C   0  0  0  0  0  0  0  0  0  0  0  0
   -1.3993    2.9810   -1.8457 C   0  0  0  0  0  0  0  0  0  0  0  0
   -2.1647    4.1325   -1.8568 C   0  0  0  0  0  0  0  0  0  0  0  0
   -2.4515    4.7411   -0.6663 C   0  0  0  0  0  0  0  0  0  0  0  0
   -1.9636    4.1797    0.5032 C   0  0  0  0  0  0  0  0  0  0  0  0
   -1.2166    3.0494    0.4689 N   0  0  0  0  0  0  0  0  0  0  0  0
    1.1758    1.5187   -1.4507 C   0  0  0  0  0  0  0  0  0  0  0  0
    2.2658    0.4975   -1.2106 C   0  0  0  0  0  0  0  0  0  0  0  0
    5.9642   -3.9107    2.0117 H   0  0  0  0  0  0  0  0  0  0  0  0
    5.5708   -3.9041    0.2660 H   0  0  0  0  0  0  0  0  0  0  0  0
    7.2299   -3.5293    0.7545 H   0  0  0  0  0  0  0  0  0  0  0  0
    5.9522   -1.5563    2.0962 H   0  0  0  0  0  0  0  0  0  0  0  0
    3.7610   -2.1863    1.3554 H   0  0  0  0  0  0  0  0  0  0  0  0
    4.2504   -2.1242   -0.3941 H   0  0  0  0  0  0  0  0  0  0  0  0
    1.8003   -0.0374    1.9885 H   0  0  0  0  0  0  0  0  0  0  0  0
    1.2778   -1.0010    0.5865 H   0  0  0  0  0  0  0  0  0  0  0  0
    0.6259    1.9114    1.2633 H   0  0  0  0  0  0  0  0  0  0  0  0
   -0.5392    0.6346    1.4071 H   0  0  0  0  0  0  0  0  0  0  0  0
   -0.0540   -0.7038   -1.5632 H   0  0  0  0  0  0  0  0  0  0  0  0
   -0.8906    0.5200   -2.5066 H   0  0  0  0  0  0  0  0  0  0  0  0
   -2.8901   -0.0691   -1.6148 H   0  0  0  0  0  0  0  0  0  0  0  0
   -3.9484   -2.6139   -1.4811 H   0  0  0  0  0  0  0  0  0  0  0  0
   -6.3137   -3.3066   -1.0117 H   0  0  0  0  0  0  0  0  0  0  0  0
   -6.1722   -1.3179    2.6988 H   0  0  0  0  0  0  0  0  0  0  0  0
   -1.1743    2.5073   -2.7705 H   0  0  0  0  0  0  0  0  0  0  0  0
   -2.5208    4.5309   -2.7831 H   0  0  0  0  0  0  0  0  0  0  0  0
   -3.0530    5.6478   -0.6628 H   0  0  0  0  0  0  0  0  0  0  0  0
   -2.2127    4.6920    1.4273 H   0  0  0  0  0  0  0  0  0  0  0  0
    0.9033    1.6403   -2.5066 H   0  0  0  0  0  0  0  0  0  0  0  0
    1.5484    2.4827   -1.0483 H   0  0  0  0  0  0  0  0  0  0  0  0
    1.9078   -0.5126   -1.5302 H   0  0  0  0  0  0  0  0  0  0  0  0
    3.1199    0.7928   -1.8731 H   0  0  0  0  0  0  0  0  0  0  0  0
  1  2  1  0
  2  3  1  0
  2  4  1  0
  4  5  1  0
  5  6  2  0
  5  7  2  0
  5  8  1  0
  8  9  1  0
  9 10  1  0
 10 11  1  0
 11 12  1  0
 12 13  1  0
 13 14  1  0
 14 15  2  0
 14 16  1  0
 16 17  2  0
 17 18  1  0
 18 19  2  0
 19 20  1  0
 19 21  1  0
 21 22  2  0
 22 23  1  0
 11 24  1  0
 24 25  2  0
 25 26  1  0
 26 27  2  0
 27 28  1  0
 28 29  2  0
 11 30  1  0
 30 31  1  0
 31  8  1  0
 22 16  1  0
 29 24  1  0
  1 32  1  0
  1 33  1  0
  1 34  1  0
  2 35  1  0
  4 36  1  0
  4 37  1  0
  9 38  1  0
  9 39  1  0
 10 40  1  0
 10 41  1  0
 12 42  1  0
 12 43  1  0
 13 44  1  0
 17 45  1  0
 18 46  1  0
 21 47  1  0
 25 48  1  0
 26 49  1  0
 27 50  1  0
 28 51  1  0
 30 52  1  0
 30 53  1  0
 31 54  1  0
 31 55  1  0
M  END
$$$$
