@<TRIPOS>MOLECULE
*****
 55 57 0 0 0
SMALL
GASTEIGER

@<TRIPOS>ATOM
      1 C           6.1715   -3.3993    1.0455 C.3     1  UNL1       -0.0322
      2 C           5.8471   -1.9384    1.0787 C.3     1  UNL1        0.1189
      3 F           6.7365   -1.2824    0.2251 F       1  UNL1       -0.2440
      4 C           4.4133   -1.6897    0.5925 C.3     1  UNL1        0.1126
      5 S           4.1039    0.0473    0.6607 S.O2    1  UNL1        0.0345
      6 O           4.3763    0.5606    2.0554 O.2     1  UNL1       -0.1579
      7 O           5.1296    0.7226   -0.2378 O.2     1  UNL1       -0.1579
      8 N           2.5869    0.5425    0.1683 N.3     1  UNL1       -0.1810
      9 C           1.4693    0.0287    0.9385 C.3     1  UNL1        0.0210
     10 C           0.2677    0.9145    0.7700 C.3     1  UNL1       -0.0260
     11 C          -0.0944    1.1928   -0.6194 C.3     1  UNL1        0.0308
     12 C          -0.7957    0.1659   -1.4275 C.3     1  UNL1        0.0230
     13 N          -2.0425   -0.3407   -1.0228 N.am    1  UNL1       -0.3104
     14 C          -2.3357   -1.1656    0.0717 C.2     1  UNL1        0.2455
     15 O          -1.4379   -1.5725    0.8254 O.2     1  UNL1       -0.2702
     16 C          -3.7305   -1.5720    0.3540 C.ar    1  UNL1        0.0550
     17 C          -4.4339   -2.3266   -0.5600 C.ar    1  UNL1       -0.0468
     18 C          -5.7398   -2.7125   -0.3075 C.ar    1  UNL1       -0.0426
     19 C          -6.3893   -2.3629    0.8580 C.ar    1  UNL1        0.0424
     20 CL         -8.0402   -2.8443    1.1870 Cl      1  UNL1       -0.0835
     21 C          -5.6795   -1.6061    1.7712 C.ar    1  UNL1       -0.0243
     22 C          -4.3787   -1.2220    1.5193 C.ar    1  UNL1        0.0544
     23 CL         -3.4741   -0.2565    2.6853 Cl      1  UNL1       -0.0827
     24 C          -0.9189    2.4299   -0.6825 C.ar    1  UNL1        0.0490
     25 C          -1.3993    2.9810   -1.8457 C.ar    1  UNL1       -0.0398
     26 C          -2.1647    4.1325   -1.8568 C.ar    1  UNL1       -0.0586
     27 C          -2.4515    4.7411   -0.6663 C.ar    1  UNL1       -0.0436
     28 C          -1.9636    4.1797    0.5032 C.ar    1  UNL1        0.0279
     29 N          -1.2166    3.0494    0.4689 N.ar    1  UNL1       -0.2593
     30 C           1.1758    1.5187   -1.4507 C.3     1  UNL1       -0.0260
     31 C           2.2658    0.4975   -1.2106 C.3     1  UNL1        0.0210
     32 H           5.9642   -3.9107    2.0117 H       1  UNL1        0.0258
     33 H           5.5708   -3.9041    0.2660 H       1  UNL1        0.0258
     34 H           7.2299   -3.5293    0.7545 H       1  UNL1        0.0258
     35 H           5.9522   -1.5563    2.0962 H       1  UNL1        0.0665
     36 H           3.7610   -2.1863    1.3554 H       1  UNL1        0.0544
     37 H           4.2504   -2.1242   -0.3941 H       1  UNL1        0.0544
     38 H           1.8003   -0.0374    1.9885 H       1  UNL1        0.0444
     39 H           1.2778   -1.0010    0.5865 H       1  UNL1        0.0444
     40 H           0.6259    1.9114    1.2633 H       1  UNL1        0.0288
     41 H          -0.5392    0.6346    1.4071 H       1  UNL1        0.0288
     42 H          -0.0540   -0.7038   -1.5632 H       1  UNL1        0.0471
     43 H          -0.8906    0.5200   -2.5066 H       1  UNL1        0.0471
     44 H          -2.8901   -0.0691   -1.6148 H       1  UNL1        0.1490
     45 H          -3.9484   -2.6139   -1.4811 H       1  UNL1        0.0626
     46 H          -6.3137   -3.3066   -1.0117 H       1  UNL1        0.0632
     47 H          -6.1722   -1.3179    2.6988 H       1  UNL1        0.0647
     48 H          -1.1743    2.5073   -2.7705 H       1  UNL1        0.0636
     49 H          -2.5208    4.5309   -2.7831 H       1  UNL1        0.0619
     50 H          -3.0530    5.6478   -0.6628 H       1  UNL1        0.0633
     51 H          -2.2127    4.6920    1.4273 H       1  UNL1        0.0829
     52 H           0.9033    1.6403   -2.5066 H       1  UNL1        0.0288
     53 H           1.5484    2.4827   -1.0483 H       1  UNL1        0.0288
     54 H           1.9078   -0.5126   -1.5302 H       1  UNL1        0.0444
     55 H           3.1199    0.7928   -1.8731 H       1  UNL1        0.0444
@<TRIPOS>BOND
     1     1     2    1
     2     2     3    1
     3     2     4    1
     4     4     5    1
     5     5     6    2
     6     5     7    2
     7     5     8    1
     8     8     9    1
     9     9    10    1
    10    10    11    1
    11    11    12    1
    12    12    13    1
    13    13    14   am
    14    14    15    2
    15    14    16    1
    16    16    17   ar
    17    17    18   ar
    18    18    19   ar
    19    19    20    1
    20    19    21   ar
    21    21    22   ar
    22    22    23    1
    23    11    24    1
    24    24    25   ar
    25    25    26   ar
    26    26    27   ar
    27    27    28   ar
    28    28    29   ar
    29    11    30    1
    30    30    31    1
    31    31     8    1
    32    22    16   ar
    33    29    24   ar
    34     1    32    1
    35     1    33    1
    36     1    34    1
    37     2    35    1
    38     4    36    1
    39     4    37    1
    40     9    38    1
    41     9    39    1
    42    10    40    1
    43    10    41    1
    44    12    42    1
    45    12    43    1
    46    13    44    1
    47    17    45    1
    48    18    46    1
    49    21    47    1
    50    25    48    1
    51    26    49    1
    52    27    50    1
    53    28    51    1
    54    30    52    1
    55    30    53    1
    56    31    54    1
    57    31    55    1
