
     RDKit          3D

 73 79  0  0  0  0  0  0  0  0999 V2000
   -1.8970    7.9771   -1.4776 C   0  0  0  0  0  0  0  0  0  0  0  0
   -1.3227    6.7017   -1.6560 O   0  0  0  0  0  0  0  0  0  0  0  0
   -1.6201    5.6623   -0.7737 C   0  0  0  0  0  0  0  0  0  0  0  0
   -1.0702    4.4081   -0.9287 C   0  0  0  0  0  0  0  0  0  0  0  0
   -1.3546    3.3736   -0.0657 C   0  0  0  0  0  0  0  0  0  0  0  0
   -0.8003    2.0956   -0.2115 N   0  0  0  0  0  0  0  0  0  0  0  0
    0.4507    1.7037    0.4037 C   0  0  0  0  0  0  0  0  0  0  0  0
    0.9113    2.2011    1.4660 O   0  0  0  0  0  0  0  0  0  0  0  0
    1.0284    0.6783   -0.4121 N   0  0  0  0  0  0  0  0  0  0  0  0
    2.2691   -0.0175   -0.2204 C   0  0  0  0  0  0  0  0  0  0  0  0
    3.1149    0.2938    0.8123 C   0  0  0  0  0  0  0  0  0  0  0  0
    4.2957   -0.4015    0.9651 C   0  0  0  0  0  0  0  0  0  0  0  0
    4.6829   -1.4142    0.1203 C   0  0  0  0  0  0  0  0  0  0  0  0
    5.9305   -2.1152    0.3129 C   0  0  0  0  0  0  0  0  0  0  0  0
    6.0636   -3.4304   -0.0407 C   0  0  0  0  0  0  0  0  0  0  0  0
    7.2380   -4.1322    0.1262 C   0  0  0  0  0  0  0  0  0  0  0  0
    8.3233   -3.4477    0.6822 C   0  0  0  0  0  0  0  0  0  0  0  0
    9.5844   -3.8038    0.9812 N   0  0  0  0  0  0  0  0  0  0  0  0
   10.2116   -2.7620    1.4973 N   0  0  0  0  0  0  0  0  0  0  0  0
    9.3971   -1.6962    1.5562 C   0  0  0  0  0  0  0  0  0  0  0  0
    8.1945   -2.1286    1.0384 C   0  0  0  0  0  0  0  0  0  0  0  0
    7.0187   -1.4735    0.8571 C   0  0  0  0  0  0  0  0  0  0  0  0
    3.8256   -1.7161   -0.9104 C   0  0  0  0  0  0  0  0  0  0  0  0
    2.6278   -1.0279   -1.0848 C   0  0  0  0  0  0  0  0  0  0  0  0
    0.1131    0.4822   -1.4927 C   0  0  0  0  0  0  0  0  0  0  0  0
    0.3303    0.0629   -2.6466 O   0  0  0  0  0  0  0  0  0  0  0  0
   -1.2198    0.9078   -0.9183 C   0  0  0  0  0  0  0  0  0  0  0  0
   -2.2425    1.1476   -1.9687 C   0  0  0  0  0  0  0  0  0  0  0  0
   -3.0018   -0.1454   -2.1881 C   0  0  0  0  0  0  0  0  0  0  0  0
   -3.7081   -0.5863   -1.0060 N   0  0  0  0  0  0  0  0  0  0  0  0
   -3.8161   -2.0354   -0.9685 C   0  0  0  0  0  0  0  0  0  0  0  0
   -4.5537   -2.4351    0.2533 C   0  0  0  0  0  0  0  0  0  0  0  0
   -3.9320   -2.9553    1.3442 N   0  0  0  0  0  0  0  0  0  0  0  0
   -4.6647   -3.2974    2.4185 C   0  0  0  0  0  0  0  0  0  0  0  0
   -6.0233   -3.1550    2.4912 C   0  0  0  0  0  0  0  0  0  0  0  0
   -6.6813   -2.6250    1.3878 C   0  0  0  0  0  0  0  0  0  0  0  0
   -5.9207   -2.2773    0.2910 C   0  0  0  0  0  0  0  0  0  0  0  0
   -6.5936   -1.7163   -0.8888 C   0  0  0  0  0  0  0  0  0  0  0  0
   -3.1343   -0.0825    0.2084 C   0  0  0  0  0  0  0  0  0  0  0  0
   -1.6177   -0.1581    0.0751 C   0  0  0  0  0  0  0  0  0  0  0  0
   -2.2015    3.6522    0.9414 N   0  0  0  0  0  0  0  0  0  0  0  0
   -2.7438    4.8865    1.0954 C   0  0  0  0  0  0  0  0  0  0  0  0
   -2.4706    5.9014    0.2568 N   0  0  0  0  0  0  0  0  0  0  0  0
   -1.5057    8.4545   -0.5401 H   0  0  0  0  0  0  0  0  0  0  0  0
   -1.6026    8.6259   -2.3253 H   0  0  0  0  0  0  0  0  0  0  0  0
   -2.9916    7.8700   -1.3806 H   0  0  0  0  0  0  0  0  0  0  0  0
   -0.3989    4.2476   -1.7550 H   0  0  0  0  0  0  0  0  0  0  0  0
    2.8649    1.0888    1.5174 H   0  0  0  0  0  0  0  0  0  0  0  0
    4.9492   -0.1419    1.7849 H   0  0  0  0  0  0  0  0  0  0  0  0
    5.2183   -3.9602   -0.4728 H   0  0  0  0  0  0  0  0  0  0  0  0
    7.3597   -5.1721   -0.1480 H   0  0  0  0  0  0  0  0  0  0  0  0
    9.9714   -4.7479    0.8212 H   0  0  0  0  0  0  0  0  0  0  0  0
    9.5771   -0.7006    1.9145 H   0  0  0  0  0  0  0  0  0  0  0  0
    6.9265   -0.4340    1.1406 H   0  0  0  0  0  0  0  0  0  0  0  0
    4.0453   -2.4944   -1.6217 H   0  0  0  0  0  0  0  0  0  0  0  0
    1.9647   -1.2834   -1.8991 H   0  0  0  0  0  0  0  0  0  0  0  0
   -1.6927    1.3326   -2.9348 H   0  0  0  0  0  0  0  0  0  0  0  0
   -2.9447    1.9744   -1.7489 H   0  0  0  0  0  0  0  0  0  0  0  0
   -3.7445    0.0267   -2.9812 H   0  0  0  0  0  0  0  0  0  0  0  0
   -2.2953   -0.9408   -2.4886 H   0  0  0  0  0  0  0  0  0  0  0  0
   -4.3057   -2.4119   -1.8903 H   0  0  0  0  0  0  0  0  0  0  0  0
   -2.8064   -2.5037   -0.9242 H   0  0  0  0  0  0  0  0  0  0  0  0
   -4.1209   -3.7082    3.2634 H   0  0  0  0  0  0  0  0  0  0  0  0
   -6.6240   -3.4261    3.3485 H   0  0  0  0  0  0  0  0  0  0  0  0
   -7.7635   -2.5059    1.4312 H   0  0  0  0  0  0  0  0  0  0  0  0
   -6.0470   -0.8582   -1.3338 H   0  0  0  0  0  0  0  0  0  0  0  0
   -7.5813   -1.3187   -0.5821 H   0  0  0  0  0  0  0  0  0  0  0  0
   -6.7749   -2.4617   -1.6911 H   0  0  0  0  0  0  0  0  0  0  0  0
   -3.4704   -0.6395    1.0818 H   0  0  0  0  0  0  0  0  0  0  0  0
   -3.3811    1.0146    0.2845 H   0  0  0  0  0  0  0  0  0  0  0  0
   -1.1115    0.0590    1.0195 H   0  0  0  0  0  0  0  0  0  0  0  0
   -1.3155   -1.1557   -0.3366 H   0  0  0  0  0  0  0  0  0  0  0  0
   -3.4198    5.0707    1.9174 H   0  0  0  0  0  0  0  0  0  0  0  0
  1  2  1  0
  2  3  1  0
  3  4  2  0
  4  5  1  0
  5  6  1  0
  6  7  1  0
  7  8  2  0
  7  9  1  0
  9 10  1  0
 10 11  2  0
 11 12  1  0
 12 13  2  0
 13 14  1  0
 14 15  2  0
 15 16  1  0
 16 17  2  0
 17 18  1  0
 18 19  1  0
 19 20  2  0
 20 21  1  0
 21 22  2  0
 13 23  1  0
 23 24  2  0
  9 25  1  0
 25 26  2  0
 25 27  1  0
 27 28  1  0
 28 29  1  0
 29 30  1  0
 30 31  1  0
 31 32  1  0
 32 33  2  0
 33 34  1  0
 34 35  2  0
 35 36  1  0
 36 37  2  0
 37 38  1  0
 30 39  1  0
 39 40  1  0
  5 41  2  0
 41 42  1  0
 42 43  2  0
 43  3  1  0
 27  6  1  0
 37 32  1  0
 24 10  1  0
 40 27  1  0
 22 14  1  0
 21 17  1  0
  1 44  1  0
  1 45  1  0
  1 46  1  0
  4 47  1  0
 11 48  1  0
 12 49  1  0
 15 50  1  0
 16 51  1  0
 18 52  1  0
 20 53  1  0
 22 54  1  0
 23 55  1  0
 24 56  1  0
 28 57  1  0
 28 58  1  0
 29 59  1  0
 29 60  1  0
 31 61  1  0
 31 62  1  0
 34 63  1  0
 35 64  1  0
 36 65  1  0
 38 66  1  0
 38 67  1  0
 38 68  1  0
 39 69  1  0
 39 70  1  0
 40 71  1  0
 40 72  1  0
 42 73  1  0
M  END
$$$$
