@<TRIPOS>MOLECULE
*****
 73 79 0 0 0
SMALL
GASTEIGER

@<TRIPOS>ATOM
      1 C          -1.8970    7.9771   -1.4776 C.3     1  UNL1        0.0804
      2 O          -1.3227    6.7017   -1.6560 O.3     1  UNL1       -0.4795
      3 C          -1.6201    5.6623   -0.7737 C.ar    1  UNL1        0.2191
      4 C          -1.0702    4.4081   -0.9287 C.ar    1  UNL1        0.0404
      5 C          -1.3546    3.3736   -0.0657 C.ar    1  UNL1        0.1364
      6 N          -0.8003    2.0956   -0.2115 N.am    1  UNL1       -0.2240
      7 C           0.4507    1.7037    0.4037 C.2     1  UNL1        0.3219
      8 O           0.9113    2.2011    1.4660 O.2     1  UNL1       -0.2512
      9 N           1.0284    0.6783   -0.4121 N.am    1  UNL1       -0.1920
     10 C           2.2691   -0.0175   -0.2204 C.ar    1  UNL1        0.0455
     11 C           3.1149    0.2938    0.8123 C.ar    1  UNL1       -0.0392
     12 C           4.2957   -0.4015    0.9651 C.ar    1  UNL1       -0.0523
     13 C           4.6829   -1.4142    0.1203 C.ar    1  UNL1       -0.0177
     14 C           5.9305   -2.1152    0.3129 C.ar    1  UNL1       -0.0172
     15 C           6.0636   -3.4304   -0.0407 C.ar    1  UNL1       -0.0520
     16 C           7.2380   -4.1322    0.1262 C.ar    1  UNL1       -0.0357
     17 C           8.3233   -3.4477    0.6822 C.ar    1  UNL1        0.0658
     18 N           9.5844   -3.8038    0.9812 N.ar    1  UNL1       -0.2770
     19 N          10.2116   -2.7620    1.4973 N.ar    1  UNL1       -0.1812
     20 C           9.3971   -1.6962    1.5562 C.ar    1  UNL1        0.0569
     21 C           8.1945   -2.1286    1.0384 C.ar    1  UNL1        0.0200
     22 C           7.0187   -1.4735    0.8571 C.ar    1  UNL1       -0.0434
     23 C           3.8256   -1.7161   -0.9104 C.ar    1  UNL1       -0.0523
     24 C           2.6278   -1.0279   -1.0848 C.ar    1  UNL1       -0.0392
     25 C           0.1131    0.4822   -1.4927 C.2     1  UNL1        0.2516
     26 O           0.3303    0.0629   -2.6466 O.2     1  UNL1       -0.2724
     27 C          -1.2198    0.9078   -0.9183 C.3     1  UNL1        0.1240
     28 C          -2.2425    1.1476   -1.9687 C.3     1  UNL1       -0.0095
     29 C          -3.0018   -0.1454   -2.1881 C.3     1  UNL1        0.0017
     30 N          -3.7081   -0.5863   -1.0060 N.3     1  UNL1       -0.2965
     31 C          -3.8161   -2.0354   -0.9685 C.3     1  UNL1        0.0415
     32 C          -4.5537   -2.4351    0.2533 C.ar    1  UNL1        0.0581
     33 N          -3.9320   -2.9553    1.3442 N.ar    1  UNL1       -0.2583
     34 C          -4.6647   -3.2974    2.4185 C.ar    1  UNL1        0.0279
     35 C          -6.0233   -3.1550    2.4912 C.ar    1  UNL1       -0.0433
     36 C          -6.6813   -2.6250    1.3878 C.ar    1  UNL1       -0.0557
     37 C          -5.9207   -2.2773    0.2910 C.ar    1  UNL1       -0.0279
     38 C          -6.5936   -1.7163   -0.8888 C.3     1  UNL1       -0.0380
     39 C          -3.1343   -0.0825    0.2084 C.3     1  UNL1        0.0017
     40 C          -1.6177   -0.1581    0.0751 C.3     1  UNL1       -0.0095
     41 N          -2.2015    3.6522    0.9414 N.ar    1  UNL1       -0.2200
     42 C          -2.7438    4.8865    1.0954 C.ar    1  UNL1        0.1219
     43 N          -2.4706    5.9014    0.2568 N.ar    1  UNL1       -0.2013
     44 H          -1.5057    8.4545   -0.5401 H       1  UNL1        0.0660
     45 H          -1.6026    8.6259   -2.3253 H       1  UNL1        0.0660
     46 H          -2.9916    7.8700   -1.3806 H       1  UNL1        0.0660
     47 H          -0.3989    4.2476   -1.7550 H       1  UNL1        0.0705
     48 H           2.8649    1.0888    1.5174 H       1  UNL1        0.0636
     49 H           4.9492   -0.1419    1.7849 H       1  UNL1        0.0624
     50 H           5.2183   -3.9602   -0.4728 H       1  UNL1        0.0624
     51 H           7.3597   -5.1721   -0.1480 H       1  UNL1        0.0639
     52 H           9.9714   -4.7479    0.8212 H       1  UNL1        0.1889
     53 H           9.5771   -0.7006    1.9145 H       1  UNL1        0.0854
     54 H           6.9265   -0.4340    1.1406 H       1  UNL1        0.0631
     55 H           4.0453   -2.4944   -1.6217 H       1  UNL1        0.0624
     56 H           1.9647   -1.2834   -1.8991 H       1  UNL1        0.0636
     57 H          -1.6927    1.3326   -2.9348 H       1  UNL1        0.0303
     58 H          -2.9447    1.9744   -1.7489 H       1  UNL1        0.0303
     59 H          -3.7445    0.0267   -2.9812 H       1  UNL1        0.0427
     60 H          -2.2953   -0.9408   -2.4886 H       1  UNL1        0.0427
     61 H          -4.3057   -2.4119   -1.8903 H       1  UNL1        0.0491
     62 H          -2.8064   -2.5037   -0.9242 H       1  UNL1        0.0491
     63 H          -4.1209   -3.7082    3.2634 H       1  UNL1        0.0829
     64 H          -6.6240   -3.4261    3.3485 H       1  UNL1        0.0633
     65 H          -7.7635   -2.5059    1.4312 H       1  UNL1        0.0621
     66 H          -6.0470   -0.8582   -1.3338 H       1  UNL1        0.0278
     67 H          -7.5813   -1.3187   -0.5821 H       1  UNL1        0.0278
     68 H          -6.7749   -2.4617   -1.6911 H       1  UNL1        0.0278
     69 H          -3.4704   -0.6395    1.0818 H       1  UNL1        0.0427
     70 H          -3.3811    1.0146    0.2845 H       1  UNL1        0.0427
     71 H          -1.1115    0.0590    1.0195 H       1  UNL1        0.0303
     72 H          -1.3155   -1.1557   -0.3366 H       1  UNL1        0.0303
     73 H          -3.4198    5.0707    1.9174 H       1  UNL1        0.1049
@<TRIPOS>BOND
     1     1     2    1
     2     2     3    1
     3     3     4   ar
     4     4     5   ar
     5     5     6    1
     6     6     7   am
     7     7     8    2
     8     7     9   am
     9     9    10    1
    10    10    11   ar
    11    11    12   ar
    12    12    13   ar
    13    13    14    1
    14    14    15   ar
    15    15    16   ar
    16    16    17   ar
    17    17    18   ar
    18    18    19   ar
    19    19    20   ar
    20    20    21   ar
    21    21    22   ar
    22    13    23   ar
    23    23    24   ar
    24     9    25   am
    25    25    26    2
    26    25    27    1
    27    27    28    1
    28    28    29    1
    29    29    30    1
    30    30    31    1
    31    31    32    1
    32    32    33   ar
    33    33    34   ar
    34    34    35   ar
    35    35    36   ar
    36    36    37   ar
    37    37    38    1
    38    30    39    1
    39    39    40    1
    40     5    41   ar
    41    41    42   ar
    42    42    43   ar
    43    43     3   ar
    44    27     6    1
    45    37    32   ar
    46    24    10   ar
    47    40    27    1
    48    22    14   ar
    49    21    17   ar
    50     1    44    1
    51     1    45    1
    52     1    46    1
    53     4    47    1
    54    11    48    1
    55    12    49    1
    56    15    50    1
    57    16    51    1
    58    18    52    1
    59    20    53    1
    60    22    54    1
    61    23    55    1
    62    24    56    1
    63    28    57    1
    64    28    58    1
    65    29    59    1
    66    29    60    1
    67    31    61    1
    68    31    62    1
    69    34    63    1
    70    35    64    1
    71    36    65    1
    72    38    66    1
    73    38    67    1
    74    38    68    1
    75    39    69    1
    76    39    70    1
    77    40    71    1
    78    40    72    1
    79    42    73    1
