@<TRIPOS>MOLECULE
*****
 54 56 0 0 0
SMALL
GASTEIGER

@<TRIPOS>ATOM
      1 C          -3.6976   -1.2818    2.7045 C.3     1  UNL1       -0.0635
      2 C          -2.5486   -1.2200    1.7056 C.3     1  UNL1       -0.0350
      3 C          -3.0905   -0.6848    0.4206 C.3     1  UNL1        0.0487
      4 N          -2.1516   -0.5490   -0.6384 N.pl3   1  UNL1       -0.3081
      5 C          -0.9221    0.1995   -0.5152 C.ar    1  UNL1        0.2192
      6 N           0.2485   -0.4697   -0.4313 N.ar    1  UNL1       -0.1974
      7 C           1.4387    0.1303   -0.3002 C.ar    1  UNL1        0.1519
      8 N           2.6605   -0.6095   -0.2181 N.pl3   1  UNL1       -0.3230
      9 C           2.5903   -2.0526   -0.2784 C.3     1  UNL1        0.0372
     10 C           3.9387   -2.6357   -0.1740 C.ar    1  UNL1       -0.0123
     11 C           4.5229   -2.9548    1.0232 C.ar    1  UNL1       -0.0542
     12 C           5.7715   -3.5071    1.0773 C.ar    1  UNL1       -0.0433
     13 C           6.4530   -3.7455   -0.1075 C.ar    1  UNL1        0.0276
     14 N           5.8692   -3.4273   -1.2742 N.ar    1  UNL1       -0.2629
     15 C           4.6502   -2.8881   -1.3304 C.ar    1  UNL1        0.0322
     16 C           1.4481    1.5072   -0.2491 C.ar    1  UNL1        0.1476
     17 N           2.4147    2.4427   -0.1226 N.ar    1  UNL1       -0.2306
     18 C           1.8434    3.6605   -0.1288 C.ar    1  UNL1        0.0985
     19 N           0.5106    3.5550   -0.2571 N.ar    1  UNL1       -0.3123
     20 C          -0.4647    4.6397   -0.2955 C.3     1  UNL1        0.0317
     21 C           0.0655    5.7818   -1.1125 C.3     1  UNL1       -0.0444
     22 C          -1.7956    4.1612   -0.7675 C.3     1  UNL1       -0.0444
     23 C           0.2657    2.2321   -0.3317 C.ar    1  UNL1        0.1674
     24 N          -0.8832    1.5403   -0.4634 N.ar    1  UNL1       -0.1947
     25 C          -4.2374   -1.5704   -0.0776 C.3     1  UNL1        0.0707
     26 C          -3.6731   -2.9319   -0.4909 C.3     1  UNL1       -0.0372
     27 O          -4.8516   -0.9955   -1.1840 O.3     1  UNL1       -0.3902
     28 H          -3.4090   -0.8448    3.6854 H       1  UNL1        0.0230
     29 H          -4.0351   -2.3151    2.8993 H       1  UNL1        0.0230
     30 H          -4.5926   -0.6985    2.3517 H       1  UNL1        0.0230
     31 H          -2.1161   -2.2237    1.6085 H       1  UNL1        0.0281
     32 H          -1.8310   -0.4777    2.1177 H       1  UNL1        0.0281
     33 H          -3.5460    0.3213    0.6186 H       1  UNL1        0.0523
     34 H          -2.3427   -1.0042   -1.5516 H       1  UNL1        0.1493
     35 H           3.5912   -0.1652   -0.1181 H       1  UNL1        0.1479
     36 H           2.0656   -2.3982   -1.1996 H       1  UNL1        0.0512
     37 H           2.0086   -2.3726    0.6260 H       1  UNL1        0.0512
     38 H           3.9882   -2.7664    1.9311 H       1  UNL1        0.0622
     39 H           6.2846   -3.7814    1.9933 H       1  UNL1        0.0633
     40 H           7.4350   -4.1807   -0.0572 H       1  UNL1        0.0829
     41 H           4.2166   -2.6503   -2.2712 H       1  UNL1        0.0833
     42 H           2.3946    4.5850   -0.0413 H       1  UNL1        0.1029
     43 H          -0.6136    5.0646    0.7464 H       1  UNL1        0.0523
     44 H           0.8386    6.3761   -0.5423 H       1  UNL1        0.0249
     45 H          -0.7845    6.4664   -1.3347 H       1  UNL1        0.0249
     46 H           0.5384    5.4912   -2.0597 H       1  UNL1        0.0249
     47 H          -1.7437    3.5081   -1.6474 H       1  UNL1        0.0249
     48 H          -2.2647    3.6039    0.0988 H       1  UNL1        0.0249
     49 H          -2.4521    5.0420   -0.9187 H       1  UNL1        0.0249
     50 H          -4.9919   -1.7634    0.7007 H       1  UNL1        0.0609
     51 H          -2.5824   -2.9532   -0.2457 H       1  UNL1        0.0255
     52 H          -4.1441   -3.7669    0.0569 H       1  UNL1        0.0255
     53 H          -3.7934   -3.0763   -1.5819 H       1  UNL1        0.0255
     54 H          -4.4942   -1.3466   -2.0475 H       1  UNL1        0.2098
@<TRIPOS>BOND
     1     1     2    1
     2     2     3    1
     3     3     4    1
     4     4     5    1
     5     5     6   ar
     6     6     7   ar
     7     7     8    1
     8     8     9    1
     9     9    10    1
    10    10    11   ar
    11    11    12   ar
    12    12    13   ar
    13    13    14   ar
    14    14    15   ar
    15     7    16   ar
    16    16    17   ar
    17    17    18   ar
    18    18    19   ar
    19    19    20    1
    20    20    21    1
    21    20    22    1
    22    19    23   ar
    23    23    24   ar
    24     3    25    1
    25    25    26    1
    26    25    27    1
    27    24     5   ar
    28    15    10   ar
    29    23    16   ar
    30     1    28    1
    31     1    29    1
    32     1    30    1
    33     2    31    1
    34     2    32    1
    35     3    33    1
    36     4    34    1
    37     8    35    1
    38     9    36    1
    39     9    37    1
    40    11    38    1
    41    12    39    1
    42    13    40    1
    43    15    41    1
    44    18    42    1
    45    20    43    1
    46    21    44    1
    47    21    45    1
    48    21    46    1
    49    22    47    1
    50    22    48    1
    51    22    49    1
    52    25    50    1
    53    26    51    1
    54    26    52    1
    55    26    53    1
    56    27    54    1
