
     RDKit          3D

 54 56  0  0  0  0  0  0  0  0999 V2000
   -3.6976   -1.2818    2.7045 C   0  0  0  0  0  0  0  0  0  0  0  0
   -2.5486   -1.2200    1.7056 C   0  0  0  0  0  0  0  0  0  0  0  0
   -3.0905   -0.6848    0.4206 C   0  0  1  0  0  0  0  0  0  0  0  0
   -2.1516   -0.5490   -0.6384 N   0  0  0  0  0  0  0  0  0  0  0  0
   -0.9221    0.1995   -0.5152 C   0  0  0  0  0  0  0  0  0  0  0  0
    0.2485   -0.4697   -0.4313 N   0  0  0  0  0  0  0  0  0  0  0  0
    1.4387    0.1303   -0.3002 C   0  0  0  0  0  0  0  0  0  0  0  0
    2.6605   -0.6095   -0.2181 N   0  0  0  0  0  0  0  0  0  0  0  0
    2.5903   -2.0526   -0.2784 C   0  0  0  0  0  0  0  0  0  0  0  0
    3.9387   -2.6357   -0.1740 C   0  0  0  0  0  0  0  0  0  0  0  0
    4.5229   -2.9548    1.0232 C   0  0  0  0  0  0  0  0  0  0  0  0
    5.7715   -3.5071    1.0773 C   0  0  0  0  0  0  0  0  0  0  0  0
    6.4530   -3.7455   -0.1075 C   0  0  0  0  0  0  0  0  0  0  0  0
    5.8692   -3.4273   -1.2742 N   0  0  0  0  0  0  0  0  0  0  0  0
    4.6502   -2.8881   -1.3304 C   0  0  0  0  0  0  0  0  0  0  0  0
    1.4481    1.5072   -0.2491 C   0  0  0  0  0  0  0  0  0  0  0  0
    2.4147    2.4427   -0.1226 N   0  0  0  0  0  0  0  0  0  0  0  0
    1.8434    3.6605   -0.1288 C   0  0  0  0  0  0  0  0  0  0  0  0
    0.5106    3.5550   -0.2571 N   0  0  0  0  0  0  0  0  0  0  0  0
   -0.4647    4.6397   -0.2955 C   0  0  0  0  0  0  0  0  0  0  0  0
    0.0655    5.7818   -1.1125 C   0  0  0  0  0  0  0  0  0  0  0  0
   -1.7956    4.1612   -0.7675 C   0  0  0  0  0  0  0  0  0  0  0  0
    0.2657    2.2321   -0.3317 C   0  0  0  0  0  0  0  0  0  0  0  0
   -0.8832    1.5403   -0.4634 N   0  0  0  0  0  0  0  0  0  0  0  0
   -4.2374   -1.5704   -0.0776 C   0  0  2  0  0  0  0  0  0  0  0  0
   -3.6731   -2.9319   -0.4909 C   0  0  0  0  0  0  0  0  0  0  0  0
   -4.8516   -0.9955   -1.1840 O   0  0  0  0  0  0  0  0  0  0  0  0
   -3.4090   -0.8448    3.6854 H   0  0  0  0  0  0  0  0  0  0  0  0
   -4.0351   -2.3151    2.8993 H   0  0  0  0  0  0  0  0  0  0  0  0
   -4.5926   -0.6985    2.3517 H   0  0  0  0  0  0  0  0  0  0  0  0
   -2.1161   -2.2237    1.6085 H   0  0  0  0  0  0  0  0  0  0  0  0
   -1.8310   -0.4777    2.1177 H   0  0  0  0  0  0  0  0  0  0  0  0
   -3.5460    0.3213    0.6186 H   0  0  0  0  0  0  0  0  0  0  0  0
   -2.3427   -1.0042   -1.5516 H   0  0  0  0  0  0  0  0  0  0  0  0
    3.5912   -0.1652   -0.1181 H   0  0  0  0  0  0  0  0  0  0  0  0
    2.0656   -2.3982   -1.1996 H   0  0  0  0  0  0  0  0  0  0  0  0
    2.0086   -2.3726    0.6260 H   0  0  0  0  0  0  0  0  0  0  0  0
    3.9882   -2.7664    1.9311 H   0  0  0  0  0  0  0  0  0  0  0  0
    6.2846   -3.7814    1.9933 H   0  0  0  0  0  0  0  0  0  0  0  0
    7.4350   -4.1807   -0.0572 H   0  0  0  0  0  0  0  0  0  0  0  0
    4.2166   -2.6503   -2.2712 H   0  0  0  0  0  0  0  0  0  0  0  0
    2.3946    4.5850   -0.0413 H   0  0  0  0  0  0  0  0  0  0  0  0
   -0.6136    5.0646    0.7464 H   0  0  0  0  0  0  0  0  0  0  0  0
    0.8386    6.3761   -0.5423 H   0  0  0  0  0  0  0  0  0  0  0  0
   -0.7845    6.4664   -1.3347 H   0  0  0  0  0  0  0  0  0  0  0  0
    0.5384    5.4912   -2.0597 H   0  0  0  0  0  0  0  0  0  0  0  0
   -1.7437    3.5081   -1.6474 H   0  0  0  0  0  0  0  0  0  0  0  0
   -2.2647    3.6039    0.0988 H   0  0  0  0  0  0  0  0  0  0  0  0
   -2.4521    5.0420   -0.9187 H   0  0  0  0  0  0  0  0  0  0  0  0
   -4.9919   -1.7634    0.7007 H   0  0  0  0  0  0  0  0  0  0  0  0
   -2.5824   -2.9532   -0.2457 H   0  0  0  0  0  0  0  0  0  0  0  0
   -4.1441   -3.7669    0.0569 H   0  0  0  0  0  0  0  0  0  0  0  0
   -3.7934   -3.0763   -1.5819 H   0  0  0  0  0  0  0  0  0  0  0  0
   -4.4942   -1.3466   -2.0475 H   0  0  0  0  0  0  0  0  0  0  0  0
  1  2  1  0
  2  3  1  0
  3  4  1  0
  4  5  1  0
  5  6  2  0
  6  7  1  0
  7  8  1  0
  8  9  1  0
  9 10  1  0
 10 11  2  0
 11 12  1  0
 12 13  2  0
 13 14  1  0
 14 15  2  0
  7 16  2  0
 16 17  1  0
 17 18  2  0
 18 19  1  0
 19 20  1  0
 20 21  1  0
 20 22  1  0
 19 23  1  0
 23 24  2  0
  3 25  1  0
 25 26  1  0
 25 27  1  0
 24  5  1  0
 15 10  1  0
 23 16  1  0
  1 28  1  0
  1 29  1  0
  1 30  1  0
  2 31  1  0
  2 32  1  0
  3 33  1  1
  4 34  1  0
  8 35  1  0
  9 36  1  0
  9 37  1  0
 11 38  1  0
 12 39  1  0
 13 40  1  0
 15 41  1  0
 18 42  1  0
 20 43  1  0
 21 44  1  0
 21 45  1  0
 21 46  1  0
 22 47  1  0
 22 48  1  0
 22 49  1  0
 25 50  1  1
 26 51  1  0
 26 52  1  0
 26 53  1  0
 27 54  1  0
M  END
$$$$
