@<TRIPOS>MOLECULE
*****
 75 76 0 0 0
SMALL
GASTEIGER

@<TRIPOS>ATOM
      1 C          -2.8183    5.1322   -0.0790 C.3     1  UNL1       -0.0605
      2 C          -2.4534    4.4842   -1.3942 C.3     1  UNL1       -0.0197
      3 C          -3.6279    4.4536   -2.3499 C.3     1  UNL1       -0.0605
      4 C          -1.7862    3.1892   -1.2729 C.3     1  UNL1        0.1017
      5 N          -0.5125    3.3802   -0.5013 N.am    1  UNL1       -0.3035
      6 C           0.4945    2.4343   -0.5859 C.2     1  UNL1        0.2182
      7 O           0.1123    1.5156   -1.4220 O.2     1  UNL1       -0.2754
      8 C           1.8248    2.1793   -0.0170 C.3     1  UNL1        0.0514
      9 C           2.0196    2.4679    1.4277 C.3     1  UNL1       -0.0524
     10 C           2.0608    0.6496   -0.1456 C.3     1  UNL1        0.0374
     11 C           3.3129    0.3213    0.5939 C.3     1  UNL1       -0.0155
     12 C           3.6539   -1.1149    0.5411 C.2     1  UNL1       -0.0862
     13 C           4.7436   -1.5774    0.0356 C.2     1  UNL1       -0.0874
     14 C           5.8280   -0.8043   -0.5677 C.3     1  UNL1       -0.0247
     15 C           7.1603   -1.0171    0.1389 C.3     1  UNL1        0.0482
     16 C           7.1047   -0.6213    1.5643 C.2     1  UNL1        0.3050
     17 O           6.0853   -0.1645    2.1327 O.2     1  UNL1       -0.2510
     18 O           8.2351   -0.7417    2.3857 O.3     1  UNL1       -0.4806
     19 N           0.8670   -0.0684    0.3261 N.am    1  UNL1       -0.3099
     20 C           0.3238   -1.1441   -0.3229 C.2     1  UNL1        0.2339
     21 O           1.1737   -1.5100   -1.2589 O.2     1  UNL1       -0.2738
     22 C          -0.8555   -2.0320   -0.3350 C.3     1  UNL1        0.1033
     23 C          -0.4941   -3.4160   -0.0041 C.3     1  UNL1       -0.0007
     24 C          -1.6581   -4.3698    0.0036 C.ar    1  UNL1       -0.0451
     25 C          -2.0432   -5.0050   -1.1734 C.ar    1  UNL1       -0.0585
     26 C          -3.0954   -5.8927   -1.2207 C.ar    1  UNL1       -0.0615
     27 C          -3.8041   -6.1755   -0.0742 C.ar    1  UNL1       -0.0617
     28 C          -3.4317   -5.5528    1.0966 C.ar    1  UNL1       -0.0615
     29 C          -2.3771   -4.6648    1.1377 C.ar    1  UNL1       -0.0585
     30 N          -2.0005   -1.4965    0.4574 N.am    1  UNL1       -0.3022
     31 C          -2.7925   -0.4921   -0.0484 C.2     1  UNL1        0.2337
     32 O          -2.3015   -0.2459   -1.2645 O.2     1  UNL1       -0.2738
     33 C          -3.9579    0.3705    0.3052 C.3     1  UNL1        0.0966
     34 C          -4.1324    0.7922    1.6805 C.3     1  UNL1       -0.0381
     35 N          -3.8440    1.5675   -0.6397 N.am    1  UNL1       -0.3027
     36 C          -2.6028    2.1714   -0.5991 C.2     1  UNL1        0.2342
     37 O          -1.9436    1.6482    0.3939 O.2     1  UNL1       -0.2738
     38 H          -3.6180    5.8762   -0.3013 H       1  UNL1        0.0233
     39 H          -3.2061    4.4001    0.6506 H       1  UNL1        0.0233
     40 H          -1.9580    5.7254    0.3180 H       1  UNL1        0.0233
     41 H          -1.7236    5.2085   -1.8749 H       1  UNL1        0.0318
     42 H          -4.5330    4.0570   -1.8398 H       1  UNL1        0.0233
     43 H          -3.7866    5.4000   -2.8738 H       1  UNL1        0.0233
     44 H          -3.3763    3.6941   -3.1321 H       1  UNL1        0.0233
     45 H          -1.4644    2.8413   -2.2886 H       1  UNL1        0.0597
     46 H          -0.5363    4.2284    0.0117 H       1  UNL1        0.1495
     47 H           2.6227    2.6939   -0.5967 H       1  UNL1        0.0410
     48 H           1.6007    3.5154    1.5869 H       1  UNL1        0.0238
     49 H           3.1159    2.6227    1.5985 H       1  UNL1        0.0238
     50 H           1.5561    1.7459    2.0744 H       1  UNL1        0.0238
     51 H           2.2536    0.4654   -1.2159 H       1  UNL1        0.0508
     52 H           3.1691    0.6102    1.6934 H       1  UNL1        0.0325
     53 H           4.1601    0.9211    0.2636 H       1  UNL1        0.0325
     54 H           2.9364   -1.8507    0.9588 H       1  UNL1        0.0570
     55 H           4.9069   -2.6818    0.0438 H       1  UNL1        0.0569
     56 H           5.6879    0.2797   -0.6269 H       1  UNL1        0.0312
     57 H           5.9603   -1.1374   -1.6426 H       1  UNL1        0.0312
     58 H           7.9062   -0.3673   -0.3537 H       1  UNL1        0.0380
     59 H           7.5124   -2.0603    0.0438 H       1  UNL1        0.0380
     60 H           8.3752   -0.0856    3.1315 H       1  UNL1        0.2951
     61 H           0.5714    0.3573    1.1836 H       1  UNL1        0.1491
     62 H          -1.1613   -2.0088   -1.4368 H       1  UNL1        0.0598
     63 H           0.0347   -3.5499    0.9586 H       1  UNL1        0.0336
     64 H           0.2009   -3.8671   -0.7732 H       1  UNL1        0.0336
     65 H          -1.5039   -4.8032   -2.0955 H       1  UNL1        0.0620
     66 H          -3.3810   -6.3802   -2.1546 H       1  UNL1        0.0618
     67 H          -4.6481   -6.8744   -0.0635 H       1  UNL1        0.0618
     68 H          -4.0059   -5.7875    2.0043 H       1  UNL1        0.0618
     69 H          -2.1212   -4.2065    2.0835 H       1  UNL1        0.0620
     70 H          -2.0644   -1.9684    1.3231 H       1  UNL1        0.1495
     71 H          -4.8301   -0.1865   -0.0763 H       1  UNL1        0.0592
     72 H          -4.1404    1.9175    1.7586 H       1  UNL1        0.0252
     73 H          -5.0595    0.4178    2.1587 H       1  UNL1        0.0252
     74 H          -3.2303    0.4899    2.2888 H       1  UNL1        0.0252
     75 H          -4.6895    1.6975   -1.1085 H       1  UNL1        0.1495
@<TRIPOS>BOND
     1     1     2    1
     2     2     3    1
     3     2     4    1
     4     4     5    1
     5     5     6   am
     6     6     7    2
     7     6     8    1
     8     8     9    1
     9     8    10    1
    10    10    11    1
    11    11    12    1
    12    12    13    2
    13    13    14    1
    14    14    15    1
    15    15    16    1
    16    16    17    2
    17    16    18    1
    18    10    19    1
    19    19    20   am
    20    20    21    2
    21    20    22    1
    22    22    23    1
    23    23    24    1
    24    24    25   ar
    25    25    26   ar
    26    26    27   ar
    27    27    28   ar
    28    28    29   ar
    29    22    30    1
    30    30    31   am
    31    31    32    2
    32    31    33    1
    33    33    34    1
    34    33    35    1
    35    35    36   am
    36    36    37    2
    37    36     4    1
    38    29    24   ar
    39     1    38    1
    40     1    39    1
    41     1    40    1
    42     2    41    1
    43     3    42    1
    44     3    43    1
    45     3    44    1
    46     4    45    1
    47     5    46    1
    48     8    47    1
    49     9    48    1
    50     9    49    1
    51     9    50    1
    52    10    51    1
    53    11    52    1
    54    11    53    1
    55    12    54    1
    56    13    55    1
    57    14    56    1
    58    14    57    1
    59    15    58    1
    60    15    59    1
    61    18    60    1
    62    19    61    1
    63    22    62    1
    64    23    63    1
    65    23    64    1
    66    25    65    1
    67    26    66    1
    68    27    67    1
    69    28    68    1
    70    29    69    1
    71    30    70    1
    72    33    71    1
    73    34    72    1
    74    34    73    1
    75    34    74    1
    76    35    75    1
