
     RDKit          3D

 75 76  0  0  0  0  0  0  0  0999 V2000
   -2.8183    5.1322   -0.0790 C   0  0  0  0  0  0  0  0  0  0  0  0
   -2.4534    4.4842   -1.3942 C   0  0  0  0  0  0  0  0  0  0  0  0
   -3.6279    4.4536   -2.3499 C   0  0  0  0  0  0  0  0  0  0  0  0
   -1.7862    3.1892   -1.2729 C   0  0  1  0  0  0  0  0  0  0  0  0
   -0.5125    3.3802   -0.5013 N   0  0  0  0  0  0  0  0  0  0  0  0
    0.4945    2.4343   -0.5859 C   0  0  0  0  0  0  0  0  0  0  0  0
    0.1123    1.5156   -1.4220 O   0  0  0  0  0  0  0  0  0  0  0  0
    1.8248    2.1793   -0.0170 C   0  0  1  0  0  0  0  0  0  0  0  0
    2.0196    2.4679    1.4277 C   0  0  0  0  0  0  0  0  0  0  0  0
    2.0608    0.6496   -0.1456 C   0  0  1  0  0  0  0  0  0  0  0  0
    3.3129    0.3213    0.5939 C   0  0  0  0  0  0  0  0  0  0  0  0
    3.6539   -1.1149    0.5411 C   0  0  0  0  0  0  0  0  0  0  0  0
    4.7436   -1.5774    0.0356 C   0  0  0  0  0  0  0  0  0  0  0  0
    5.8280   -0.8043   -0.5677 C   0  0  0  0  0  0  0  0  0  0  0  0
    7.1603   -1.0171    0.1389 C   0  0  0  0  0  0  0  0  0  0  0  0
    7.1047   -0.6213    1.5643 C   0  0  0  0  0  0  0  0  0  0  0  0
    6.0853   -0.1645    2.1327 O   0  0  0  0  0  0  0  0  0  0  0  0
    8.2351   -0.7417    2.3857 O   0  0  0  0  0  0  0  0  0  0  0  0
    0.8670   -0.0684    0.3261 N   0  0  0  0  0  0  0  0  0  0  0  0
    0.3238   -1.1441   -0.3229 C   0  0  0  0  0  0  0  0  0  0  0  0
    1.1737   -1.5100   -1.2589 O   0  0  0  0  0  0  0  0  0  0  0  0
   -0.8555   -2.0320   -0.3350 C   0  0  1  0  0  0  0  0  0  0  0  0
   -0.4941   -3.4160   -0.0041 C   0  0  0  0  0  0  0  0  0  0  0  0
   -1.6581   -4.3698    0.0036 C   0  0  0  0  0  0  0  0  0  0  0  0
   -2.0432   -5.0050   -1.1734 C   0  0  0  0  0  0  0  0  0  0  0  0
   -3.0954   -5.8927   -1.2207 C   0  0  0  0  0  0  0  0  0  0  0  0
   -3.8041   -6.1755   -0.0742 C   0  0  0  0  0  0  0  0  0  0  0  0
   -3.4317   -5.5528    1.0966 C   0  0  0  0  0  0  0  0  0  0  0  0
   -2.3771   -4.6648    1.1377 C   0  0  0  0  0  0  0  0  0  0  0  0
   -2.0005   -1.4965    0.4574 N   0  0  0  0  0  0  0  0  0  0  0  0
   -2.7925   -0.4921   -0.0484 C   0  0  0  0  0  0  0  0  0  0  0  0
   -2.3015   -0.2459   -1.2645 O   0  0  0  0  0  0  0  0  0  0  0  0
   -3.9579    0.3705    0.3052 C   0  0  1  0  0  0  0  0  0  0  0  0
   -4.1324    0.7922    1.6805 C   0  0  0  0  0  0  0  0  0  0  0  0
   -3.8440    1.5675   -0.6397 N   0  0  0  0  0  0  0  0  0  0  0  0
   -2.6028    2.1714   -0.5991 C   0  0  0  0  0  0  0  0  0  0  0  0
   -1.9436    1.6482    0.3939 O   0  0  0  0  0  0  0  0  0  0  0  0
   -3.6180    5.8762   -0.3013 H   0  0  0  0  0  0  0  0  0  0  0  0
   -3.2061    4.4001    0.6506 H   0  0  0  0  0  0  0  0  0  0  0  0
   -1.9580    5.7254    0.3180 H   0  0  0  0  0  0  0  0  0  0  0  0
   -1.7236    5.2085   -1.8749 H   0  0  0  0  0  0  0  0  0  0  0  0
   -4.5330    4.0570   -1.8398 H   0  0  0  0  0  0  0  0  0  0  0  0
   -3.7866    5.4000   -2.8738 H   0  0  0  0  0  0  0  0  0  0  0  0
   -3.3763    3.6941   -3.1321 H   0  0  0  0  0  0  0  0  0  0  0  0
   -1.4644    2.8413   -2.2886 H   0  0  0  0  0  0  0  0  0  0  0  0
   -0.5363    4.2284    0.0117 H   0  0  0  0  0  0  0  0  0  0  0  0
    2.6227    2.6939   -0.5967 H   0  0  0  0  0  0  0  0  0  0  0  0
    1.6007    3.5154    1.5869 H   0  0  0  0  0  0  0  0  0  0  0  0
    3.1159    2.6227    1.5985 H   0  0  0  0  0  0  0  0  0  0  0  0
    1.5561    1.7459    2.0744 H   0  0  0  0  0  0  0  0  0  0  0  0
    2.2536    0.4654   -1.2159 H   0  0  0  0  0  0  0  0  0  0  0  0
    3.1691    0.6102    1.6934 H   0  0  0  0  0  0  0  0  0  0  0  0
    4.1601    0.9211    0.2636 H   0  0  0  0  0  0  0  0  0  0  0  0
    2.9364   -1.8507    0.9588 H   0  0  0  0  0  0  0  0  0  0  0  0
    4.9069   -2.6818    0.0438 H   0  0  0  0  0  0  0  0  0  0  0  0
    5.6879    0.2797   -0.6269 H   0  0  0  0  0  0  0  0  0  0  0  0
    5.9603   -1.1374   -1.6426 H   0  0  0  0  0  0  0  0  0  0  0  0
    7.9062   -0.3673   -0.3537 H   0  0  0  0  0  0  0  0  0  0  0  0
    7.5124   -2.0603    0.0438 H   0  0  0  0  0  0  0  0  0  0  0  0
    8.3752   -0.0856    3.1315 H   0  0  0  0  0  0  0  0  0  0  0  0
    0.5714    0.3573    1.1836 H   0  0  0  0  0  0  0  0  0  0  0  0
   -1.1613   -2.0088   -1.4368 H   0  0  0  0  0  0  0  0  0  0  0  0
    0.0347   -3.5499    0.9586 H   0  0  0  0  0  0  0  0  0  0  0  0
    0.2009   -3.8671   -0.7732 H   0  0  0  0  0  0  0  0  0  0  0  0
   -1.5039   -4.8032   -2.0955 H   0  0  0  0  0  0  0  0  0  0  0  0
   -3.3810   -6.3802   -2.1546 H   0  0  0  0  0  0  0  0  0  0  0  0
   -4.6481   -6.8744   -0.0635 H   0  0  0  0  0  0  0  0  0  0  0  0
   -4.0059   -5.7875    2.0043 H   0  0  0  0  0  0  0  0  0  0  0  0
   -2.1212   -4.2065    2.0835 H   0  0  0  0  0  0  0  0  0  0  0  0
   -2.0644   -1.9684    1.3231 H   0  0  0  0  0  0  0  0  0  0  0  0
   -4.8301   -0.1865   -0.0763 H   0  0  0  0  0  0  0  0  0  0  0  0
   -4.1404    1.9175    1.7586 H   0  0  0  0  0  0  0  0  0  0  0  0
   -5.0595    0.4178    2.1587 H   0  0  0  0  0  0  0  0  0  0  0  0
   -3.2303    0.4899    2.2888 H   0  0  0  0  0  0  0  0  0  0  0  0
   -4.6895    1.6975   -1.1085 H   0  0  0  0  0  0  0  0  0  0  0  0
  1  2  1  0
  2  3  1  0
  2  4  1  0
  4  5  1  0
  5  6  1  0
  6  7  2  0
  6  8  1  0
  8  9  1  0
  8 10  1  0
 10 11  1  0
 11 12  1  0
 12 13  2  3
 13 14  1  0
 14 15  1  0
 15 16  1  0
 16 17  2  0
 16 18  1  0
 10 19  1  0
 19 20  1  0
 20 21  2  0
 20 22  1  0
 22 23  1  0
 23 24  1  0
 24 25  2  0
 25 26  1  0
 26 27  2  0
 27 28  1  0
 28 29  2  0
 22 30  1  0
 30 31  1  0
 31 32  2  0
 31 33  1  0
 33 34  1  0
 33 35  1  0
 35 36  1  0
 36 37  2  0
 36  4  1  0
 29 24  1  0
  1 38  1  0
  1 39  1  0
  1 40  1  0
  2 41  1  0
  3 42  1  0
  3 43  1  0
  3 44  1  0
  4 45  1  6
  5 46  1  0
  8 47  1  6
  9 48  1  0
  9 49  1  0
  9 50  1  0
 10 51  1  6
 11 52  1  0
 11 53  1  0
 12 54  1  0
 13 55  1  0
 14 56  1  0
 14 57  1  0
 15 58  1  0
 15 59  1  0
 18 60  1  0
 19 61  1  0
 22 62  1  6
 23 63  1  0
 23 64  1  0
 25 65  1  0
 26 66  1  0
 27 67  1  0
 28 68  1  0
 29 69  1  0
 30 70  1  0
 33 71  1  6
 34 72  1  0
 34 73  1  0
 34 74  1  0
 35 75  1  0
M  END
$$$$
