@<TRIPOS>MOLECULE
*****
 41 45 0 0 0
SMALL
GASTEIGER

@<TRIPOS>ATOM
      1 O           3.6169   -1.0730   -1.6969 O.2     1  UNL1       -0.2849
      2 C           3.0769   -0.4250   -0.6565 C.2     1  UNL1        0.2149
      3 C           4.0060    0.3454    0.0550 C.ar    1  UNL1        0.0239
      4 C           5.3701    0.0460   -0.1118 C.ar    1  UNL1       -0.0509
      5 C           6.3392    0.7405    0.5700 C.ar    1  UNL1       -0.0611
      6 C           6.0112    1.7378    1.4254 C.ar    1  UNL1       -0.0617
      7 C           4.7029    2.0545    1.6118 C.ar    1  UNL1       -0.0611
      8 C           3.7102    1.3514    0.9222 C.ar    1  UNL1       -0.0509
      9 C           1.6550   -0.7013   -0.5292 C.ar    1  UNL1        0.1561
     10 N           1.2515   -2.0056   -0.7449 N.ar    1  UNL1       -0.2382
     11 C          -0.0427   -2.3417   -0.7112 C.ar    1  UNL1        0.0886
     12 C          -0.4229   -3.6676   -0.9333 C.ar    1  UNL1       -0.0343
     13 C          -1.7311   -4.0758   -0.9139 C.ar    1  UNL1       -0.0596
     14 C          -2.6819   -3.1261   -0.6644 C.ar    1  UNL1       -0.0597
     15 C          -2.3735   -1.7786   -0.4325 C.ar    1  UNL1       -0.0357
     16 C          -1.0461   -1.4313   -0.4650 C.ar    1  UNL1        0.0754
     17 N          -0.6851   -0.1609   -0.2545 N.ar    1  UNL1       -0.2718
     18 C          -1.4320    0.8996   -0.0287 C.ar    1  UNL1        0.1691
     19 C          -2.8323    1.1922    0.1212 C.ar    1  UNL1        0.0196
     20 C          -3.5128    1.1732    1.3142 C.ar    1  UNL1       -0.0510
     21 C          -4.8396    1.5065    1.3563 C.ar    1  UNL1       -0.0611
     22 C          -5.5582    1.8736    0.2316 C.ar    1  UNL1       -0.0617
     23 C          -4.9025    1.8983   -0.9591 C.ar    1  UNL1       -0.0611
     24 C          -3.5693    1.5648   -1.0127 C.ar    1  UNL1       -0.0510
     25 N          -0.5395    1.9454    0.0798 N.ar    1  UNL1       -0.1284
     26 N           0.6707    1.4926   -0.0783 N.ar    1  UNL1       -0.1267
     27 C           0.6413    0.1786   -0.2895 C.ar    1  UNL1        0.1913
     28 H           5.7208   -0.7400   -0.7732 H       1  UNL1        0.0625
     29 H           7.4003    0.4837    0.4232 H       1  UNL1        0.0618
     30 H           6.8125    2.2773    1.9587 H       1  UNL1        0.0618
     31 H           4.4065    2.8364    2.2773 H       1  UNL1        0.0618
     32 H           2.7160    1.6764    1.1662 H       1  UNL1        0.0625
     33 H           0.3640   -4.3909   -1.1280 H       1  UNL1        0.0639
     34 H          -1.9889   -5.1235   -1.0936 H       1  UNL1        0.0618
     35 H          -3.7464   -3.4081   -0.6402 H       1  UNL1        0.0618
     36 H          -3.1833   -1.1047   -0.2461 H       1  UNL1        0.0639
     37 H          -2.9970    0.8926    2.2148 H       1  UNL1        0.0625
     38 H          -5.3793    1.4934    2.2946 H       1  UNL1        0.0618
     39 H          -6.5992    2.1392    0.2566 H       1  UNL1        0.0618
     40 H          -5.3694    2.1739   -1.9098 H       1  UNL1        0.0618
     41 H          -3.0388    1.5810   -1.9586 H       1  UNL1        0.0625
@<TRIPOS>BOND
     1     1     2    2
     2     2     3    1
     3     3     4   ar
     4     4     5   ar
     5     5     6   ar
     6     6     7   ar
     7     7     8   ar
     8     2     9    1
     9     9    10   ar
    10    10    11   ar
    11    11    12   ar
    12    12    13   ar
    13    13    14   ar
    14    14    15   ar
    15    15    16   ar
    16    16    17   ar
    17    17    18   ar
    18    18    19    1
    19    19    20   ar
    20    20    21   ar
    21    21    22   ar
    22    22    23   ar
    23    23    24   ar
    24    18    25   ar
    25    25    26   ar
    26    26    27   ar
    27     8     3   ar
    28    27     9   ar
    29    16    11   ar
    30    27    17   ar
    31    24    19   ar
    32     4    28    1
    33     5    29    1
    34     6    30    1
    35     7    31    1
    36     8    32    1
    37    12    33    1
    38    13    34    1
    39    14    35    1
    40    15    36    1
    41    20    37    1
    42    21    38    1
    43    22    39    1
    44    23    40    1
    45    24    41    1
