
     RDKit          3D

 41 45  0  0  0  0  0  0  0  0999 V2000
    3.6169   -1.0730   -1.6969 O   0  0  0  0  0  0  0  0  0  0  0  0
    3.0769   -0.4250   -0.6565 C   0  0  0  0  0  0  0  0  0  0  0  0
    4.0060    0.3454    0.0550 C   0  0  0  0  0  0  0  0  0  0  0  0
    5.3701    0.0460   -0.1118 C   0  0  0  0  0  0  0  0  0  0  0  0
    6.3392    0.7405    0.5700 C   0  0  0  0  0  0  0  0  0  0  0  0
    6.0112    1.7378    1.4254 C   0  0  0  0  0  0  0  0  0  0  0  0
    4.7029    2.0545    1.6118 C   0  0  0  0  0  0  0  0  0  0  0  0
    3.7102    1.3514    0.9222 C   0  0  0  0  0  0  0  0  0  0  0  0
    1.6550   -0.7013   -0.5292 C   0  0  0  0  0  0  0  0  0  0  0  0
    1.2515   -2.0056   -0.7449 N   0  0  0  0  0  0  0  0  0  0  0  0
   -0.0427   -2.3417   -0.7112 C   0  0  0  0  0  0  0  0  0  0  0  0
   -0.4229   -3.6676   -0.9333 C   0  0  0  0  0  0  0  0  0  0  0  0
   -1.7311   -4.0758   -0.9139 C   0  0  0  0  0  0  0  0  0  0  0  0
   -2.6819   -3.1261   -0.6644 C   0  0  0  0  0  0  0  0  0  0  0  0
   -2.3735   -1.7786   -0.4325 C   0  0  0  0  0  0  0  0  0  0  0  0
   -1.0461   -1.4313   -0.4650 C   0  0  0  0  0  0  0  0  0  0  0  0
   -0.6851   -0.1609   -0.2545 N   0  0  0  0  0  0  0  0  0  0  0  0
   -1.4320    0.8996   -0.0287 C   0  0  0  0  0  0  0  0  0  0  0  0
   -2.8323    1.1922    0.1212 C   0  0  0  0  0  0  0  0  0  0  0  0
   -3.5128    1.1732    1.3142 C   0  0  0  0  0  0  0  0  0  0  0  0
   -4.8396    1.5065    1.3563 C   0  0  0  0  0  0  0  0  0  0  0  0
   -5.5582    1.8736    0.2316 C   0  0  0  0  0  0  0  0  0  0  0  0
   -4.9025    1.8983   -0.9591 C   0  0  0  0  0  0  0  0  0  0  0  0
   -3.5693    1.5648   -1.0127 C   0  0  0  0  0  0  0  0  0  0  0  0
   -0.5395    1.9454    0.0798 N   0  0  0  0  0  0  0  0  0  0  0  0
    0.6707    1.4926   -0.0783 N   0  0  0  0  0  0  0  0  0  0  0  0
    0.6413    0.1786   -0.2895 C   0  0  0  0  0  0  0  0  0  0  0  0
    5.7208   -0.7400   -0.7732 H   0  0  0  0  0  0  0  0  0  0  0  0
    7.4003    0.4837    0.4232 H   0  0  0  0  0  0  0  0  0  0  0  0
    6.8125    2.2773    1.9587 H   0  0  0  0  0  0  0  0  0  0  0  0
    4.4065    2.8364    2.2773 H   0  0  0  0  0  0  0  0  0  0  0  0
    2.7160    1.6764    1.1662 H   0  0  0  0  0  0  0  0  0  0  0  0
    0.3640   -4.3909   -1.1280 H   0  0  0  0  0  0  0  0  0  0  0  0
   -1.9889   -5.1235   -1.0936 H   0  0  0  0  0  0  0  0  0  0  0  0
   -3.7464   -3.4081   -0.6402 H   0  0  0  0  0  0  0  0  0  0  0  0
   -3.1833   -1.1047   -0.2461 H   0  0  0  0  0  0  0  0  0  0  0  0
   -2.9970    0.8926    2.2148 H   0  0  0  0  0  0  0  0  0  0  0  0
   -5.3793    1.4934    2.2946 H   0  0  0  0  0  0  0  0  0  0  0  0
   -6.5992    2.1392    0.2566 H   0  0  0  0  0  0  0  0  0  0  0  0
   -5.3694    2.1739   -1.9098 H   0  0  0  0  0  0  0  0  0  0  0  0
   -3.0388    1.5810   -1.9586 H   0  0  0  0  0  0  0  0  0  0  0  0
  1  2  2  0
  2  3  1  0
  3  4  2  0
  4  5  1  0
  5  6  2  0
  6  7  1  0
  7  8  2  0
  2  9  1  0
  9 10  2  0
 10 11  1  0
 11 12  2  0
 12 13  1  0
 13 14  2  0
 14 15  1  0
 15 16  2  0
 16 17  1  0
 17 18  1  0
 18 19  1  0
 19 20  2  0
 20 21  1  0
 21 22  2  0
 22 23  1  0
 23 24  2  0
 18 25  2  0
 25 26  1  0
 26 27  2  0
  8  3  1  0
 27  9  1  0
 16 11  1  0
 27 17  1  0
 24 19  1  0
  4 28  1  0
  5 29  1  0
  6 30  1  0
  7 31  1  0
  8 32  1  0
 12 33  1  0
 13 34  1  0
 14 35  1  0
 15 36  1  0
 20 37  1  0
 21 38  1  0
 22 39  1  0
 23 40  1  0
 24 41  1  0
M  END
$$$$
