
     RDKit          3D

 43 45  0  0  0  0  0  0  0  0999 V2000
    7.0050    1.5796   -3.6623 C   0  0  0  0  0  0  0  0  0  0  0  0
    6.7662    2.3375   -2.4983 O   0  0  0  0  0  0  0  0  0  0  0  0
    5.5637    2.2924   -1.8167 C   0  0  0  0  0  0  0  0  0  0  0  0
    4.4769    1.5318   -2.1659 C   0  0  0  0  0  0  0  0  0  0  0  0
    3.3012    1.5144   -1.4637 C   0  0  0  0  0  0  0  0  0  0  0  0
    3.1495    2.2928   -0.3262 C   0  0  0  0  0  0  0  0  0  0  0  0
    4.2412    3.0666    0.0377 C   0  0  0  0  0  0  0  0  0  0  0  0
    5.4138    3.0651   -0.6879 C   0  0  0  0  0  0  0  0  0  0  0  0
    1.9222    2.1106    0.1865 N   0  0  0  0  0  0  0  0  0  0  0  0
    1.2845    1.2397   -0.5882 C   0  0  0  0  0  0  0  0  0  0  0  0
    2.1253    0.8747   -1.5962 N   0  0  0  0  0  0  0  0  0  0  0  0
   -0.3572    0.5487   -0.5038 S   0  0  0  0  0  0  0  0  0  0  0  0
   -0.8778    0.2115   -1.8919 O   0  0  0  0  0  0  0  0  0  0  0  0
   -0.3362   -0.9574    0.4725 C   0  0  0  0  0  0  0  0  0  0  0  0
   -1.6770   -1.5847    0.5817 C   0  0  0  0  0  0  0  0  0  0  0  0
   -2.0077   -2.6806   -0.1334 N   0  0  0  0  0  0  0  0  0  0  0  0
   -3.2201   -3.2558   -0.0419 C   0  0  0  0  0  0  0  0  0  0  0  0
   -4.2057   -2.7454    0.8030 C   0  0  0  0  0  0  0  0  0  0  0  0
   -5.4667   -3.5162    0.7621 C   0  0  0  0  0  0  0  0  0  0  0  0
   -3.8944   -1.6247    1.5463 C   0  0  0  0  0  0  0  0  0  0  0  0
   -4.9196   -1.1839    2.3544 O   0  0  0  0  0  0  0  0  0  0  0  0
   -5.9137   -0.2611    2.0152 C   0  0  0  0  0  0  0  0  0  0  0  0
   -2.6393   -1.0687    1.4206 C   0  0  0  0  0  0  0  0  0  0  0  0
   -2.3637    0.1270    2.2392 C   0  0  0  0  0  0  0  0  0  0  0  0
    6.5101    0.5866   -3.5600 H   0  0  0  0  0  0  0  0  0  0  0  0
    6.6620    2.0855   -4.5759 H   0  0  0  0  0  0  0  0  0  0  0  0
    8.1173    1.3856   -3.6877 H   0  0  0  0  0  0  0  0  0  0  0  0
    4.5584    0.9085   -3.0520 H   0  0  0  0  0  0  0  0  0  0  0  0
    4.1634    3.6824    0.9116 H   0  0  0  0  0  0  0  0  0  0  0  0
    6.2455    3.6827   -0.3727 H   0  0  0  0  0  0  0  0  0  0  0  0
    1.9555    0.2082   -2.3853 H   0  0  0  0  0  0  0  0  0  0  0  0
    0.3154   -1.6843   -0.0560 H   0  0  0  0  0  0  0  0  0  0  0  0
    0.1430   -0.8132    1.4588 H   0  0  0  0  0  0  0  0  0  0  0  0
   -3.3214   -4.1225   -0.6794 H   0  0  0  0  0  0  0  0  0  0  0  0
   -5.3281   -4.5579    1.1280 H   0  0  0  0  0  0  0  0  0  0  0  0
   -5.8411   -3.5252   -0.3000 H   0  0  0  0  0  0  0  0  0  0  0  0
   -6.2154   -2.9539    1.3531 H   0  0  0  0  0  0  0  0  0  0  0  0
   -6.8966   -0.7399    2.2929 H   0  0  0  0  0  0  0  0  0  0  0  0
   -5.8397    0.6184    2.6925 H   0  0  0  0  0  0  0  0  0  0  0  0
   -5.9152    0.0727    0.9691 H   0  0  0  0  0  0  0  0  0  0  0  0
   -2.2717    1.0677    1.6647 H   0  0  0  0  0  0  0  0  0  0  0  0
   -3.0544    0.2159    3.1089 H   0  0  0  0  0  0  0  0  0  0  0  0
   -1.3577   -0.0310    2.7225 H   0  0  0  0  0  0  0  0  0  0  0  0
  1  2  1  0
  2  3  1  0
  3  4  2  0
  4  5  1  0
  5  6  2  0
  6  7  1  0
  7  8  2  0
  6  9  1  0
  9 10  2  0
 10 11  1  0
 10 12  1  0
 12 13  2  0
 12 14  1  0
 14 15  1  0
 15 16  2  0
 16 17  1  0
 17 18  2  0
 18 19  1  0
 18 20  1  0
 20 21  1  0
 21 22  1  0
 20 23  2  0
 23 24  1  0
  8  3  1  0
 23 15  1  0
 11  5  1  0
  1 25  1  0
  1 26  1  0
  1 27  1  0
  4 28  1  0
  7 29  1  0
  8 30  1  0
 11 31  1  0
 14 32  1  0
 14 33  1  0
 17 34  1  0
 19 35  1  0
 19 36  1  0
 19 37  1  0
 22 38  1  0
 22 39  1  0
 22 40  1  0
 24 41  1  0
 24 42  1  0
 24 43  1  0
M  END
$$$$
