@<TRIPOS>MOLECULE
*****
 43 45 0 0 0
SMALL
GASTEIGER

@<TRIPOS>ATOM
      1 C           7.0050    1.5796   -3.6623 C.3     1  UNL1        0.0788
      2 O           6.7662    2.3375   -2.4983 O.3     1  UNL1       -0.4950
      3 C           5.5637    2.2924   -1.8167 C.ar    1  UNL1        0.1222
      4 C           4.4769    1.5318   -2.1659 C.ar    1  UNL1        0.0055
      5 C           3.3012    1.5144   -1.4637 C.ar    1  UNL1        0.0704
      6 C           3.1495    2.2928   -0.3262 C.ar    1  UNL1        0.0903
      7 C           4.2412    3.0666    0.0377 C.ar    1  UNL1       -0.0308
      8 C           5.4138    3.0651   -0.6879 C.ar    1  UNL1       -0.0178
      9 N           1.9222    2.1106    0.1865 N.ar    1  UNL1       -0.2200
     10 C           1.2845    1.2397   -0.5882 C.ar    1  UNL1        0.1981
     11 N           2.1253    0.8747   -1.5962 N.ar    1  UNL1       -0.3309
     12 S          -0.3572    0.5487   -0.5038 S.O     1  UNL1        0.0954
     13 O          -0.8778    0.2115   -1.8919 O.2     1  UNL1       -0.2488
     14 C          -0.3362   -0.9574    0.4725 C.3     1  UNL1        0.0734
     15 C          -1.6770   -1.5847    0.5817 C.ar    1  UNL1        0.0603
     16 N          -2.0077   -2.6806   -0.1334 N.ar    1  UNL1       -0.2582
     17 C          -3.2201   -3.2558   -0.0419 C.ar    1  UNL1        0.0343
     18 C          -4.2057   -2.7454    0.8030 C.ar    1  UNL1        0.0095
     19 C          -5.4667   -3.5162    0.7621 C.3     1  UNL1       -0.0348
     20 C          -3.8944   -1.6247    1.5463 C.ar    1  UNL1        0.1290
     21 O          -4.9196   -1.1839    2.3544 O.3     1  UNL1       -0.4945
     22 C          -5.9137   -0.2611    2.0152 C.3     1  UNL1        0.0788
     23 C          -2.6393   -1.0687    1.4206 C.ar    1  UNL1        0.0136
     24 C          -2.3637    0.1270    2.2392 C.3     1  UNL1       -0.0345
     25 H           6.5101    0.5866   -3.5600 H       1  UNL1        0.0660
     26 H           6.6620    2.0855   -4.5759 H       1  UNL1        0.0660
     27 H           8.1173    1.3856   -3.6877 H       1  UNL1        0.0660
     28 H           4.5584    0.9085   -3.0520 H       1  UNL1        0.0675
     29 H           4.1634    3.6824    0.9116 H       1  UNL1        0.0641
     30 H           6.2455    3.6827   -0.3727 H       1  UNL1        0.0655
     31 H           1.9555    0.2082   -2.3853 H       1  UNL1        0.1679
     32 H           0.3154   -1.6843   -0.0560 H       1  UNL1        0.0470
     33 H           0.1430   -0.8132    1.4588 H       1  UNL1        0.0470
     34 H          -3.3214   -4.1225   -0.6794 H       1  UNL1        0.0833
     35 H          -5.3281   -4.5579    1.1280 H       1  UNL1        0.0279
     36 H          -5.8411   -3.5252   -0.3000 H       1  UNL1        0.0279
     37 H          -6.2154   -2.9539    1.3531 H       1  UNL1        0.0279
     38 H          -6.8966   -0.7399    2.2929 H       1  UNL1        0.0660
     39 H          -5.8397    0.6184    2.6925 H       1  UNL1        0.0660
     40 H          -5.9152    0.0727    0.9691 H       1  UNL1        0.0660
     41 H          -2.2717    1.0677    1.6647 H       1  UNL1        0.0279
     42 H          -3.0544    0.2159    3.1089 H       1  UNL1        0.0279
     43 H          -1.3577   -0.0310    2.7225 H       1  UNL1        0.0279
@<TRIPOS>BOND
     1     1     2    1
     2     2     3    1
     3     3     4   ar
     4     4     5   ar
     5     5     6   ar
     6     6     7   ar
     7     7     8   ar
     8     6     9   ar
     9     9    10   ar
    10    10    11   ar
    11    10    12    1
    12    12    13    2
    13    12    14    1
    14    14    15    1
    15    15    16   ar
    16    16    17   ar
    17    17    18   ar
    18    18    19    1
    19    18    20   ar
    20    20    21    1
    21    21    22    1
    22    20    23   ar
    23    23    24    1
    24     8     3   ar
    25    23    15   ar
    26    11     5   ar
    27     1    25    1
    28     1    26    1
    29     1    27    1
    30     4    28    1
    31     7    29    1
    32     8    30    1
    33    11    31    1
    34    14    32    1
    35    14    33    1
    36    17    34    1
    37    19    35    1
    38    19    36    1
    39    19    37    1
    40    22    38    1
    41    22    39    1
    42    22    40    1
    43    24    41    1
    44    24    42    1
    45    24    43    1
