
     RDKit          3D

 71 74  0  0  0  0  0  0  0  0999 V2000
  -10.8382    1.1091   -0.2683 C   0  0  0  0  0  0  0  0  0  0  0  0
  -11.4828   -0.2207   -0.4707 C   0  0  0  0  0  0  0  0  0  0  0  0
  -10.5979   -1.3326   -0.5565 N   0  0  0  0  0  0  0  0  0  0  0  0
   -9.7615   -1.3980   -1.7001 C   0  0  0  0  0  0  0  0  0  0  0  0
   -8.4040   -1.9029   -1.3498 C   0  0  0  0  0  0  0  0  0  0  0  0
   -7.8600   -1.1070   -0.1662 C   0  0  0  0  0  0  0  0  0  0  0  0
   -6.5785   -1.5992    0.0829 O   0  0  0  0  0  0  0  0  0  0  0  0
   -5.4123   -0.8889    0.0659 C   0  0  0  0  0  0  0  0  0  0  0  0
   -5.3179    0.4519   -0.1987 C   0  0  0  0  0  0  0  0  0  0  0  0
   -4.0689    1.0355   -0.1809 C   0  0  0  0  0  0  0  0  0  0  0  0
   -2.9351    0.3080    0.0930 C   0  0  0  0  0  0  0  0  0  0  0  0
   -1.6038    0.8894    0.1170 C   0  0  0  0  0  0  0  0  0  0  0  0
   -1.4002    2.1227   -0.1083 O   0  0  0  0  0  0  0  0  0  0  0  0
   -0.4383    0.1195    0.3932 N   0  0  0  0  0  0  0  0  0  0  0  0
    0.8568    0.7080    0.4116 C   0  0  0  0  0  0  0  0  0  0  0  0
    1.5785    0.7533   -0.7742 C   0  0  0  0  0  0  0  0  0  0  0  0
    2.8420    1.3060   -0.8360 C   0  0  0  0  0  0  0  0  0  0  0  0
    3.4396    1.8344    0.2710 C   0  0  0  0  0  0  0  0  0  0  0  0
    4.7409    2.4169    0.2568 N   0  0  0  0  0  0  0  0  0  0  0  0
    5.9108    1.6791    0.4848 C   0  0  0  0  0  0  0  0  0  0  0  0
    5.8094    0.4441    0.7136 O   0  0  0  0  0  0  0  0  0  0  0  0
    7.2237    2.2321    0.4764 N   0  0  0  0  0  0  0  0  0  0  0  0
    8.3970    1.4684    0.7060 C   0  0  0  0  0  0  0  0  0  0  0  0
    9.2218    0.7881   -0.1650 C   0  0  0  0  0  0  0  0  0  0  0  0
   10.2457    0.1985    0.5846 C   0  0  0  0  0  0  0  0  0  0  0  0
   11.3663   -0.6313    0.0810 C   0  0  0  0  0  0  0  0  0  0  0  0
   12.2193   -1.0401    1.2461 C   0  0  0  0  0  0  0  0  0  0  0  0
   10.8649   -1.8544   -0.6686 C   0  0  0  0  0  0  0  0  0  0  0  0
   12.1378    0.2269   -0.9128 C   0  0  0  0  0  0  0  0  0  0  0  0
   10.0090    0.5297    1.8089 O   0  0  0  0  0  0  0  0  0  0  0  0
    8.9371    1.2716    1.9197 N   0  0  0  0  0  0  0  0  0  0  0  0
    2.7320    1.7979    1.4661 C   0  0  0  0  0  0  0  0  0  0  0  0
    1.4561    1.2400    1.5296 C   0  0  0  0  0  0  0  0  0  0  0  0
   -3.0713   -1.0001    0.3463 N   0  0  0  0  0  0  0  0  0  0  0  0
   -4.2487   -1.6230    0.3445 C   0  0  0  0  0  0  0  0  0  0  0  0
   -8.7244   -1.3240    1.0598 C   0  0  0  0  0  0  0  0  0  0  0  0
  -10.0708   -1.8268    0.6658 C   0  0  0  0  0  0  0  0  0  0  0  0
  -11.5454    1.8801   -0.6956 H   0  0  0  0  0  0  0  0  0  0  0  0
   -9.9025    1.2461   -0.8596 H   0  0  0  0  0  0  0  0  0  0  0  0
  -10.6715    1.3506    0.7953 H   0  0  0  0  0  0  0  0  0  0  0  0
  -12.1803   -0.2435   -1.3356 H   0  0  0  0  0  0  0  0  0  0  0  0
  -12.1440   -0.4074    0.4286 H   0  0  0  0  0  0  0  0  0  0  0  0
  -10.2236   -2.1341   -2.4214 H   0  0  0  0  0  0  0  0  0  0  0  0
   -9.6804   -0.4547   -2.2778 H   0  0  0  0  0  0  0  0  0  0  0  0
   -8.4525   -2.9805   -1.0846 H   0  0  0  0  0  0  0  0  0  0  0  0
   -7.7190   -1.7657   -2.2045 H   0  0  0  0  0  0  0  0  0  0  0  0
   -7.9372   -0.0507   -0.4212 H   0  0  0  0  0  0  0  0  0  0  0  0
   -6.2192    1.0064   -0.4120 H   0  0  0  0  0  0  0  0  0  0  0  0
   -3.9940    2.1064   -0.3927 H   0  0  0  0  0  0  0  0  0  0  0  0
   -0.5546   -0.9037    0.5850 H   0  0  0  0  0  0  0  0  0  0  0  0
    1.1501    0.3430   -1.7014 H   0  0  0  0  0  0  0  0  0  0  0  0
    3.4246    1.3488   -1.7674 H   0  0  0  0  0  0  0  0  0  0  0  0
    4.8605    3.4519    0.0674 H   0  0  0  0  0  0  0  0  0  0  0  0
    7.2612    3.2723    0.2808 H   0  0  0  0  0  0  0  0  0  0  0  0
    9.0844    0.7329   -1.2252 H   0  0  0  0  0  0  0  0  0  0  0  0
   13.2680   -1.1973    0.9132 H   0  0  0  0  0  0  0  0  0  0  0  0
   11.8098   -2.0094    1.6348 H   0  0  0  0  0  0  0  0  0  0  0  0
   12.1467   -0.2433    2.0181 H   0  0  0  0  0  0  0  0  0  0  0  0
   11.6997   -2.5815   -0.7623 H   0  0  0  0  0  0  0  0  0  0  0  0
   10.5144   -1.6127   -1.6870 H   0  0  0  0  0  0  0  0  0  0  0  0
    9.9967   -2.3248   -0.1384 H   0  0  0  0  0  0  0  0  0  0  0  0
   12.4265    1.1529   -0.3818 H   0  0  0  0  0  0  0  0  0  0  0  0
   11.4430    0.5148   -1.7236 H   0  0  0  0  0  0  0  0  0  0  0  0
   12.9904   -0.3294   -1.3279 H   0  0  0  0  0  0  0  0  0  0  0  0
    3.1856    2.2086    2.3481 H   0  0  0  0  0  0  0  0  0  0  0  0
    0.9003    1.2116    2.4735 H   0  0  0  0  0  0  0  0  0  0  0  0
   -4.2847   -2.6826    0.5577 H   0  0  0  0  0  0  0  0  0  0  0  0
   -8.7613   -0.4071    1.6847 H   0  0  0  0  0  0  0  0  0  0  0  0
   -8.2380   -2.0972    1.6879 H   0  0  0  0  0  0  0  0  0  0  0  0
  -10.0035   -2.9461    0.5768 H   0  0  0  0  0  0  0  0  0  0  0  0
  -10.8238   -1.6362    1.4706 H   0  0  0  0  0  0  0  0  0  0  0  0
  1  2  1  0
  2  3  1  0
  3  4  1  0
  4  5  1  0
  5  6  1  0
  6  7  1  0
  7  8  1  0
  8  9  2  0
  9 10  1  0
 10 11  2  0
 11 12  1  0
 12 13  2  0
 12 14  1  0
 14 15  1  0
 15 16  2  0
 16 17  1  0
 17 18  2  0
 18 19  1  0
 19 20  1  0
 20 21  2  0
 20 22  1  0
 22 23  1  0
 23 24  1  0
 24 25  2  0
 25 26  1  0
 26 27  1  0
 26 28  1  0
 26 29  1  0
 25 30  1  0
 30 31  1  0
 18 32  1  0
 32 33  2  0
 11 34  1  0
 34 35  2  0
  6 36  1  0
 36 37  1  0
 37  3  1  0
 35  8  1  0
 33 15  1  0
 31 23  2  0
  1 38  1  0
  1 39  1  0
  1 40  1  0
  2 41  1  0
  2 42  1  0
  4 43  1  0
  4 44  1  0
  5 45  1  0
  5 46  1  0
  6 47  1  0
  9 48  1  0
 10 49  1  0
 14 50  1  0
 16 51  1  0
 17 52  1  0
 19 53  1  0
 22 54  1  0
 24 55  1  0
 27 56  1  0
 27 57  1  0
 27 58  1  0
 28 59  1  0
 28 60  1  0
 28 61  1  0
 29 62  1  0
 29 63  1  0
 29 64  1  0
 32 65  1  0
 33 66  1  0
 35 67  1  0
 36 68  1  0
 36 69  1  0
 37 70  1  0
 37 71  1  0
M  END
$$$$
