@<TRIPOS>MOLECULE
*****
 71 74 0 0 0
SMALL
GASTEIGER

@<TRIPOS>ATOM
      1 C         -10.8382    1.1091   -0.2683 C.3     1  UNL1       -0.0524
      2 C         -11.4828   -0.2207   -0.4707 C.3     1  UNL1       -0.0039
      3 N         -10.5979   -1.3326   -0.5565 N.3     1  UNL1       -0.3023
      4 C          -9.7615   -1.3980   -1.7001 C.3     1  UNL1        0.0022
      5 C          -8.4040   -1.9029   -1.3498 C.3     1  UNL1       -0.0029
      6 C          -7.8600   -1.1070   -0.1662 C.3     1  UNL1        0.1026
      7 O          -6.5785   -1.5992    0.0829 O.3     1  UNL1       -0.4872
      8 C          -5.4123   -0.8889    0.0659 C.ar    1  UNL1        0.1390
      9 C          -5.3179    0.4519   -0.1987 C.ar    1  UNL1       -0.0162
     10 C          -4.0689    1.0355   -0.1809 C.ar    1  UNL1       -0.0277
     11 C          -2.9351    0.3080    0.0930 C.ar    1  UNL1        0.1259
     12 C          -1.6038    0.8894    0.1170 C.2     1  UNL1        0.2666
     13 O          -1.4002    2.1227   -0.1083 O.2     1  UNL1       -0.2682
     14 N          -0.4383    0.1195    0.3932 N.am    1  UNL1       -0.2802
     15 C           0.8568    0.7080    0.4116 C.ar    1  UNL1        0.0338
     16 C           1.5785    0.7533   -0.7742 C.ar    1  UNL1       -0.0387
     17 C           2.8420    1.3060   -0.8360 C.ar    1  UNL1       -0.0387
     18 C           3.4396    1.8344    0.2710 C.ar    1  UNL1        0.0349
     19 N           4.7409    2.4169    0.2568 N.am    1  UNL1       -0.2692
     20 C           5.9108    1.6791    0.4848 C.2     1  UNL1        0.3093
     21 O           5.8094    0.4441    0.7136 O.2     1  UNL1       -0.2521
     22 N           7.2237    2.2321    0.4764 N.am    1  UNL1       -0.2512
     23 C           8.3970    1.4684    0.7060 C.ar    1  UNL1        0.1691
     24 C           9.2218    0.7881   -0.1650 C.ar    1  UNL1        0.0230
     25 C          10.2457    0.1985    0.5846 C.ar    1  UNL1        0.1445
     26 C          11.3663   -0.6313    0.0810 C.3     1  UNL1        0.0230
     27 C          12.2193   -1.0401    1.2461 C.3     1  UNL1       -0.0531
     28 C          10.8649   -1.8544   -0.6686 C.3     1  UNL1       -0.0531
     29 C          12.1378    0.2269   -0.9128 C.3     1  UNL1       -0.0531
     30 O          10.0090    0.5297    1.8089 O.2     1  UNL1       -0.3573
     31 N           8.9371    1.2716    1.9197 N.ar    1  UNL1       -0.0627
     32 C           2.7320    1.7979    1.4661 C.ar    1  UNL1       -0.0387
     33 C           1.4561    1.2400    1.5296 C.ar    1  UNL1       -0.0387
     34 N          -3.0713   -1.0001    0.3463 N.ar    1  UNL1       -0.2467
     35 C          -4.2487   -1.6230    0.3445 C.ar    1  UNL1        0.0701
     36 C          -8.7244   -1.3240    1.0598 C.3     1  UNL1       -0.0029
     37 C         -10.0708   -1.8268    0.6658 C.3     1  UNL1        0.0022
     38 H         -11.5454    1.8801   -0.6956 H       1  UNL1        0.0242
     39 H          -9.9025    1.2461   -0.8596 H       1  UNL1        0.0242
     40 H         -10.6715    1.3506    0.7953 H       1  UNL1        0.0242
     41 H         -12.1803   -0.2435   -1.3356 H       1  UNL1        0.0424
     42 H         -12.1440   -0.4074    0.4286 H       1  UNL1        0.0424
     43 H         -10.2236   -2.1341   -2.4214 H       1  UNL1        0.0428
     44 H          -9.6804   -0.4547   -2.2778 H       1  UNL1        0.0428
     45 H          -8.4525   -2.9805   -1.0846 H       1  UNL1        0.0313
     46 H          -7.7190   -1.7657   -2.2045 H       1  UNL1        0.0313
     47 H          -7.9372   -0.0507   -0.4212 H       1  UNL1        0.0733
     48 H          -6.2192    1.0064   -0.4120 H       1  UNL1        0.0655
     49 H          -3.9940    2.1064   -0.3927 H       1  UNL1        0.0641
     50 H          -0.5546   -0.9037    0.5850 H       1  UNL1        0.1552
     51 H           1.1501    0.3430   -1.7014 H       1  UNL1        0.0637
     52 H           3.4246    1.3488   -1.7674 H       1  UNL1        0.0637
     53 H           4.8605    3.4519    0.0674 H       1  UNL1        0.1564
     54 H           7.2612    3.2723    0.2808 H       1  UNL1        0.1579
     55 H           9.0844    0.7329   -1.2252 H       1  UNL1        0.0688
     56 H          13.2680   -1.1973    0.9132 H       1  UNL1        0.0239
     57 H          11.8098   -2.0094    1.6348 H       1  UNL1        0.0239
     58 H          12.1467   -0.2433    2.0181 H       1  UNL1        0.0239
     59 H          11.6997   -2.5815   -0.7623 H       1  UNL1        0.0239
     60 H          10.5144   -1.6127   -1.6870 H       1  UNL1        0.0239
     61 H           9.9967   -2.3248   -0.1384 H       1  UNL1        0.0239
     62 H          12.4265    1.1529   -0.3818 H       1  UNL1        0.0239
     63 H          11.4430    0.5148   -1.7236 H       1  UNL1        0.0239
     64 H          12.9904   -0.3294   -1.3279 H       1  UNL1        0.0239
     65 H           3.1856    2.2086    2.3481 H       1  UNL1        0.0637
     66 H           0.9003    1.2116    2.4735 H       1  UNL1        0.0637
     67 H          -4.2847   -2.6826    0.5577 H       1  UNL1        0.0867
     68 H          -8.7613   -0.4071    1.6847 H       1  UNL1        0.0313
     69 H          -8.2380   -2.0972    1.6879 H       1  UNL1        0.0313
     70 H         -10.0035   -2.9461    0.5768 H       1  UNL1        0.0428
     71 H         -10.8238   -1.6362    1.4706 H       1  UNL1        0.0428
@<TRIPOS>BOND
     1     1     2    1
     2     2     3    1
     3     3     4    1
     4     4     5    1
     5     5     6    1
     6     6     7    1
     7     7     8    1
     8     8     9   ar
     9     9    10   ar
    10    10    11   ar
    11    11    12    1
    12    12    13    2
    13    12    14   am
    14    14    15    1
    15    15    16   ar
    16    16    17   ar
    17    17    18   ar
    18    18    19    1
    19    19    20   am
    20    20    21    2
    21    20    22   am
    22    22    23    1
    23    23    24   ar
    24    24    25   ar
    25    25    26    1
    26    26    27    1
    27    26    28    1
    28    26    29    1
    29    25    30   ar
    30    30    31   ar
    31    18    32   ar
    32    32    33   ar
    33    11    34   ar
    34    34    35   ar
    35     6    36    1
    36    36    37    1
    37    37     3    1
    38    35     8   ar
    39    33    15   ar
    40    31    23   ar
    41     1    38    1
    42     1    39    1
    43     1    40    1
    44     2    41    1
    45     2    42    1
    46     4    43    1
    47     4    44    1
    48     5    45    1
    49     5    46    1
    50     6    47    1
    51     9    48    1
    52    10    49    1
    53    14    50    1
    54    16    51    1
    55    17    52    1
    56    19    53    1
    57    22    54    1
    58    24    55    1
    59    27    56    1
    60    27    57    1
    61    27    58    1
    62    28    59    1
    63    28    60    1
    64    28    61    1
    65    29    62    1
    66    29    63    1
    67    29    64    1
    68    32    65    1
    69    33    66    1
    70    35    67    1
    71    36    68    1
    72    36    69    1
    73    37    70    1
    74    37    71    1
