
     RDKit          3D

105110  0  0  0  0  0  0  0  0999 V2000
  -10.9493    4.2902   -0.2642 C   0  0  0  0  0  0  0  0  0  0  0  0
  -10.0738    4.4858    0.9640 C   0  0  0  0  0  0  0  0  0  0  0  0
   -8.8209    3.8425    0.7956 O   0  0  0  0  0  0  0  0  0  0  0  0
   -8.8250    2.4725    0.5864 C   0  0  0  0  0  0  0  0  0  0  0  0
   -9.9051    1.8509    0.5522 O   0  0  0  0  0  0  0  0  0  0  0  0
   -7.5360    1.7346    0.4008 C   0  0  1  0  0  0  0  0  0  0  0  0
   -6.4250    2.5617   -0.0754 C   0  0  0  0  0  0  0  0  0  0  0  0
   -6.4682    2.1706    1.3746 C   0  0  2  0  0  0  0  0  0  0  0  0
   -5.4302    1.1668    1.8542 C   0  0  0  0  0  0  0  0  0  0  0  0
   -4.6250    0.6004    0.9940 O   0  0  0  0  0  0  0  0  0  0  0  0
   -4.2270   -0.1107   -0.0279 C   0  0  0  0  0  0  0  0  0  0  0  0
   -5.0746   -0.8052   -0.9005 C   0  0  0  0  0  0  0  0  0  0  0  0
   -4.6026   -1.5351   -1.9590 C   0  0  0  0  0  0  0  0  0  0  0  0
   -5.5395   -2.2682   -2.8838 C   0  0  0  0  0  0  0  0  0  0  0  0
   -5.6975   -3.6743   -2.3243 C   0  0  0  0  0  0  0  0  0  0  0  0
   -6.6195   -4.4131   -3.2531 C   0  0  0  0  0  0  0  0  0  0  0  0
   -6.8679   -5.7165   -2.9003 O   0  0  0  0  0  0  0  0  0  0  0  0
   -7.4615   -5.8919   -1.6730 C   0  0  0  0  0  0  0  0  0  0  0  0
   -3.2495   -1.5766   -2.1546 C   0  0  0  0  0  0  0  0  0  0  0  0
   -2.3266   -0.9119   -1.3270 C   0  0  0  0  0  0  0  0  0  0  0  0
   -0.8905   -1.0385   -1.6307 C   0  0  0  0  0  0  0  0  0  0  0  0
   -0.2166   -2.0961   -0.9243 N   0  0  0  0  0  0  0  0  0  0  0  0
    0.7389   -1.8156    0.0596 C   0  0  0  0  0  0  0  0  0  0  0  0
    1.2468   -2.8414    0.6570 O   0  0  0  0  0  0  0  0  0  0  0  0
    1.2727   -0.5280    0.5208 C   0  0  1  0  0  0  0  0  0  0  0  0
    0.3642    0.1290    1.4746 C   0  0  0  0  0  0  0  0  0  0  0  0
    0.9661    0.5463    2.7087 N   0  0  0  0  0  0  0  0  0  0  0  0
    1.8540   -0.3920    3.3004 C   0  0  0  0  0  0  0  0  0  0  0  0
    2.7269   -1.1571    2.3904 C   0  0  0  0  0  0  0  0  0  0  0  0
    2.6944   -0.7297    0.9776 C   0  0  2  0  0  0  0  0  0  0  0  0
    3.6174    0.3589    0.6064 C   0  0  0  0  0  0  0  0  0  0  0  0
    3.8620    0.5510   -0.7375 C   0  0  0  0  0  0  0  0  0  0  0  0
    4.7270    1.5202   -1.1635 C   0  0  0  0  0  0  0  0  0  0  0  0
    5.4211    2.3789   -0.2883 C   0  0  0  0  0  0  0  0  0  0  0  0
    6.2633    3.3230   -0.7880 O   0  0  0  0  0  0  0  0  0  0  0  0
    7.0590    4.2123   -0.1044 C   0  0  0  0  0  0  0  0  0  0  0  0
    8.1840    3.5947    0.7023 C   0  0  0  0  0  0  0  0  0  0  0  0
    9.0535    2.8654   -0.1695 O   0  0  0  0  0  0  0  0  0  0  0  0
   10.1674    2.2011    0.2837 C   0  0  0  0  0  0  0  0  0  0  0  0
   11.3845    2.8184    0.3619 C   0  0  0  0  0  0  0  0  0  0  0  0
   11.5604    4.5003   -0.1150 Cl  0  0  0  0  0  0  0  0  0  0  0  0
   12.4965    2.1144    0.8245 C   0  0  0  0  0  0  0  0  0  0  0  0
   12.4106    0.7923    1.2136 C   0  0  0  0  0  0  0  0  0  0  0  0
   13.5850    0.0308    1.7021 C   0  0  0  0  0  0  0  0  0  0  0  0
   11.1744    0.1912    1.1269 C   0  0  0  0  0  0  0  0  0  0  0  0
   10.0751    0.8596    0.6781 C   0  0  0  0  0  0  0  0  0  0  0  0
    8.5200    0.0695    0.5768 Cl  0  0  0  0  0  0  0  0  0  0  0  0
    5.1637    2.1732    1.0469 C   0  0  0  0  0  0  0  0  0  0  0  0
    4.2761    1.1787    1.4866 C   0  0  0  0  0  0  0  0  0  0  0  0
   -0.5667   -3.4685   -1.2896 C   0  0  0  0  0  0  0  0  0  0  0  0
   -0.7129   -4.5209   -0.2331 C   0  0  0  0  0  0  0  0  0  0  0  0
    0.4165   -4.5739   -1.2213 C   0  0  0  0  0  0  0  0  0  0  0  0
   -2.8368   -0.2037   -0.2976 C   0  0  0  0  0  0  0  0  0  0  0  0
  -10.3456    4.3091   -1.1771 H   0  0  0  0  0  0  0  0  0  0  0  0
  -11.6785    5.1410   -0.3446 H   0  0  0  0  0  0  0  0  0  0  0  0
  -11.5402    3.3589   -0.1286 H   0  0  0  0  0  0  0  0  0  0  0  0
   -9.9238    5.5788    1.1783 H   0  0  0  0  0  0  0  0  0  0  0  0
  -10.5963    4.0546    1.8415 H   0  0  0  0  0  0  0  0  0  0  0  0
   -7.6579    0.6611    0.2457 H   0  0  0  0  0  0  0  0  0  0  0  0
   -5.5813    2.1229   -0.6468 H   0  0  0  0  0  0  0  0  0  0  0  0
   -6.6202    3.6258   -0.3675 H   0  0  0  0  0  0  0  0  0  0  0  0
   -6.6992    2.9745    2.0982 H   0  0  0  0  0  0  0  0  0  0  0  0
   -6.0035    0.3593    2.4505 H   0  0  0  0  0  0  0  0  0  0  0  0
   -4.8934    1.7014    2.7069 H   0  0  0  0  0  0  0  0  0  0  0  0
   -6.1409   -0.7577   -0.7130 H   0  0  0  0  0  0  0  0  0  0  0  0
   -6.4977   -1.7243   -2.8902 H   0  0  0  0  0  0  0  0  0  0  0  0
   -5.0343   -2.3188   -3.8574 H   0  0  0  0  0  0  0  0  0  0  0  0
   -4.7294   -4.2058   -2.3000 H   0  0  0  0  0  0  0  0  0  0  0  0
   -6.0981   -3.6492   -1.3039 H   0  0  0  0  0  0  0  0  0  0  0  0
   -7.5496   -3.8097   -3.3343 H   0  0  0  0  0  0  0  0  0  0  0  0
   -6.1538   -4.4041   -4.2605 H   0  0  0  0  0  0  0  0  0  0  0  0
   -6.8373   -5.4835   -0.8467 H   0  0  0  0  0  0  0  0  0  0  0  0
   -7.6886   -6.9713   -1.4967 H   0  0  0  0  0  0  0  0  0  0  0  0
   -8.4707   -5.3970   -1.6888 H   0  0  0  0  0  0  0  0  0  0  0  0
   -2.8631   -2.1344   -3.0038 H   0  0  0  0  0  0  0  0  0  0  0  0
   -0.7716   -1.2689   -2.7222 H   0  0  0  0  0  0  0  0  0  0  0  0
   -0.3459   -0.0759   -1.4960 H   0  0  0  0  0  0  0  0  0  0  0  0
    1.3807    0.0876   -0.4453 H   0  0  0  0  0  0  0  0  0  0  0  0
   -0.0417    1.0523    1.0092 H   0  0  0  0  0  0  0  0  0  0  0  0
   -0.5101   -0.4922    1.7597 H   0  0  0  0  0  0  0  0  0  0  0  0
    0.3491    1.0442    3.3454 H   0  0  0  0  0  0  0  0  0  0  0  0
    2.4616    0.1376    4.0586 H   0  0  0  0  0  0  0  0  0  0  0  0
    1.2417   -1.1302    3.8971 H   0  0  0  0  0  0  0  0  0  0  0  0
    3.8052   -1.0436    2.7347 H   0  0  0  0  0  0  0  0  0  0  0  0
    2.5614   -2.2572    2.4703 H   0  0  0  0  0  0  0  0  0  0  0  0
    3.0557   -1.6064    0.3440 H   0  0  0  0  0  0  0  0  0  0  0  0
    3.3500   -0.0903   -1.4751 H   0  0  0  0  0  0  0  0  0  0  0  0
    4.9368    1.6934   -2.2284 H   0  0  0  0  0  0  0  0  0  0  0  0
    6.4832    4.8464    0.6322 H   0  0  0  0  0  0  0  0  0  0  0  0
    7.5262    4.9686   -0.7971 H   0  0  0  0  0  0  0  0  0  0  0  0
    8.7461    4.3891    1.2257 H   0  0  0  0  0  0  0  0  0  0  0  0
    7.8326    2.8871    1.4452 H   0  0  0  0  0  0  0  0  0  0  0  0
   13.4401    2.6166    0.8770 H   0  0  0  0  0  0  0  0  0  0  0  0
   14.2937    0.7274    2.1839 H   0  0  0  0  0  0  0  0  0  0  0  0
   13.2750   -0.8055    2.3683 H   0  0  0  0  0  0  0  0  0  0  0  0
   14.1481   -0.3735    0.8115 H   0  0  0  0  0  0  0  0  0  0  0  0
   11.1243   -0.8603    1.4402 H   0  0  0  0  0  0  0  0  0  0  0  0
    5.6187    2.7836    1.8049 H   0  0  0  0  0  0  0  0  0  0  0  0
    4.0857    1.0303    2.5394 H   0  0  0  0  0  0  0  0  0  0  0  0
   -1.3327   -3.5388   -2.0814 H   0  0  0  0  0  0  0  0  0  0  0  0
   -1.5452   -5.2618   -0.3312 H   0  0  0  0  0  0  0  0  0  0  0  0
   -0.4521   -4.3378    0.8143 H   0  0  0  0  0  0  0  0  0  0  0  0
    1.4629   -4.4292   -0.9181 H   0  0  0  0  0  0  0  0  0  0  0  0
    0.2907   -5.3863   -1.9839 H   0  0  0  0  0  0  0  0  0  0  0  0
   -2.2002    0.3456    0.3691 H   0  0  0  0  0  0  0  0  0  0  0  0
  1  2  1  0
  2  3  1  0
  3  4  1  0
  4  5  2  0
  4  6  1  0
  6  7  1  0
  7  8  1  0
  8  9  1  0
  9 10  1  0
 10 11  1  0
 11 12  2  0
 12 13  1  0
 13 14  1  0
 14 15  1  0
 15 16  1  0
 16 17  1  0
 17 18  1  0
 13 19  2  0
 19 20  1  0
 20 21  1  0
 21 22  1  0
 22 23  1  0
 23 24  2  0
 23 25  1  0
 25 26  1  0
 26 27  1  0
 27 28  1  0
 28 29  1  0
 29 30  1  0
 30 31  1  0
 31 32  2  0
 32 33  1  0
 33 34  2  0
 34 35  1  0
 35 36  1  0
 36 37  1  0
 37 38  1  0
 38 39  1  0
 39 40  2  0
 40 41  1  0
 40 42  1  0
 42 43  2  0
 43 44  1  0
 43 45  1  0
 45 46  2  0
 46 47  1  0
 34 48  1  0
 48 49  2  0
 22 50  1  0
 50 51  1  0
 51 52  1  0
 20 53  2  0
  8  6  1  0
 53 11  1  0
 30 25  1  0
 49 31  1  0
 52 50  1  0
 46 39  1  0
  1 54  1  0
  1 55  1  0
  1 56  1  0
  2 57  1  0
  2 58  1  0
  6 59  1  6
  7 60  1  0
  7 61  1  0
  8 62  1  1
  9 63  1  0
  9 64  1  0
 12 65  1  0
 14 66  1  0
 14 67  1  0
 15 68  1  0
 15 69  1  0
 16 70  1  0
 16 71  1  0
 18 72  1  0
 18 73  1  0
 18 74  1  0
 19 75  1  0
 21 76  1  0
 21 77  1  0
 25 78  1  6
 26 79  1  0
 26 80  1  0
 27 81  1  0
 28 82  1  0
 28 83  1  0
 29 84  1  0
 29 85  1  0
 30 86  1  6
 32 87  1  0
 33 88  1  0
 36 89  1  0
 36 90  1  0
 37 91  1  0
 37 92  1  0
 42 93  1  0
 44 94  1  0
 44 95  1  0
 44 96  1  0
 45 97  1  0
 48 98  1  0
 49 99  1  0
 50100  1  0
 51101  1  0
 51102  1  0
 52103  1  0
 52104  1  0
 53105  1  0
M  END
$$$$
