@<TRIPOS>MOLECULE
*****
 105 110 0 0 0
SMALL
GASTEIGER

@<TRIPOS>ATOM
      1 C         -10.9493    4.2902   -0.2642 C.3     1  UNL1       -0.0306
      2 C         -10.0738    4.4858    0.9640 C.3     1  UNL1        0.0897
      3 O          -8.8209    3.8425    0.7956 O.3     1  UNL1       -0.4647
      4 C          -8.8250    2.4725    0.5864 C.2     1  UNL1        0.3106
      5 O          -9.9051    1.8509    0.5522 O.2     1  UNL1       -0.2505
      6 C          -7.5360    1.7346    0.4008 C.3     1  UNL1        0.0627
      7 C          -6.4250    2.5617   -0.0754 C.3     1  UNL1       -0.0330
      8 C          -6.4682    2.1706    1.3746 C.3     1  UNL1        0.0069
      9 C          -5.4302    1.1668    1.8542 C.3     1  UNL1        0.0932
     10 O          -4.6250    0.6004    0.9940 O.3     1  UNL1       -0.4916
     11 C          -4.2270   -0.1107   -0.0279 C.ar    1  UNL1        0.1211
     12 C          -5.0746   -0.8052   -0.9005 C.ar    1  UNL1       -0.0167
     13 C          -4.6026   -1.5351   -1.9590 C.ar    1  UNL1       -0.0435
     14 C          -5.5395   -2.2682   -2.8838 C.3     1  UNL1       -0.0255
     15 C          -5.6975   -3.6743   -2.3243 C.3     1  UNL1       -0.0255
     16 C          -6.6195   -4.4131   -3.2531 C.3     1  UNL1        0.0476
     17 O          -6.8679   -5.7165   -2.9003 O.3     1  UNL1       -0.3830
     18 C          -7.4615   -5.8919   -1.6730 C.3     1  UNL1        0.0364
     19 C          -3.2495   -1.5766   -2.1546 C.ar    1  UNL1       -0.0537
     20 C          -2.3266   -0.9119   -1.3270 C.ar    1  UNL1       -0.0264
     21 C          -0.8905   -1.0385   -1.6307 C.3     1  UNL1        0.0401
     22 N          -0.2166   -2.0961   -0.9243 N.am    1  UNL1       -0.2938
     23 C           0.7389   -1.8156    0.0596 C.2     1  UNL1        0.2210
     24 O           1.2468   -2.8414    0.6570 O.2     1  UNL1       -0.2752
     25 C           1.2727   -0.5280    0.5208 C.3     1  UNL1        0.0550
     26 C           0.3642    0.1290    1.4746 C.3     1  UNL1        0.0076
     27 N           0.9661    0.5463    2.7087 N.3     1  UNL1       -0.3152
     28 C           1.8540   -0.3920    3.3004 C.3     1  UNL1       -0.0035
     29 C           2.7269   -1.1571    2.3904 C.3     1  UNL1       -0.0329
     30 C           2.6944   -0.7297    0.9776 C.3     1  UNL1       -0.0024
     31 C           3.6174    0.3589    0.6064 C.ar    1  UNL1       -0.0432
     32 C           3.8620    0.5510   -0.7375 C.ar    1  UNL1       -0.0548
     33 C           4.7270    1.5202   -1.1635 C.ar    1  UNL1       -0.0197
     34 C           5.4211    2.3789   -0.2883 C.ar    1  UNL1        0.1207
     35 O           6.2633    3.3230   -0.7880 O.3     1  UNL1       -0.4886
     36 C           7.0590    4.2123   -0.1044 C.3     1  UNL1        0.1235
     37 C           8.1840    3.5947    0.7023 C.3     1  UNL1        0.1236
     38 O           9.0535    2.8654   -0.1695 O.3     1  UNL1       -0.4857
     39 C          10.1674    2.2011    0.2837 C.ar    1  UNL1        0.1571
     40 C          11.3845    2.8184    0.3619 C.ar    1  UNL1        0.0842
     41 CL         11.5604    4.5003   -0.1150 Cl      1  UNL1       -0.0797
     42 C          12.4965    2.1144    0.8245 C.ar    1  UNL1       -0.0368
     43 C          12.4106    0.7923    1.2136 C.ar    1  UNL1       -0.0475
     44 C          13.5850    0.0308    1.7021 C.3     1  UNL1       -0.0396
     45 C          11.1744    0.1912    1.1269 C.ar    1  UNL1       -0.0368
     46 C          10.0751    0.8596    0.6781 C.ar    1  UNL1        0.0842
     47 CL          8.5200    0.0695    0.5768 Cl      1  UNL1       -0.0797
     48 C           5.1637    2.1732    1.0469 C.ar    1  UNL1       -0.0197
     49 C           4.2761    1.1787    1.4866 C.ar    1  UNL1       -0.0548
     50 C          -0.5667   -3.4685   -1.2896 C.3     1  UNL1        0.0265
     51 C          -0.7129   -4.5209   -0.2331 C.3     1  UNL1       -0.0326
     52 C           0.4165   -4.5739   -1.2213 C.3     1  UNL1       -0.0326
     53 C          -2.8368   -0.2037   -0.2976 C.ar    1  UNL1       -0.0152
     54 H         -10.3456    4.3091   -1.1771 H       1  UNL1        0.0262
     55 H         -11.6785    5.1410   -0.3446 H       1  UNL1        0.0262
     56 H         -11.5402    3.3589   -0.1286 H       1  UNL1        0.0262
     57 H          -9.9238    5.5788    1.1783 H       1  UNL1        0.0694
     58 H         -10.5963    4.0546    1.8415 H       1  UNL1        0.0694
     59 H          -7.6579    0.6611    0.2457 H       1  UNL1        0.0417
     60 H          -5.5813    2.1229   -0.6468 H       1  UNL1        0.0277
     61 H          -6.6202    3.6258   -0.3675 H       1  UNL1        0.0277
     62 H          -6.6992    2.9745    2.0982 H       1  UNL1        0.0342
     63 H          -6.0035    0.3593    2.4505 H       1  UNL1        0.0699
     64 H          -4.8934    1.7014    2.7069 H       1  UNL1        0.0699
     65 H          -6.1409   -0.7577   -0.7130 H       1  UNL1        0.0657
     66 H          -6.4977   -1.7243   -2.8902 H       1  UNL1        0.0314
     67 H          -5.0343   -2.3188   -3.8574 H       1  UNL1        0.0314
     68 H          -4.7294   -4.2058   -2.3000 H       1  UNL1        0.0290
     69 H          -6.0981   -3.6492   -1.3039 H       1  UNL1        0.0290
     70 H          -7.5496   -3.8097   -3.3343 H       1  UNL1        0.0560
     71 H          -6.1538   -4.4041   -4.2605 H       1  UNL1        0.0560
     72 H          -6.8373   -5.4835   -0.8467 H       1  UNL1        0.0523
     73 H          -7.6886   -6.9713   -1.4967 H       1  UNL1        0.0523
     74 H          -8.4707   -5.3970   -1.6888 H       1  UNL1        0.0523
     75 H          -2.8631   -2.1344   -3.0038 H       1  UNL1        0.0624
     76 H          -0.7716   -1.2689   -2.7222 H       1  UNL1        0.0514
     77 H          -0.3459   -0.0759   -1.4960 H       1  UNL1        0.0514
     78 H           1.3807    0.0876   -0.4453 H       1  UNL1        0.0413
     79 H          -0.0417    1.0523    1.0092 H       1  UNL1        0.0432
     80 H          -0.5101   -0.4922    1.7597 H       1  UNL1        0.0432
     81 H           0.3491    1.0442    3.3454 H       1  UNL1        0.1220
     82 H           2.4616    0.1376    4.0586 H       1  UNL1        0.0424
     83 H           1.2417   -1.1302    3.8971 H       1  UNL1        0.0424
     84 H           3.8052   -1.0436    2.7347 H       1  UNL1        0.0283
     85 H           2.5614   -2.2572    2.4703 H       1  UNL1        0.0283
     86 H           3.0557   -1.6064    0.3440 H       1  UNL1        0.0357
     87 H           3.3500   -0.0903   -1.4751 H       1  UNL1        0.0622
     88 H           4.9368    1.6934   -2.2284 H       1  UNL1        0.0654
     89 H           6.4832    4.8464    0.6322 H       1  UNL1        0.0731
     90 H           7.5262    4.9686   -0.7971 H       1  UNL1        0.0731
     91 H           8.7461    4.3891    1.2257 H       1  UNL1        0.0731
     92 H           7.8326    2.8871    1.4452 H       1  UNL1        0.0731
     93 H          13.4401    2.6166    0.8770 H       1  UNL1        0.0636
     94 H          14.2937    0.7274    2.1839 H       1  UNL1        0.0278
     95 H          13.2750   -0.8055    2.3683 H       1  UNL1        0.0278
     96 H          14.1481   -0.3735    0.8115 H       1  UNL1        0.0278
     97 H          11.1243   -0.8603    1.4402 H       1  UNL1        0.0636
     98 H           5.6187    2.7836    1.8049 H       1  UNL1        0.0654
     99 H           4.0857    1.0303    2.5394 H       1  UNL1        0.0622
    100 H          -1.3327   -3.5388   -2.0814 H       1  UNL1        0.0500
    101 H          -1.5452   -5.2618   -0.3312 H       1  UNL1        0.0284
    102 H          -0.4521   -4.3378    0.8143 H       1  UNL1        0.0284
    103 H           1.4629   -4.4292   -0.9181 H       1  UNL1        0.0284
    104 H           0.2907   -5.3863   -1.9839 H       1  UNL1        0.0284
    105 H          -2.2002    0.3456    0.3691 H       1  UNL1        0.0657
@<TRIPOS>BOND
     1     1     2    1
     2     2     3    1
     3     3     4    1
     4     4     5    2
     5     4     6    1
     6     6     7    1
     7     7     8    1
     8     8     9    1
     9     9    10    1
    10    10    11    1
    11    11    12   ar
    12    12    13   ar
    13    13    14    1
    14    14    15    1
    15    15    16    1
    16    16    17    1
    17    17    18    1
    18    13    19   ar
    19    19    20   ar
    20    20    21    1
    21    21    22    1
    22    22    23   am
    23    23    24    2
    24    23    25    1
    25    25    26    1
    26    26    27    1
    27    27    28    1
    28    28    29    1
    29    29    30    1
    30    30    31    1
    31    31    32   ar
    32    32    33   ar
    33    33    34   ar
    34    34    35    1
    35    35    36    1
    36    36    37    1
    37    37    38    1
    38    38    39    1
    39    39    40   ar
    40    40    41    1
    41    40    42   ar
    42    42    43   ar
    43    43    44    1
    44    43    45   ar
    45    45    46   ar
    46    46    47    1
    47    34    48   ar
    48    48    49   ar
    49    22    50    1
    50    50    51    1
    51    51    52    1
    52    20    53   ar
    53     8     6    1
    54    53    11   ar
    55    30    25    1
    56    49    31   ar
    57    52    50    1
    58    46    39   ar
    59     1    54    1
    60     1    55    1
    61     1    56    1
    62     2    57    1
    63     2    58    1
    64     6    59    1
    65     7    60    1
    66     7    61    1
    67     8    62    1
    68     9    63    1
    69     9    64    1
    70    12    65    1
    71    14    66    1
    72    14    67    1
    73    15    68    1
    74    15    69    1
    75    16    70    1
    76    16    71    1
    77    18    72    1
    78    18    73    1
    79    18    74    1
    80    19    75    1
    81    21    76    1
    82    21    77    1
    83    25    78    1
    84    26    79    1
    85    26    80    1
    86    27    81    1
    87    28    82    1
    88    28    83    1
    89    29    84    1
    90    29    85    1
    91    30    86    1
    92    32    87    1
    93    33    88    1
    94    36    89    1
    95    36    90    1
    96    37    91    1
    97    37    92    1
    98    42    93    1
    99    44    94    1
   100    44    95    1
   101    44    96    1
   102    45    97    1
   103    48    98    1
   104    49    99    1
   105    50   100    1
   106    51   101    1
   107    51   102    1
   108    52   103    1
   109    52   104    1
   110    53   105    1
