@<TRIPOS>MOLECULE
*****
 196 196 0 0 0
SMALL
GASTEIGER

@<TRIPOS>ATOM
      1 C          -4.2015   -9.7591    3.5797 C.3     1  UNL1       -0.0468
      2 C          -4.0849   -8.3021    3.3154 C.2     1  UNL1       -0.0910
      3 C          -5.1095   -7.4855    3.1723 C.2     1  UNL1       -0.0879
      4 C          -4.8488   -6.0292    2.9080 C.3     1  UNL1       -0.0298
      5 C          -5.4783   -5.6723    1.5807 C.3     1  UNL1       -0.0122
      6 C          -7.0002   -6.0275    1.8424 C.3     1  UNL1       -0.0597
      7 C          -5.4065   -4.1995    1.3783 C.3     1  UNL1        0.0850
      8 O          -6.1473   -3.5696    2.4503 O.3     1  UNL1       -0.3892
      9 C          -4.0102   -3.6813    1.4457 C.3     1  UNL1        0.1279
     10 C          -3.1313   -4.2993    0.4676 C.2     1  UNL1        0.2367
     11 O          -3.2600   -5.6026    0.3360 O.2     1  UNL1       -0.2737
     12 N          -2.1288   -3.9587   -0.4353 N.am    1  UNL1       -0.3024
     13 C          -1.4870   -4.9521   -1.3898 C.3     1  UNL1        0.0994
     14 C          -2.2590   -4.9019   -2.6655 C.3     1  UNL1       -0.0288
     15 C          -1.7944   -5.8596   -3.7199 C.3     1  UNL1       -0.0631
     16 C          -0.0624   -4.6448   -1.5658 C.2     1  UNL1        0.2361
     17 O           0.2538   -3.6538   -0.7286 O.2     1  UNL1       -0.2736
     18 N           1.1125   -4.9038   -2.1992 N.am    1  UNL1       -0.2942
     19 C           1.4367   -5.8593   -3.1851 C.3     1  UNL1        0.0037
     20 C           2.3894   -4.1478   -1.8575 C.3     1  UNL1        0.0909
     21 C           3.1728   -4.9306   -0.8996 C.2     1  UNL1        0.2333
     22 O           2.5030   -5.9996   -0.5257 O.2     1  UNL1       -0.2739
     23 N           4.3520   -5.0549   -0.1908 N.am    1  UNL1       -0.2917
     24 C           4.4174   -6.2862    0.6756 C.3     1  UNL1        0.0040
     25 C           5.5259   -4.2854   -0.0930 C.3     1  UNL1        0.1021
     26 C           6.2571   -4.1010   -1.3778 C.3     1  UNL1       -0.0234
     27 C           6.7194   -5.3837   -2.0296 C.3     1  UNL1       -0.0446
     28 C           7.6708   -6.1500   -1.1054 C.3     1  UNL1       -0.0626
     29 C           7.5807   -5.0572   -3.2642 C.3     1  UNL1       -0.0626
     30 C           5.3721   -3.0024    0.6458 C.2     1  UNL1        0.2342
     31 O           4.1504   -2.8348    1.0499 O.2     1  UNL1       -0.2738
     32 N           6.1531   -1.9492    1.0206 N.am    1  UNL1       -0.3022
     33 C           5.6364   -0.8321    1.8416 C.3     1  UNL1        0.1019
     34 C           6.1829   -0.9779    3.2531 C.3     1  UNL1       -0.0197
     35 C           7.6749   -0.9295    3.3094 C.3     1  UNL1       -0.0605
     36 C           5.5049   -0.0420    4.1677 C.3     1  UNL1       -0.0605
     37 C           5.8797    0.5136    1.2726 C.2     1  UNL1        0.2365
     38 O           5.6066    1.3767    2.2601 O.2     1  UNL1       -0.2735
     39 N           6.2300    1.3414    0.2446 N.am    1  UNL1       -0.2914
     40 C           6.3278    1.0530   -1.1307 C.3     1  UNL1        0.0040
     41 C           6.4750    2.8165    0.4997 C.3     1  UNL1        0.1021
     42 C           7.8913    3.1957    0.3554 C.3     1  UNL1       -0.0234
     43 C           8.6526    3.0759   -0.8796 C.3     1  UNL1       -0.0446
     44 C          10.0987    3.5593   -0.5264 C.3     1  UNL1       -0.0626
     45 C           8.2483    4.1670   -1.8963 C.3     1  UNL1       -0.0626
     46 C           5.4422    3.6269   -0.1415 C.2     1  UNL1        0.2341
     47 O           4.5164    2.9589   -0.8123 O.2     1  UNL1       -0.2738
     48 N           5.0564    4.9546   -0.3112 N.am    1  UNL1       -0.3027
     49 C           3.8125    5.3497   -1.0786 C.3     1  UNL1        0.0966
     50 C           3.8113    4.6363   -2.4107 C.3     1  UNL1       -0.0381
     51 C           2.6573    5.1011   -0.2252 C.2     1  UNL1        0.2337
     52 O           3.0028    4.7202    0.9901 O.2     1  UNL1       -0.2738
     53 N           1.2867    5.1234   -0.2520 N.am    1  UNL1       -0.3027
     54 C           0.5054    4.7687    0.9110 C.3     1  UNL1        0.0968
     55 C           0.5149    3.2028    1.0314 C.3     1  UNL1       -0.0381
     56 C          -0.8731    5.2302    1.0191 C.2     1  UNL1        0.2360
     57 O          -1.3384    4.8508    2.2423 O.2     1  UNL1       -0.2736
     58 N          -2.0120    5.8531    0.5570 N.am    1  UNL1       -0.2914
     59 C          -2.2103    6.4247   -0.7210 C.3     1  UNL1        0.0040
     60 C          -3.2880    5.9874    1.3734 C.3     1  UNL1        0.1023
     61 C          -3.7417    7.3077    1.6871 C.3     1  UNL1       -0.0234
     62 C          -4.1431    8.3478    0.7389 C.3     1  UNL1       -0.0446
     63 C          -4.5190    9.6078    1.5959 C.3     1  UNL1       -0.0626
     64 C          -5.4897    8.0566    0.0449 C.3     1  UNL1       -0.0626
     65 C          -4.2276    4.9656    0.8405 C.2     1  UNL1        0.2365
     66 O          -3.7547    4.4930   -0.2805 O.2     1  UNL1       -0.2735
     67 N          -5.3994    4.2759    0.9885 N.am    1  UNL1       -0.2914
     68 C          -6.5017    4.4614    1.8636 C.3     1  UNL1        0.0040
     69 C          -5.6758    3.1106    0.0643 C.3     1  UNL1        0.1023
     70 C          -5.9580    3.4751   -1.3240 C.3     1  UNL1       -0.0234
     71 C          -7.1547    4.3868   -1.5209 C.3     1  UNL1       -0.0446
     72 C          -7.3270    4.6898   -3.0170 C.3     1  UNL1       -0.0626
     73 C          -8.4272    3.7753   -1.0372 C.3     1  UNL1       -0.0626
     74 C          -4.5741    2.1226    0.2708 C.2     1  UNL1        0.2365
     75 O          -3.6026    2.5502    1.0583 O.2     1  UNL1       -0.2735
     76 N          -4.1106    0.8600   -0.0224 N.am    1  UNL1       -0.2912
     77 C          -2.6578    0.6677    0.4590 C.3     1  UNL1        0.0040
     78 C          -4.5074   -0.3319   -0.6166 C.3     1  UNL1        0.1044
     79 C          -3.9671   -0.4641   -2.0532 C.3     1  UNL1       -0.0195
     80 C          -2.5189   -0.4181   -2.2764 C.3     1  UNL1       -0.0605
     81 C          -4.7094    0.4730   -2.9748 C.3     1  UNL1       -0.0605
     82 C          -4.3083   -1.6013    0.1521 C.2     1  UNL1        0.2368
     83 O          -4.4439   -2.6270   -0.6431 O.2     1  UNL1       -0.2735
     84 N          -4.0342   -2.1662    1.3715 N.am    1  UNL1       -0.2890
     85 C          -3.7731   -1.6668    2.6686 C.3     1  UNL1        0.0041
     86 H          -3.2645  -10.2470    3.2955 H       1  UNL1        0.0272
     87 H          -4.4193   -9.8508    4.6736 H       1  UNL1        0.0272
     88 H          -5.0779  -10.1904    3.0492 H       1  UNL1        0.0272
     89 H          -3.0765   -7.8620    3.2300 H       1  UNL1        0.0566
     90 H          -6.1031   -7.8702    3.2496 H       1  UNL1        0.0569
     91 H          -3.7837   -5.8074    2.9762 H       1  UNL1        0.0311
     92 H          -5.3378   -5.4525    3.7451 H       1  UNL1        0.0311
     93 H          -5.2281   -6.2905    0.7411 H       1  UNL1        0.0327
     94 H          -7.0941   -7.0961    1.6638 H       1  UNL1        0.0233
     95 H          -7.6159   -5.4809    1.1278 H       1  UNL1        0.0233
     96 H          -7.2598   -5.7197    2.8599 H       1  UNL1        0.0233
     97 H          -5.9069   -3.9051    0.4652 H       1  UNL1        0.0619
     98 H          -6.4541   -2.7214    2.0955 H       1  UNL1        0.2099
     99 H          -3.7151   -3.8769    2.4982 H       1  UNL1        0.0623
    100 H          -1.6800   -3.0871   -0.5768 H       1  UNL1        0.1495
    101 H          -1.7165   -5.9236   -0.9296 H       1  UNL1        0.0594
    102 H          -3.3180   -5.2265   -2.4102 H       1  UNL1        0.0285
    103 H          -2.2855   -3.8957   -3.1486 H       1  UNL1        0.0285
    104 H          -2.6760   -6.4072   -4.1863 H       1  UNL1        0.0230
    105 H          -1.1890   -5.4073   -4.5086 H       1  UNL1        0.0230
    106 H          -1.2125   -6.6860   -3.2561 H       1  UNL1        0.0230
    107 H           1.1731   -6.9355   -2.9503 H       1  UNL1        0.0429
    108 H           1.1084   -5.5688   -4.2190 H       1  UNL1        0.0429
    109 H           2.5463   -5.9872   -3.3272 H       1  UNL1        0.0429
    110 H           2.1409   -3.1823   -1.3906 H       1  UNL1        0.0560
    111 H           2.8828   -3.8906   -2.8096 H       1  UNL1        0.0560
    112 H           5.4171   -6.4087    1.1135 H       1  UNL1        0.0429
    113 H           4.2287   -7.1990    0.0894 H       1  UNL1        0.0429
    114 H           3.6102   -6.2564    1.4318 H       1  UNL1        0.0429
    115 H           6.2260   -4.8831    0.5915 H       1  UNL1        0.0597
    116 H           5.7161   -3.4468   -2.1014 H       1  UNL1        0.0290
    117 H           7.1800   -3.5450   -1.1513 H       1  UNL1        0.0290
    118 H           5.9081   -6.0879   -2.2638 H       1  UNL1        0.0296
    119 H           8.1731   -5.4680   -0.3879 H       1  UNL1        0.0232
    120 H           8.3698   -6.7346   -1.7341 H       1  UNL1        0.0232
    121 H           7.1128   -6.9080   -0.5088 H       1  UNL1        0.0232
    122 H           6.9697   -5.0466   -4.1808 H       1  UNL1        0.0232
    123 H           8.3615   -5.8354   -3.3970 H       1  UNL1        0.0232
    124 H           8.0486   -4.0675   -3.1065 H       1  UNL1        0.0232
    125 H           7.1388   -1.7407    0.8274 H       1  UNL1        0.1495
    126 H           4.5544   -0.9761    1.9323 H       1  UNL1        0.0597
    127 H           5.9083   -2.0412    3.5449 H       1  UNL1        0.0318
    128 H           8.0612   -1.0829    4.3391 H       1  UNL1        0.0233
    129 H           8.0118    0.1198    3.0421 H       1  UNL1        0.0233
    130 H           8.1529   -1.6389    2.6197 H       1  UNL1        0.0233
    131 H           6.1453    0.8339    4.4234 H       1  UNL1        0.0233
    132 H           5.3801   -0.5847    5.1645 H       1  UNL1        0.0233
    133 H           4.4810    0.2672    3.8982 H       1  UNL1        0.0233
    134 H           5.3977    0.6073   -1.6123 H       1  UNL1        0.0429
    135 H           7.2158    0.4061   -1.4063 H       1  UNL1        0.0429
    136 H           6.5010    1.9400   -1.7770 H       1  UNL1        0.0429
    137 H           6.3232    3.0234    1.6025 H       1  UNL1        0.0597
    138 H           7.9370    4.2915    0.6671 H       1  UNL1        0.0290
    139 H           8.5309    2.7249    1.1793 H       1  UNL1        0.0290
    140 H           8.8383    2.1128   -1.3260 H       1  UNL1        0.0296
    141 H          10.5872    3.7111   -1.5158 H       1  UNL1        0.0232
    142 H           9.9977    4.5403   -0.0481 H       1  UNL1        0.0232
    143 H          10.6023    2.7900    0.0775 H       1  UNL1        0.0232
    144 H           7.5918    4.8767   -1.3849 H       1  UNL1        0.0232
    145 H           9.1326    4.6661   -2.3433 H       1  UNL1        0.0232
    146 H           7.7189    3.6963   -2.7455 H       1  UNL1        0.0232
    147 H           5.4997    5.8068    0.0146 H       1  UNL1        0.1495
    148 H           3.9831    6.4108   -1.3215 H       1  UNL1        0.0592
    149 H           3.1637    3.7633   -2.4628 H       1  UNL1        0.0252
    150 H           4.8509    4.3346   -2.6397 H       1  UNL1        0.0252
    151 H           3.5569    5.3903   -3.2142 H       1  UNL1        0.0252
    152 H           0.6636    5.3749   -1.0152 H       1  UNL1        0.1495
    153 H           1.0633    5.0329    1.8177 H       1  UNL1        0.0592
    154 H           0.3108    2.8780   -0.0080 H       1  UNL1        0.0252
    155 H           1.4750    2.8468    1.4007 H       1  UNL1        0.0252
    156 H          -0.3728    2.9489    1.6271 H       1  UNL1        0.0252
    157 H          -1.6954    7.3949   -0.8807 H       1  UNL1        0.0429
    158 H          -3.2726    6.6337   -0.9787 H       1  UNL1        0.0429
    159 H          -1.9441    5.7589   -1.6086 H       1  UNL1        0.0429
    160 H          -3.0388    5.5273    2.4035 H       1  UNL1        0.0597
    161 H          -3.0777    7.7310    2.5198 H       1  UNL1        0.0290
    162 H          -4.6944    7.1370    2.3225 H       1  UNL1        0.0290
    163 H          -3.4698    8.7337    0.0079 H       1  UNL1        0.0296
    164 H          -5.0841   10.3258    0.9704 H       1  UNL1        0.0232
    165 H          -5.0240    9.2765    2.5072 H       1  UNL1        0.0232
    166 H          -3.5765   10.1091    1.8893 H       1  UNL1        0.0232
    167 H          -5.7584    8.8536   -0.6454 H       1  UNL1        0.0232
    168 H          -6.2329    8.0839    0.8721 H       1  UNL1        0.0232
    169 H          -5.4891    7.1033   -0.4947 H       1  UNL1        0.0232
    170 H          -7.0189    5.4663    1.7926 H       1  UNL1        0.0429
    171 H          -7.3694    3.7787    1.6471 H       1  UNL1        0.0429
    172 H          -6.2922    4.2675    2.9347 H       1  UNL1        0.0429
    173 H          -6.6506    2.7481    0.4520 H       1  UNL1        0.0597
    174 H          -5.1204    3.8690   -1.8782 H       1  UNL1        0.0290
    175 H          -6.2810    2.5132   -1.8482 H       1  UNL1        0.0290
    176 H          -7.0019    5.3406   -0.9822 H       1  UNL1        0.0296
    177 H          -7.0813    3.7895   -3.5985 H       1  UNL1        0.0232
    178 H          -6.7322    5.5748   -3.3142 H       1  UNL1        0.0232
    179 H          -8.3946    4.9234   -3.2114 H       1  UNL1        0.0232
    180 H          -8.3200    2.6985   -0.7608 H       1  UNL1        0.0232
    181 H          -9.1917    3.7881   -1.8372 H       1  UNL1        0.0232
    182 H          -8.8861    4.3551   -0.1850 H       1  UNL1        0.0232
    183 H          -2.0386    1.4905    0.0548 H       1  UNL1        0.0429
    184 H          -2.6606    0.7302    1.5755 H       1  UNL1        0.0429
    185 H          -2.2387   -0.2540    0.1756 H       1  UNL1        0.0429
    186 H          -5.6410   -0.3393   -0.9264 H       1  UNL1        0.0599
    187 H          -4.2803   -1.4970   -2.4162 H       1  UNL1        0.0318
    188 H          -1.9085   -1.2573   -1.9098 H       1  UNL1        0.0233
    189 H          -2.2858   -0.4778   -3.4101 H       1  UNL1        0.0233
    190 H          -2.0534    0.5911   -2.0643 H       1  UNL1        0.0233
    191 H          -5.8275    0.3725   -2.8633 H       1  UNL1        0.0233
    192 H          -4.5435    0.1895   -4.0587 H       1  UNL1        0.0233
    193 H          -4.3515    1.5138   -2.8995 H       1  UNL1        0.0233
    194 H          -2.7214   -1.2574    2.7702 H       1  UNL1        0.0429
    195 H          -3.8035   -2.4424    3.4731 H       1  UNL1        0.0429
    196 H          -4.5317   -0.9313    3.0783 H       1  UNL1        0.0429
@<TRIPOS>BOND
     1     1     2    1
     2     2     3    2
     3     3     4    1
     4     4     5    1
     5     5     6    1
     6     5     7    1
     7     7     8    1
     8     7     9    1
     9     9    10    1
    10    10    11    2
    11    10    12   am
    12    12    13    1
    13    13    14    1
    14    14    15    1
    15    13    16    1
    16    16    17    2
    17    16    18   am
    18    18    19    1
    19    18    20    1
    20    20    21    1
    21    21    22    2
    22    21    23   am
    23    23    24    1
    24    23    25    1
    25    25    26    1
    26    26    27    1
    27    27    28    1
    28    27    29    1
    29    25    30    1
    30    30    31    2
    31    30    32   am
    32    32    33    1
    33    33    34    1
    34    34    35    1
    35    34    36    1
    36    33    37    1
    37    37    38    2
    38    37    39   am
    39    39    40    1
    40    39    41    1
    41    41    42    1
    42    42    43    1
    43    43    44    1
    44    43    45    1
    45    41    46    1
    46    46    47    2
    47    46    48   am
    48    48    49    1
    49    49    50    1
    50    49    51    1
    51    51    52    2
    52    51    53   am
    53    53    54    1
    54    54    55    1
    55    54    56    1
    56    56    57    2
    57    56    58   am
    58    58    59    1
    59    58    60    1
    60    60    61    1
    61    61    62    1
    62    62    63    1
    63    62    64    1
    64    60    65    1
    65    65    66    2
    66    65    67   am
    67    67    68    1
    68    67    69    1
    69    69    70    1
    70    70    71    1
    71    71    72    1
    72    71    73    1
    73    69    74    1
    74    74    75    2
    75    74    76   am
    76    76    77    1
    77    76    78    1
    78    78    79    1
    79    79    80    1
    80    79    81    1
    81    78    82    1
    82    82    83    2
    83    82    84   am
    84    84    85    1
    85    84     9    1
    86     1    86    1
    87     1    87    1
    88     1    88    1
    89     2    89    1
    90     3    90    1
    91     4    91    1
    92     4    92    1
    93     5    93    1
    94     6    94    1
    95     6    95    1
    96     6    96    1
    97     7    97    1
    98     8    98    1
    99     9    99    1
   100    12   100    1
   101    13   101    1
   102    14   102    1
   103    14   103    1
   104    15   104    1
   105    15   105    1
   106    15   106    1
   107    19   107    1
   108    19   108    1
   109    19   109    1
   110    20   110    1
   111    20   111    1
   112    24   112    1
   113    24   113    1
   114    24   114    1
   115    25   115    1
   116    26   116    1
   117    26   117    1
   118    27   118    1
   119    28   119    1
   120    28   120    1
   121    28   121    1
   122    29   122    1
   123    29   123    1
   124    29   124    1
   125    32   125    1
   126    33   126    1
   127    34   127    1
   128    35   128    1
   129    35   129    1
   130    35   130    1
   131    36   131    1
   132    36   132    1
   133    36   133    1
   134    40   134    1
   135    40   135    1
   136    40   136    1
   137    41   137    1
   138    42   138    1
   139    42   139    1
   140    43   140    1
   141    44   141    1
   142    44   142    1
   143    44   143    1
   144    45   144    1
   145    45   145    1
   146    45   146    1
   147    48   147    1
   148    49   148    1
   149    50   149    1
   150    50   150    1
   151    50   151    1
   152    53   152    1
   153    54   153    1
   154    55   154    1
   155    55   155    1
   156    55   156    1
   157    59   157    1
   158    59   158    1
   159    59   159    1
   160    60   160    1
   161    61   161    1
   162    61   162    1
   163    62   163    1
   164    63   164    1
   165    63   165    1
   166    63   166    1
   167    64   167    1
   168    64   168    1
   169    64   169    1
   170    68   170    1
   171    68   171    1
   172    68   172    1
   173    69   173    1
   174    70   174    1
   175    70   175    1
   176    71   176    1
   177    72   177    1
   178    72   178    1
   179    72   179    1
   180    73   180    1
   181    73   181    1
   182    73   182    1
   183    77   183    1
   184    77   184    1
   185    77   185    1
   186    78   186    1
   187    79   187    1
   188    80   188    1
   189    80   189    1
   190    80   190    1
   191    81   191    1
   192    81   192    1
   193    81   193    1
   194    85   194    1
   195    85   195    1
   196    85   196    1
