
     RDKit          3D

196196  0  0  0  0  0  0  0  0999 V2000
   -4.2015   -9.7591    3.5797 C   0  0  0  0  0  0  0  0  0  0  0  0
   -4.0849   -8.3021    3.3154 C   0  0  0  0  0  0  0  0  0  0  0  0
   -5.1095   -7.4855    3.1723 C   0  0  0  0  0  0  0  0  0  0  0  0
   -4.8488   -6.0292    2.9080 C   0  0  0  0  0  0  0  0  0  0  0  0
   -5.4783   -5.6723    1.5807 C   0  0  1  0  0  0  0  0  0  0  0  0
   -7.0002   -6.0275    1.8424 C   0  0  0  0  0  0  0  0  0  0  0  0
   -5.4065   -4.1995    1.3783 C   0  0  1  0  0  0  0  0  0  0  0  0
   -6.1473   -3.5696    2.4503 O   0  0  0  0  0  0  0  0  0  0  0  0
   -4.0102   -3.6813    1.4457 C   0  0  1  0  0  0  0  0  0  0  0  0
   -3.1313   -4.2993    0.4676 C   0  0  0  0  0  0  0  0  0  0  0  0
   -3.2600   -5.6026    0.3360 O   0  0  0  0  0  0  0  0  0  0  0  0
   -2.1288   -3.9587   -0.4353 N   0  0  0  0  0  0  0  0  0  0  0  0
   -1.4870   -4.9521   -1.3898 C   0  0  1  0  0  0  0  0  0  0  0  0
   -2.2590   -4.9019   -2.6655 C   0  0  0  0  0  0  0  0  0  0  0  0
   -1.7944   -5.8596   -3.7199 C   0  0  0  0  0  0  0  0  0  0  0  0
   -0.0624   -4.6448   -1.5658 C   0  0  0  0  0  0  0  0  0  0  0  0
    0.2538   -3.6538   -0.7286 O   0  0  0  0  0  0  0  0  0  0  0  0
    1.1125   -4.9038   -2.1992 N   0  0  0  0  0  0  0  0  0  0  0  0
    1.4367   -5.8593   -3.1851 C   0  0  0  0  0  0  0  0  0  0  0  0
    2.3894   -4.1478   -1.8575 C   0  0  0  0  0  0  0  0  0  0  0  0
    3.1728   -4.9306   -0.8996 C   0  0  0  0  0  0  0  0  0  0  0  0
    2.5030   -5.9996   -0.5257 O   0  0  0  0  0  0  0  0  0  0  0  0
    4.3520   -5.0549   -0.1908 N   0  0  0  0  0  0  0  0  0  0  0  0
    4.4174   -6.2862    0.6756 C   0  0  0  0  0  0  0  0  0  0  0  0
    5.5259   -4.2854   -0.0930 C   0  0  1  0  0  0  0  0  0  0  0  0
    6.2571   -4.1010   -1.3778 C   0  0  0  0  0  0  0  0  0  0  0  0
    6.7194   -5.3837   -2.0296 C   0  0  0  0  0  0  0  0  0  0  0  0
    7.6708   -6.1500   -1.1054 C   0  0  0  0  0  0  0  0  0  0  0  0
    7.5807   -5.0572   -3.2642 C   0  0  0  0  0  0  0  0  0  0  0  0
    5.3721   -3.0024    0.6458 C   0  0  0  0  0  0  0  0  0  0  0  0
    4.1504   -2.8348    1.0499 O   0  0  0  0  0  0  0  0  0  0  0  0
    6.1531   -1.9492    1.0206 N   0  0  0  0  0  0  0  0  0  0  0  0
    5.6364   -0.8321    1.8416 C   0  0  1  0  0  0  0  0  0  0  0  0
    6.1829   -0.9779    3.2531 C   0  0  0  0  0  0  0  0  0  0  0  0
    7.6749   -0.9295    3.3094 C   0  0  0  0  0  0  0  0  0  0  0  0
    5.5049   -0.0420    4.1677 C   0  0  0  0  0  0  0  0  0  0  0  0
    5.8797    0.5136    1.2726 C   0  0  0  0  0  0  0  0  0  0  0  0
    5.6066    1.3767    2.2601 O   0  0  0  0  0  0  0  0  0  0  0  0
    6.2300    1.3414    0.2446 N   0  0  0  0  0  0  0  0  0  0  0  0
    6.3278    1.0530   -1.1307 C   0  0  0  0  0  0  0  0  0  0  0  0
    6.4750    2.8165    0.4997 C   0  0  1  0  0  0  0  0  0  0  0  0
    7.8913    3.1957    0.3554 C   0  0  0  0  0  0  0  0  0  0  0  0
    8.6526    3.0759   -0.8796 C   0  0  0  0  0  0  0  0  0  0  0  0
   10.0987    3.5593   -0.5264 C   0  0  0  0  0  0  0  0  0  0  0  0
    8.2483    4.1670   -1.8963 C   0  0  0  0  0  0  0  0  0  0  0  0
    5.4422    3.6269   -0.1415 C   0  0  0  0  0  0  0  0  0  0  0  0
    4.5164    2.9589   -0.8123 O   0  0  0  0  0  0  0  0  0  0  0  0
    5.0564    4.9546   -0.3112 N   0  0  0  0  0  0  0  0  0  0  0  0
    3.8125    5.3497   -1.0786 C   0  0  1  0  0  0  0  0  0  0  0  0
    3.8113    4.6363   -2.4107 C   0  0  0  0  0  0  0  0  0  0  0  0
    2.6573    5.1011   -0.2252 C   0  0  0  0  0  0  0  0  0  0  0  0
    3.0028    4.7202    0.9901 O   0  0  0  0  0  0  0  0  0  0  0  0
    1.2867    5.1234   -0.2520 N   0  0  0  0  0  0  0  0  0  0  0  0
    0.5054    4.7687    0.9110 C   0  0  2  0  0  0  0  0  0  0  0  0
    0.5149    3.2028    1.0314 C   0  0  0  0  0  0  0  0  0  0  0  0
   -0.8731    5.2302    1.0191 C   0  0  0  0  0  0  0  0  0  0  0  0
   -1.3384    4.8508    2.2423 O   0  0  0  0  0  0  0  0  0  0  0  0
   -2.0120    5.8531    0.5570 N   0  0  0  0  0  0  0  0  0  0  0  0
   -2.2103    6.4247   -0.7210 C   0  0  0  0  0  0  0  0  0  0  0  0
   -3.2880    5.9874    1.3734 C   0  0  1  0  0  0  0  0  0  0  0  0
   -3.7417    7.3077    1.6871 C   0  0  0  0  0  0  0  0  0  0  0  0
   -4.1431    8.3478    0.7389 C   0  0  0  0  0  0  0  0  0  0  0  0
   -4.5190    9.6078    1.5959 C   0  0  0  0  0  0  0  0  0  0  0  0
   -5.4897    8.0566    0.0449 C   0  0  0  0  0  0  0  0  0  0  0  0
   -4.2276    4.9656    0.8405 C   0  0  0  0  0  0  0  0  0  0  0  0
   -3.7547    4.4930   -0.2805 O   0  0  0  0  0  0  0  0  0  0  0  0
   -5.3994    4.2759    0.9885 N   0  0  0  0  0  0  0  0  0  0  0  0
   -6.5017    4.4614    1.8636 C   0  0  0  0  0  0  0  0  0  0  0  0
   -5.6758    3.1106    0.0643 C   0  0  1  0  0  0  0  0  0  0  0  0
   -5.9580    3.4751   -1.3240 C   0  0  0  0  0  0  0  0  0  0  0  0
   -7.1547    4.3868   -1.5209 C   0  0  0  0  0  0  0  0  0  0  0  0
   -7.3270    4.6898   -3.0170 C   0  0  0  0  0  0  0  0  0  0  0  0
   -8.4272    3.7753   -1.0372 C   0  0  0  0  0  0  0  0  0  0  0  0
   -4.5741    2.1226    0.2708 C   0  0  0  0  0  0  0  0  0  0  0  0
   -3.6026    2.5502    1.0583 O   0  0  0  0  0  0  0  0  0  0  0  0
   -4.1106    0.8600   -0.0224 N   0  0  0  0  0  0  0  0  0  0  0  0
   -2.6578    0.6677    0.4590 C   0  0  0  0  0  0  0  0  0  0  0  0
   -4.5074   -0.3319   -0.6166 C   0  0  1  0  0  0  0  0  0  0  0  0
   -3.9671   -0.4641   -2.0532 C   0  0  0  0  0  0  0  0  0  0  0  0
   -2.5189   -0.4181   -2.2764 C   0  0  0  0  0  0  0  0  0  0  0  0
   -4.7094    0.4730   -2.9748 C   0  0  0  0  0  0  0  0  0  0  0  0
   -4.3083   -1.6013    0.1521 C   0  0  0  0  0  0  0  0  0  0  0  0
   -4.4439   -2.6270   -0.6431 O   0  0  0  0  0  0  0  0  0  0  0  0
   -4.0342   -2.1662    1.3715 N   0  0  0  0  0  0  0  0  0  0  0  0
   -3.7731   -1.6668    2.6686 C   0  0  0  0  0  0  0  0  0  0  0  0
   -3.2645  -10.2470    3.2955 H   0  0  0  0  0  0  0  0  0  0  0  0
   -4.4193   -9.8508    4.6736 H   0  0  0  0  0  0  0  0  0  0  0  0
   -5.0779  -10.1904    3.0492 H   0  0  0  0  0  0  0  0  0  0  0  0
   -3.0765   -7.8620    3.2300 H   0  0  0  0  0  0  0  0  0  0  0  0
   -6.1031   -7.8702    3.2496 H   0  0  0  0  0  0  0  0  0  0  0  0
   -3.7837   -5.8074    2.9762 H   0  0  0  0  0  0  0  0  0  0  0  0
   -5.3378   -5.4525    3.7451 H   0  0  0  0  0  0  0  0  0  0  0  0
   -5.2281   -6.2905    0.7411 H   0  0  0  0  0  0  0  0  0  0  0  0
   -7.0941   -7.0961    1.6638 H   0  0  0  0  0  0  0  0  0  0  0  0
   -7.6159   -5.4809    1.1278 H   0  0  0  0  0  0  0  0  0  0  0  0
   -7.2598   -5.7197    2.8599 H   0  0  0  0  0  0  0  0  0  0  0  0
   -5.9069   -3.9051    0.4652 H   0  0  0  0  0  0  0  0  0  0  0  0
   -6.4541   -2.7214    2.0955 H   0  0  0  0  0  0  0  0  0  0  0  0
   -3.7151   -3.8769    2.4982 H   0  0  0  0  0  0  0  0  0  0  0  0
   -1.6800   -3.0871   -0.5768 H   0  0  0  0  0  0  0  0  0  0  0  0
   -1.7165   -5.9236   -0.9296 H   0  0  0  0  0  0  0  0  0  0  0  0
   -3.3180   -5.2265   -2.4102 H   0  0  0  0  0  0  0  0  0  0  0  0
   -2.2855   -3.8957   -3.1486 H   0  0  0  0  0  0  0  0  0  0  0  0
   -2.6760   -6.4072   -4.1863 H   0  0  0  0  0  0  0  0  0  0  0  0
   -1.1890   -5.4073   -4.5086 H   0  0  0  0  0  0  0  0  0  0  0  0
   -1.2125   -6.6860   -3.2561 H   0  0  0  0  0  0  0  0  0  0  0  0
    1.1731   -6.9355   -2.9503 H   0  0  0  0  0  0  0  0  0  0  0  0
    1.1084   -5.5688   -4.2190 H   0  0  0  0  0  0  0  0  0  0  0  0
    2.5463   -5.9872   -3.3272 H   0  0  0  0  0  0  0  0  0  0  0  0
    2.1409   -3.1823   -1.3906 H   0  0  0  0  0  0  0  0  0  0  0  0
    2.8828   -3.8906   -2.8096 H   0  0  0  0  0  0  0  0  0  0  0  0
    5.4171   -6.4087    1.1135 H   0  0  0  0  0  0  0  0  0  0  0  0
    4.2287   -7.1990    0.0894 H   0  0  0  0  0  0  0  0  0  0  0  0
    3.6102   -6.2564    1.4318 H   0  0  0  0  0  0  0  0  0  0  0  0
    6.2260   -4.8831    0.5915 H   0  0  0  0  0  0  0  0  0  0  0  0
    5.7161   -3.4468   -2.1014 H   0  0  0  0  0  0  0  0  0  0  0  0
    7.1800   -3.5450   -1.1513 H   0  0  0  0  0  0  0  0  0  0  0  0
    5.9081   -6.0879   -2.2638 H   0  0  0  0  0  0  0  0  0  0  0  0
    8.1731   -5.4680   -0.3879 H   0  0  0  0  0  0  0  0  0  0  0  0
    8.3698   -6.7346   -1.7341 H   0  0  0  0  0  0  0  0  0  0  0  0
    7.1128   -6.9080   -0.5088 H   0  0  0  0  0  0  0  0  0  0  0  0
    6.9697   -5.0466   -4.1808 H   0  0  0  0  0  0  0  0  0  0  0  0
    8.3615   -5.8354   -3.3970 H   0  0  0  0  0  0  0  0  0  0  0  0
    8.0486   -4.0675   -3.1065 H   0  0  0  0  0  0  0  0  0  0  0  0
    7.1388   -1.7407    0.8274 H   0  0  0  0  0  0  0  0  0  0  0  0
    4.5544   -0.9761    1.9323 H   0  0  0  0  0  0  0  0  0  0  0  0
    5.9083   -2.0412    3.5449 H   0  0  0  0  0  0  0  0  0  0  0  0
    8.0612   -1.0829    4.3391 H   0  0  0  0  0  0  0  0  0  0  0  0
    8.0118    0.1198    3.0421 H   0  0  0  0  0  0  0  0  0  0  0  0
    8.1529   -1.6389    2.6197 H   0  0  0  0  0  0  0  0  0  0  0  0
    6.1453    0.8339    4.4234 H   0  0  0  0  0  0  0  0  0  0  0  0
    5.3801   -0.5847    5.1645 H   0  0  0  0  0  0  0  0  0  0  0  0
    4.4810    0.2672    3.8982 H   0  0  0  0  0  0  0  0  0  0  0  0
    5.3977    0.6073   -1.6123 H   0  0  0  0  0  0  0  0  0  0  0  0
    7.2158    0.4061   -1.4063 H   0  0  0  0  0  0  0  0  0  0  0  0
    6.5010    1.9400   -1.7770 H   0  0  0  0  0  0  0  0  0  0  0  0
    6.3232    3.0234    1.6025 H   0  0  0  0  0  0  0  0  0  0  0  0
    7.9370    4.2915    0.6671 H   0  0  0  0  0  0  0  0  0  0  0  0
    8.5309    2.7249    1.1793 H   0  0  0  0  0  0  0  0  0  0  0  0
    8.8383    2.1128   -1.3260 H   0  0  0  0  0  0  0  0  0  0  0  0
   10.5872    3.7111   -1.5158 H   0  0  0  0  0  0  0  0  0  0  0  0
    9.9977    4.5403   -0.0481 H   0  0  0  0  0  0  0  0  0  0  0  0
   10.6023    2.7900    0.0775 H   0  0  0  0  0  0  0  0  0  0  0  0
    7.5918    4.8767   -1.3849 H   0  0  0  0  0  0  0  0  0  0  0  0
    9.1326    4.6661   -2.3433 H   0  0  0  0  0  0  0  0  0  0  0  0
    7.7189    3.6963   -2.7455 H   0  0  0  0  0  0  0  0  0  0  0  0
    5.4997    5.8068    0.0146 H   0  0  0  0  0  0  0  0  0  0  0  0
    3.9831    6.4108   -1.3215 H   0  0  0  0  0  0  0  0  0  0  0  0
    3.1637    3.7633   -2.4628 H   0  0  0  0  0  0  0  0  0  0  0  0
    4.8509    4.3346   -2.6397 H   0  0  0  0  0  0  0  0  0  0  0  0
    3.5569    5.3903   -3.2142 H   0  0  0  0  0  0  0  0  0  0  0  0
    0.6636    5.3749   -1.0152 H   0  0  0  0  0  0  0  0  0  0  0  0
    1.0633    5.0329    1.8177 H   0  0  0  0  0  0  0  0  0  0  0  0
    0.3108    2.8780   -0.0080 H   0  0  0  0  0  0  0  0  0  0  0  0
    1.4750    2.8468    1.4007 H   0  0  0  0  0  0  0  0  0  0  0  0
   -0.3728    2.9489    1.6271 H   0  0  0  0  0  0  0  0  0  0  0  0
   -1.6954    7.3949   -0.8807 H   0  0  0  0  0  0  0  0  0  0  0  0
   -3.2726    6.6337   -0.9787 H   0  0  0  0  0  0  0  0  0  0  0  0
   -1.9441    5.7589   -1.6086 H   0  0  0  0  0  0  0  0  0  0  0  0
   -3.0388    5.5273    2.4035 H   0  0  0  0  0  0  0  0  0  0  0  0
   -3.0777    7.7310    2.5198 H   0  0  0  0  0  0  0  0  0  0  0  0
   -4.6944    7.1370    2.3225 H   0  0  0  0  0  0  0  0  0  0  0  0
   -3.4698    8.7337    0.0079 H   0  0  0  0  0  0  0  0  0  0  0  0
   -5.0841   10.3258    0.9704 H   0  0  0  0  0  0  0  0  0  0  0  0
   -5.0240    9.2765    2.5072 H   0  0  0  0  0  0  0  0  0  0  0  0
   -3.5765   10.1091    1.8893 H   0  0  0  0  0  0  0  0  0  0  0  0
   -5.7584    8.8536   -0.6454 H   0  0  0  0  0  0  0  0  0  0  0  0
   -6.2329    8.0839    0.8721 H   0  0  0  0  0  0  0  0  0  0  0  0
   -5.4891    7.1033   -0.4947 H   0  0  0  0  0  0  0  0  0  0  0  0
   -7.0189    5.4663    1.7926 H   0  0  0  0  0  0  0  0  0  0  0  0
   -7.3694    3.7787    1.6471 H   0  0  0  0  0  0  0  0  0  0  0  0
   -6.2922    4.2675    2.9347 H   0  0  0  0  0  0  0  0  0  0  0  0
   -6.6506    2.7481    0.4520 H   0  0  0  0  0  0  0  0  0  0  0  0
   -5.1204    3.8690   -1.8782 H   0  0  0  0  0  0  0  0  0  0  0  0
   -6.2810    2.5132   -1.8482 H   0  0  0  0  0  0  0  0  0  0  0  0
   -7.0019    5.3406   -0.9822 H   0  0  0  0  0  0  0  0  0  0  0  0
   -7.0813    3.7895   -3.5985 H   0  0  0  0  0  0  0  0  0  0  0  0
   -6.7322    5.5748   -3.3142 H   0  0  0  0  0  0  0  0  0  0  0  0
   -8.3946    4.9234   -3.2114 H   0  0  0  0  0  0  0  0  0  0  0  0
   -8.3200    2.6985   -0.7608 H   0  0  0  0  0  0  0  0  0  0  0  0
   -9.1917    3.7881   -1.8372 H   0  0  0  0  0  0  0  0  0  0  0  0
   -8.8861    4.3551   -0.1850 H   0  0  0  0  0  0  0  0  0  0  0  0
   -2.0386    1.4905    0.0548 H   0  0  0  0  0  0  0  0  0  0  0  0
   -2.6606    0.7302    1.5755 H   0  0  0  0  0  0  0  0  0  0  0  0
   -2.2387   -0.2540    0.1756 H   0  0  0  0  0  0  0  0  0  0  0  0
   -5.6410   -0.3393   -0.9264 H   0  0  0  0  0  0  0  0  0  0  0  0
   -4.2803   -1.4970   -2.4162 H   0  0  0  0  0  0  0  0  0  0  0  0
   -1.9085   -1.2573   -1.9098 H   0  0  0  0  0  0  0  0  0  0  0  0
   -2.2858   -0.4778   -3.4101 H   0  0  0  0  0  0  0  0  0  0  0  0
   -2.0534    0.5911   -2.0643 H   0  0  0  0  0  0  0  0  0  0  0  0
   -5.8275    0.3725   -2.8633 H   0  0  0  0  0  0  0  0  0  0  0  0
   -4.5435    0.1895   -4.0587 H   0  0  0  0  0  0  0  0  0  0  0  0
   -4.3515    1.5138   -2.8995 H   0  0  0  0  0  0  0  0  0  0  0  0
   -2.7214   -1.2574    2.7702 H   0  0  0  0  0  0  0  0  0  0  0  0
   -3.8035   -2.4424    3.4731 H   0  0  0  0  0  0  0  0  0  0  0  0
   -4.5317   -0.9313    3.0783 H   0  0  0  0  0  0  0  0  0  0  0  0
  1  2  1  0
  2  3  2  0
  3  4  1  0
  4  5  1  0
  5  6  1  0
  5  7  1  0
  7  8  1  0
  7  9  1  0
  9 10  1  0
 10 11  2  0
 10 12  1  0
 12 13  1  0
 13 14  1  0
 14 15  1  0
 13 16  1  0
 16 17  2  0
 16 18  1  0
 18 19  1  0
 18 20  1  0
 20 21  1  0
 21 22  2  0
 21 23  1  0
 23 24  1  0
 23 25  1  0
 25 26  1  0
 26 27  1  0
 27 28  1  0
 27 29  1  0
 25 30  1  0
 30 31  2  0
 30 32  1  0
 32 33  1  0
 33 34  1  0
 34 35  1  0
 34 36  1  0
 33 37  1  0
 37 38  2  0
 37 39  1  0
 39 40  1  0
 39 41  1  0
 41 42  1  0
 42 43  1  0
 43 44  1  0
 43 45  1  0
 41 46  1  0
 46 47  2  0
 46 48  1  0
 48 49  1  0
 49 50  1  0
 49 51  1  0
 51 52  2  0
 51 53  1  0
 53 54  1  0
 54 55  1  0
 54 56  1  0
 56 57  2  0
 56 58  1  0
 58 59  1  0
 58 60  1  0
 60 61  1  0
 61 62  1  0
 62 63  1  0
 62 64  1  0
 60 65  1  0
 65 66  2  0
 65 67  1  0
 67 68  1  0
 67 69  1  0
 69 70  1  0
 70 71  1  0
 71 72  1  0
 71 73  1  0
 69 74  1  0
 74 75  2  0
 74 76  1  0
 76 77  1  0
 76 78  1  0
 78 79  1  0
 79 80  1  0
 79 81  1  0
 78 82  1  0
 82 83  2  0
 82 84  1  0
 84 85  1  0
 84  9  1  0
  1 86  1  0
  1 87  1  0
  1 88  1  0
  2 89  1  0
  3 90  1  0
  4 91  1  0
  4 92  1  0
  5 93  1  6
  6 94  1  0
  6 95  1  0
  6 96  1  0
  7 97  1  6
  8 98  1  0
  9 99  1  1
 12100  1  0
 13101  1  1
 14102  1  0
 14103  1  0
 15104  1  0
 15105  1  0
 15106  1  0
 19107  1  0
 19108  1  0
 19109  1  0
 20110  1  0
 20111  1  0
 24112  1  0
 24113  1  0
 24114  1  0
 25115  1  1
 26116  1  0
 26117  1  0
 27118  1  0
 28119  1  0
 28120  1  0
 28121  1  0
 29122  1  0
 29123  1  0
 29124  1  0
 32125  1  0
 33126  1  1
 34127  1  0
 35128  1  0
 35129  1  0
 35130  1  0
 36131  1  0
 36132  1  0
 36133  1  0
 40134  1  0
 40135  1  0
 40136  1  0
 41137  1  1
 42138  1  0
 42139  1  0
 43140  1  0
 44141  1  0
 44142  1  0
 44143  1  0
 45144  1  0
 45145  1  0
 45146  1  0
 48147  1  0
 49148  1  6
 50149  1  0
 50150  1  0
 50151  1  0
 53152  1  0
 54153  1  1
 55154  1  0
 55155  1  0
 55156  1  0
 59157  1  0
 59158  1  0
 59159  1  0
 60160  1  1
 61161  1  0
 61162  1  0
 62163  1  0
 63164  1  0
 63165  1  0
 63166  1  0
 64167  1  0
 64168  1  0
 64169  1  0
 68170  1  0
 68171  1  0
 68172  1  0
 69173  1  1
 70174  1  0
 70175  1  0
 71176  1  0
 72177  1  0
 72178  1  0
 72179  1  0
 73180  1  0
 73181  1  0
 73182  1  0
 77183  1  0
 77184  1  0
 77185  1  0
 78186  1  6
 79187  1  0
 80188  1  0
 80189  1  0
 80190  1  0
 81191  1  0
 81192  1  0
 81193  1  0
 85194  1  0
 85195  1  0
 85196  1  0
M  END
$$$$
