@<TRIPOS>MOLECULE
*****
 70 70 0 0 0
SMALL
GASTEIGER

@<TRIPOS>ATOM
      1 NA          0.0000    0.0000    0.0000 Na      1  UNL1        0.0000
      2 NA          0.0000    0.0000    0.0000 Na      2  UNL2        0.0000
      3 N           3.8550   -0.4778   -1.5495 N.3     3  UNL3        0.0000
      4 CA          4.2817   -0.1863   -0.1935 C.3     3  UNL3        0.0000
      5 C           3.7558    1.1460    0.2780 C.3     3  UNL3        0.0000
      6 C           2.2770    1.2088    0.2740 C.ar    3  UNL3        0.0000
      7 C           1.5910    0.8191    1.4295 C.ar    3  UNL3        0.0000
      8 C           0.2074    0.8475    1.5092 C.ar    3  UNL3        0.0000
      9 I          -0.6722    0.2288    3.3196 I       3  UNL3        0.0000
     10 C          -0.5401    1.2749    0.4140 C.ar    3  UNL3        0.0000
     11 O          -1.9209    1.2794    0.5598 O.3     3  UNL3        0.0000
     12 C          -2.7665    0.2455    0.2693 C.ar    3  UNL3        0.0000
     13 C          -4.1078    0.5398    0.5172 C.ar    3  UNL3        0.0000
     14 C          -5.1236   -0.3651    0.2917 C.ar    3  UNL3        0.0000
     15 I          -7.1444    0.0936    0.6708 I       3  UNL3        0.0000
     16 C          -4.7967   -1.6183   -0.2015 C.ar    3  UNL3        0.0000
     17 O          -5.7463   -2.6013   -0.4625 O.3     3  UNL3        0.0000
     18 C          -3.4758   -1.9263   -0.4523 C.ar    3  UNL3        0.0000
     19 C          -2.4548   -1.0248   -0.2287 C.ar    3  UNL3        0.0000
     20 C           0.1479    1.6518   -0.7063 C.ar    3  UNL3        0.0000
     21 I          -1.0159    2.2929   -2.3444 I       3  UNL3        0.0000
     22 C           1.5231    1.6243   -0.7877 C.ar    3  UNL3        0.0000
     23 C           3.9694   -1.2877    0.7227 C.2     3  UNL3        0.0000
     24 O           2.9993   -2.2280    0.3665 O.co2   3  UNL3       -0.5000
     25 OXT         4.6618   -1.2213    1.7576 O.co2   3  UNL3       -0.5000
     26 N          -4.3710    1.0280   -0.2267 N.3     4  UNL4        0.0000
     27 CA         -4.4552   -0.3700    0.1521 C.3     4  UNL4        0.0000
     28 C          -3.3579   -0.6484    1.1492 C.3     4  UNL4        0.0000
     29 C          -2.0483   -0.3500    0.4861 C.ar    4  UNL4        0.0000
     30 C          -1.5351    0.9250    0.5834 C.ar    4  UNL4        0.0000
     31 C          -0.3359    1.2802    0.0016 C.ar    4  UNL4        0.0000
     32 I           0.5276    3.1968    0.0947 I       4  UNL4        0.0000
     33 C           0.3826    0.3151   -0.7102 C.ar    4  UNL4        0.0000
     34 O           1.5916    0.4927   -1.3525 O.3     4  UNL4        0.0000
     35 C           2.8361    0.3183   -0.8263 C.ar    4  UNL4        0.0000
     36 C           3.2213   -0.0732    0.4586 C.ar    4  UNL4        0.0000
     37 C           4.5375   -0.1908    0.7927 C.ar    4  UNL4        0.0000
     38 I           5.0021   -0.7885    2.7598 I       4  UNL4        0.0000
     39 C           5.5437    0.0717   -0.1230 C.ar    4  UNL4        0.0000
     40 O           6.8807   -0.0498    0.2230 O.3     4  UNL4        0.0000
     41 C           5.1893    0.4618   -1.4047 C.ar    4  UNL4        0.0000
     42 I           6.7448    0.8526   -2.7708 I       4  UNL4        0.0000
     43 C           3.8515    0.5761   -1.7271 C.ar    4  UNL4        0.0000
     44 C          -0.1451   -0.9564   -0.7980 C.ar    4  UNL4        0.0000
     45 I           0.8413   -2.5050   -1.8441 I       4  UNL4        0.0000
     46 C          -1.3507   -1.3353   -0.2198 C.ar    4  UNL4        0.0000
     47 C          -5.7483   -0.6957    0.7645 C.2     4  UNL4        0.0000
     48 O          -6.7791   -0.8463   -0.1375 O.co2   4  UNL4       -0.5000
     49 OXT        -6.0360   -0.8539    1.9945 O.co2   4  UNL4       -0.5000
     50 H1          3.7738    0.3464   -2.1487 H       3  UNL3        0.0000
     51 H2          4.5599   -1.1314   -1.9554 H       3  UNL3        0.0000
     52 HA          5.3893   -0.1150   -0.2263 H       3  UNL3        0.0000
     53 H           4.2198    1.9543   -0.3205 H       3  UNL3        0.0000
     54 H           4.1202    1.3089    1.3132 H       3  UNL3        0.0000
     55 H           2.1771    0.4882    2.2764 H       3  UNL3        0.0000
     56 H          -4.4607    1.5049    0.9076 H       3  UNL3        0.0000
     57 H          -6.7193   -2.5207   -0.2135 H       3  UNL3        0.0000
     58 H          -3.1783   -2.9030   -0.8412 H       3  UNL3        0.0000
     59 H          -1.4019   -1.1783   -0.3949 H       3  UNL3        0.0000
     60 H           2.0154    1.9305   -1.6904 H       3  UNL3        0.0000
     61 H1         -4.3441    1.6635    0.5932 H       4  UNL4        0.0000
     62 H2         -5.0874    1.3011   -0.9334 H       4  UNL4        0.0000
     63 HA         -4.2496   -0.9968   -0.7267 H       4  UNL4        0.0000
     64 H          -3.3149   -1.7214    1.4324 H       4  UNL4        0.0000
     65 H          -3.4484   -0.0515    2.0803 H       4  UNL4        0.0000
     66 H          -1.9995    1.7371    1.1015 H       4  UNL4        0.0000
     67 H           2.3635   -0.2577    1.1086 H       4  UNL4        0.0000
     68 H           7.1599   -0.5290    1.0610 H       4  UNL4        0.0000
     69 H           3.7036    0.8881   -2.7579 H       4  UNL4        0.0000
     70 H          -1.7708   -2.3108   -0.2784 H       4  UNL4        0.0000
@<TRIPOS>UNITY_ATOM_ATTR
1 1
charge 1
2 1
charge 1
24 1
charge -1
48 1
charge -1
@<TRIPOS>BOND
     1     3     4    1
     2     4     5    1
     3     5     6    1
     4     6     7   ar
     5     7     8   ar
     6     8     9    1
     7     8    10   ar
     8    10    11    1
     9    11    12    1
    10    12    13   ar
    11    13    14   ar
    12    14    15    1
    13    14    16   ar
    14    16    17    1
    15    16    18   ar
    16    18    19   ar
    17    10    20   ar
    18    20    21    1
    19    20    22   ar
    20     4    23    1
    21    23    24   ar
    22    23    25   ar
    23    26    27    1
    24    27    28    1
    25    28    29    1
    26    29    30   ar
    27    30    31   ar
    28    31    32    1
    29    31    33   ar
    30    33    34    1
    31    34    35    1
    32    35    36   ar
    33    36    37   ar
    34    37    38    1
    35    37    39   ar
    36    39    40    1
    37    39    41   ar
    38    41    42    1
    39    41    43   ar
    40    33    44   ar
    41    44    45    1
    42    44    46   ar
    43    27    47    1
    44    47    48   ar
    45    47    49   ar
    46    22     6   ar
    47    46    29   ar
    48    19    12   ar
    49    43    35   ar
    50     3    50    1
    51     3    51    1
    52     4    52    1
    53     5    53    1
    54     5    54    1
    55     7    55    1
    56    13    56    1
    57    17    57    1
    58    18    58    1
    59    19    59    1
    60    22    60    1
    61    26    61    1
    62    26    62    1
    63    27    63    1
    64    28    64    1
    65    28    65    1
    66    30    66    1
    67    36    67    1
    68    40    68    1
    69    43    69    1
    70    46    70    1
