@<TRIPOS>MOLECULE
*****
 49 51 0 0 0
SMALL
GASTEIGER

@<TRIPOS>ATOM
      1 C          -5.3258    0.7315    1.7511 C.3     1  UNL1       -0.0629
      2 C          -4.6902    0.6156    0.4049 C.3     1  UNL1       -0.0261
      3 C          -4.4411   -0.8246   -0.0135 C.3     1  UNL1        0.1081
      4 C          -5.7399   -1.6004   -0.0713 C.3     1  UNL1       -0.0351
      5 N          -3.8124   -0.7778   -1.3128 N.am    1  UNL1       -0.2976
      6 C          -2.5842   -0.1586   -1.6509 C.2     1  UNL1        0.2467
      7 O          -2.3689    0.1192   -2.8652 O.2     1  UNL1       -0.2701
      8 C          -1.4563    0.2368   -0.7802 C.ar    1  UNL1        0.0597
      9 C          -0.5408    1.0335   -1.4310 C.ar    1  UNL1       -0.0212
     10 C           0.5639    1.4781   -0.7426 C.ar    1  UNL1        0.1093
     11 S           1.7228    2.4891   -1.5732 S.O2    1  UNL1        0.0724
     12 O           1.0152    3.2404   -2.6570 O.2     1  UNL1       -0.1500
     13 O           2.3529    3.4665   -0.6222 O.2     1  UNL1       -0.1500
     14 N           2.8926    1.4515   -2.2864 N.pl3   1  UNL1       -0.2163
     15 C           3.7063    0.5990   -1.4927 C.ar    1  UNL1        0.0483
     16 C           4.3021    1.0824   -0.3535 C.ar    1  UNL1       -0.0359
     17 C           5.1064    0.2847    0.4530 C.ar    1  UNL1       -0.0182
     18 C           5.3371   -1.0363    0.1334 C.ar    1  UNL1        0.1202
     19 O           6.1454   -1.8491    0.9383 O.3     1  UNL1       -0.4951
     20 C           6.7320   -1.3170    2.0884 C.3     1  UNL1        0.0788
     21 C           4.7403   -1.5244   -1.0098 C.ar    1  UNL1       -0.0182
     22 C           3.9419   -0.7291   -1.8086 C.ar    1  UNL1       -0.0359
     23 C           0.7112    1.1076    0.5746 C.ar    1  UNL1       -0.0333
     24 C          -0.2190    0.2998    1.2311 C.ar    1  UNL1       -0.0379
     25 C          -1.3261   -0.1491    0.5510 C.ar    1  UNL1        0.0457
     26 N          -2.2122   -0.9686    1.3196 N.am    1  UNL1       -0.2831
     27 C          -3.5071   -1.4007    0.9698 C.2     1  UNL1        0.2404
     28 O          -3.9174   -2.4098    1.5772 O.2     1  UNL1       -0.2731
     29 H          -5.7872   -0.2308    2.0454 H       1  UNL1        0.0231
     30 H          -4.5432    0.9510    2.4973 H       1  UNL1        0.0231
     31 H          -6.0406    1.5822    1.7708 H       1  UNL1        0.0231
     32 H          -3.7543    1.2052    0.3999 H       1  UNL1        0.0288
     33 H          -5.3730    1.1157   -0.3370 H       1  UNL1        0.0288
     34 H          -5.5506   -2.4902   -0.7014 H       1  UNL1        0.0255
     35 H          -6.4873   -0.9619   -0.5587 H       1  UNL1        0.0255
     36 H          -5.9950   -1.9324    0.9353 H       1  UNL1        0.0255
     37 H          -4.3148   -1.2478   -2.0837 H       1  UNL1        0.1500
     38 H          -0.7359    1.2726   -2.4580 H       1  UNL1        0.0645
     39 H           2.9976    1.4569   -3.3198 H       1  UNL1        0.1737
     40 H           4.1598    2.1024   -0.0533 H       1  UNL1        0.0638
     41 H           5.5686    0.6939    1.3542 H       1  UNL1        0.0655
     42 H           7.2536   -0.3638    1.8432 H       1  UNL1        0.0660
     43 H           5.9359   -1.1649    2.8611 H       1  UNL1        0.0660
     44 H           7.4690   -2.0634    2.4983 H       1  UNL1        0.0660
     45 H           4.9086   -2.5559   -1.2772 H       1  UNL1        0.0655
     46 H           3.4606   -1.0965   -2.7174 H       1  UNL1        0.0638
     47 H           1.5977    1.4676    1.1179 H       1  UNL1        0.0638
     48 H          -0.0940    0.0210    2.2475 H       1  UNL1        0.0637
     49 H          -1.8041   -1.2514    2.2360 H       1  UNL1        0.1549
@<TRIPOS>BOND
     1     1     2    1
     2     2     3    1
     3     3     4    1
     4     3     5    1
     5     5     6   am
     6     6     7    2
     7     6     8    1
     8     8     9   ar
     9     9    10   ar
    10    10    11    1
    11    11    12    2
    12    11    13    2
    13    11    14    1
    14    14    15    1
    15    15    16   ar
    16    16    17   ar
    17    17    18   ar
    18    18    19    1
    19    19    20    1
    20    18    21   ar
    21    21    22   ar
    22    10    23   ar
    23    23    24   ar
    24    24    25   ar
    25    25    26    1
    26    26    27   am
    27    27    28    2
    28    27     3    1
    29    25     8   ar
    30    22    15   ar
    31     1    29    1
    32     1    30    1
    33     1    31    1
    34     2    32    1
    35     2    33    1
    36     4    34    1
    37     4    35    1
    38     4    36    1
    39     5    37    1
    40     9    38    1
    41    14    39    1
    42    16    40    1
    43    17    41    1
    44    20    42    1
    45    20    43    1
    46    20    44    1
    47    21    45    1
    48    22    46    1
    49    23    47    1
    50    24    48    1
    51    26    49    1
