@<TRIPOS>MOLECULE
*****
 50 53 0 0 0
SMALL
GASTEIGER

@<TRIPOS>ATOM
      1 C           1.6813    0.0995   -0.9523 C.3     1  UNL1        0.1518
      2 C           1.4733    1.2407   -1.9426 C.3     1  UNL1        0.0877
      3 O           0.1322    1.4775   -2.0516 O.3     1  UNL1       -0.3664
      4 C          -0.5631    0.5174   -1.3659 C.3     1  UNL1        0.1273
      5 C          -1.7551    1.1088   -0.6020 C.3     1  UNL1        0.1518
      6 C          -1.0113    1.8428    0.4933 C.3     1  UNL1        0.0877
      7 O           0.2747    1.3728    0.5427 O.3     1  UNL1       -0.3664
      8 C           0.3543    0.2164   -0.1983 C.3     1  UNL1        0.1273
      9 O          -2.4053    0.0301   -0.0002 O.3     1  UNL1       -0.4838
     10 C          -3.7382   -0.2595   -0.1256 C.ar    1  UNL1        0.1220
     11 C          -4.1366   -1.3836    0.5705 C.ar    1  UNL1       -0.0199
     12 C          -5.4550   -1.8001    0.5385 C.ar    1  UNL1       -0.0575
     13 C          -6.4459   -1.1294   -0.1812 C.ar    1  UNL1       -0.0467
     14 C          -6.0165   -0.0048   -0.8700 C.ar    1  UNL1        0.0682
     15 C          -4.6984    0.4016   -0.8309 C.ar    1  UNL1       -0.0051
     16 C          -6.9125    0.8223   -1.6767 C.2     1  UNL1        0.3082
     17 N          -6.6594    2.2287   -1.8337 N.pl3   1  UNL1       -0.2466
     18 N          -7.9777    0.5223   -2.3345 N.2     1  UNL1       -0.0994
     19 O           2.7749    0.3011   -0.1254 O.3     1  UNL1       -0.4838
     20 C           3.7818   -0.6272   -0.0473 C.ar    1  UNL1        0.1220
     21 C           4.7579   -0.1817    0.8538 C.ar    1  UNL1       -0.0051
     22 C           5.8981   -0.9496    1.1161 C.ar    1  UNL1        0.0682
     23 C           6.0940   -2.1636    0.4973 C.ar    1  UNL1       -0.0467
     24 C           5.1147   -2.5817   -0.3890 C.ar    1  UNL1       -0.0575
     25 C           3.9923   -1.8333   -0.6518 C.ar    1  UNL1       -0.0199
     26 C           6.9464   -0.5433    2.0396 C.2     1  UNL1        0.3082
     27 N           7.1699    0.8522    2.1932 N.pl3   1  UNL1       -0.2466
     28 N           7.6797   -1.3578    2.7219 N.2     1  UNL1       -0.0994
     29 H           1.6477   -0.8158   -1.5350 H       1  UNL1        0.0784
     30 H           1.9637    1.0014   -2.9150 H       1  UNL1        0.0598
     31 H           1.9867    2.1233   -1.4999 H       1  UNL1        0.0598
     32 H          -0.8479   -0.3630   -1.9434 H       1  UNL1        0.0661
     33 H          -2.3677    1.7654   -1.2180 H       1  UNL1        0.0784
     34 H          -1.5635    1.7895    1.4614 H       1  UNL1        0.0598
     35 H          -1.0222    2.9287    0.2083 H       1  UNL1        0.0598
     36 H           0.0949   -0.7092    0.3284 H       1  UNL1        0.0661
     37 H          -3.4915   -2.0271    1.1853 H       1  UNL1        0.0654
     38 H          -5.7990   -2.6834    1.0778 H       1  UNL1        0.0619
     39 H          -7.4693   -1.4099   -0.2363 H       1  UNL1        0.0626
     40 H          -4.3453    1.2881   -1.3702 H       1  UNL1        0.0662
     41 H          -6.6503    3.0125   -1.1159 H       1  UNL1        0.2884
     42 H          -6.5621    3.2103   -1.4588 H       1  UNL1        0.2884
     43 H          -8.3000   -0.4669   -2.3228 H       1  UNL1        0.3633
     44 H           4.7660    0.7442    1.4270 H       1  UNL1        0.0662
     45 H           6.9648   -2.7783    0.6803 H       1  UNL1        0.0626
     46 H           5.1927   -3.5203   -0.9146 H       1  UNL1        0.0619
     47 H           3.1970   -2.0958   -1.3243 H       1  UNL1        0.0654
     48 H           7.8369    1.4855    1.6670 H       1  UNL1        0.2884
     49 H           6.8883    1.6863    2.7226 H       1  UNL1        0.2884
     50 H           7.5298   -2.3840    2.6218 H       1  UNL1        0.3633
@<TRIPOS>BOND
     1     1     2    1
     2     2     3    1
     3     3     4    1
     4     4     5    1
     5     5     6    1
     6     6     7    1
     7     7     8    1
     8     5     9    1
     9     9    10    1
    10    10    11   ar
    11    11    12   ar
    12    12    13   ar
    13    13    14   ar
    14    14    15   ar
    15    14    16    1
    16    16    17    1
    17    16    18    2
    18     1    19    1
    19    19    20    1
    20    20    21   ar
    21    21    22   ar
    22    22    23   ar
    23    23    24   ar
    24    24    25   ar
    25    22    26    1
    26    26    27    1
    27    26    28    2
    28     8     1    1
    29    15    10   ar
    30    25    20   ar
    31     8     4    1
    32     1    29    1
    33     2    30    1
    34     2    31    1
    35     4    32    1
    36     5    33    1
    37     6    34    1
    38     6    35    1
    39     8    36    1
    40    11    37    1
    41    12    38    1
    42    13    39    1
    43    15    40    1
    44    17    41    1
    45    17    42    1
    46    18    43    1
    47    21    44    1
    48    23    45    1
    49    24    46    1
    50    25    47    1
    51    27    48    1
    52    27    49    1
    53    28    50    1
