
     RDKit          3D

 55 57  0  0  0  0  0  0  0  0999 V2000
   -2.5860   -1.4385    1.7902 C   0  0  0  0  0  0  0  0  0  0  0  0
   -2.0486   -1.3181    0.4220 N   0  0  0  0  0  0  0  0  0  0  0  0
   -2.9514   -1.2674   -0.6724 C   0  0  0  0  0  0  0  0  0  0  0  0
   -3.8593   -0.0688   -0.6035 C   0  0  0  0  0  0  0  0  0  0  0  0
   -3.5023    1.1244   -1.1864 C   0  0  0  0  0  0  0  0  0  0  0  0
   -4.3262    2.1794   -1.1150 N   0  0  0  0  0  0  0  0  0  0  0  0
   -5.5150    2.1186   -0.4826 C   0  0  0  0  0  0  0  0  0  0  0  0
   -6.3573    3.1628   -0.3987 N   0  0  0  0  0  0  0  0  0  0  0  0
   -7.5475    3.1218    0.2273 C   0  0  0  0  0  0  0  0  0  0  0  0
   -8.3965    4.2794    0.2776 N   0  0  0  0  0  0  0  0  0  0  0  0
   -7.9021    1.9571    0.7995 N   0  0  0  0  0  0  0  0  0  0  0  0
   -7.1136    0.8693    0.7581 C   0  0  0  0  0  0  0  0  0  0  0  0
   -7.5158   -0.3469    1.3720 N   0  0  0  0  0  0  0  0  0  0  0  0
   -5.8956    0.9166    0.1156 C   0  0  0  0  0  0  0  0  0  0  0  0
   -5.0495   -0.1163    0.0254 N   0  0  0  0  0  0  0  0  0  0  0  0
   -0.6601   -1.2584    0.2733 C   0  0  0  0  0  0  0  0  0  0  0  0
    0.1865   -1.3241    1.3810 C   0  0  0  0  0  0  0  0  0  0  0  0
    1.5570   -1.2602    1.2520 C   0  0  0  0  0  0  0  0  0  0  0  0
    2.1436   -1.1277    0.0085 C   0  0  0  0  0  0  0  0  0  0  0  0
    3.6208   -1.0611   -0.0799 C   0  0  0  0  0  0  0  0  0  0  0  0
    4.2972   -1.1433    1.0013 O   0  0  0  0  0  0  0  0  0  0  0  0
    4.3242   -0.9113   -1.2914 N   0  0  0  0  0  0  0  0  0  0  0  0
    5.7452   -0.8172   -1.4497 C   0  0  1  0  0  0  0  0  0  0  0  0
    6.4949   -0.3167   -0.2262 C   0  0  0  0  0  0  0  0  0  0  0  0
    6.0730    1.0797    0.0985 C   0  0  0  0  0  0  0  0  0  0  0  0
    6.7846    1.5355    1.3065 C   0  0  0  0  0  0  0  0  0  0  0  0
    6.4759    1.1312    2.4618 O   0  0  0  0  0  0  0  0  0  0  0  0
    7.8306    2.4353    1.2146 O   0  0  0  0  0  0  0  0  0  0  0  0
    6.3219   -1.9746   -2.0938 C   0  0  0  0  0  0  0  0  0  0  0  0
    5.5681   -2.9335   -2.4550 O   0  0  0  0  0  0  0  0  0  0  0  0
    7.6722   -2.1416   -2.3640 O   0  0  0  0  0  0  0  0  0  0  0  0
    1.3220   -1.0638   -1.0702 C   0  0  0  0  0  0  0  0  0  0  0  0
   -0.0698   -1.1277   -0.9505 C   0  0  0  0  0  0  0  0  0  0  0  0
   -2.2374   -2.3837    2.2573 H   0  0  0  0  0  0  0  0  0  0  0  0
   -3.6807   -1.4357    1.7470 H   0  0  0  0  0  0  0  0  0  0  0  0
   -2.1651   -0.6206    2.4291 H   0  0  0  0  0  0  0  0  0  0  0  0
   -3.6544   -2.1534   -0.5255 H   0  0  0  0  0  0  0  0  0  0  0  0
   -2.5416   -1.3006   -1.6746 H   0  0  0  0  0  0  0  0  0  0  0  0
   -2.5580    1.2014   -1.6986 H   0  0  0  0  0  0  0  0  0  0  0  0
   -9.1117    4.3312    1.0351 H   0  0  0  0  0  0  0  0  0  0  0  0
   -8.2540    5.0029   -0.4415 H   0  0  0  0  0  0  0  0  0  0  0  0
   -8.4615   -0.7508    1.3081 H   0  0  0  0  0  0  0  0  0  0  0  0
   -6.7853   -0.8602    1.9274 H   0  0  0  0  0  0  0  0  0  0  0  0
   -0.2989   -1.4286    2.3520 H   0  0  0  0  0  0  0  0  0  0  0  0
    2.1704   -1.3158    2.1453 H   0  0  0  0  0  0  0  0  0  0  0  0
    3.7171   -0.8636   -2.1786 H   0  0  0  0  0  0  0  0  0  0  0  0
    5.8633    0.1179   -2.1410 H   0  0  0  0  0  0  0  0  0  0  0  0
    7.5683   -0.2380   -0.5975 H   0  0  0  0  0  0  0  0  0  0  0  0
    6.5375   -1.0145    0.6031 H   0  0  0  0  0  0  0  0  0  0  0  0
    5.0019    1.1793    0.1963 H   0  0  0  0  0  0  0  0  0  0  0  0
    6.4676    1.7131   -0.7535 H   0  0  0  0  0  0  0  0  0  0  0  0
    8.1046    3.0004    2.0344 H   0  0  0  0  0  0  0  0  0  0  0  0
    8.1038   -3.0492   -2.4259 H   0  0  0  0  0  0  0  0  0  0  0  0
    1.7377   -0.9609   -2.0553 H   0  0  0  0  0  0  0  0  0  0  0  0
   -0.6446   -1.0648   -1.8890 H   0  0  0  0  0  0  0  0  0  0  0  0
  1  2  1  0
  2  3  1  0
  3  4  1  0
  4  5  2  0
  5  6  1  0
  6  7  2  0
  7  8  1  0
  8  9  2  0
  9 10  1  0
  9 11  1  0
 11 12  2  0
 12 13  1  0
 12 14  1  0
 14 15  2  0
  2 16  1  0
 16 17  2  0
 17 18  1  0
 18 19  2  0
 19 20  1  0
 20 21  2  0
 20 22  1  0
 22 23  1  0
 23 24  1  0
 24 25  1  0
 25 26  1  0
 26 27  2  0
 26 28  1  0
 23 29  1  0
 29 30  2  0
 29 31  1  0
 19 32  1  0
 32 33  2  0
 15  4  1  0
 33 16  1  0
 14  7  1  0
  1 34  1  0
  1 35  1  0
  1 36  1  0
  3 37  1  0
  3 38  1  0
  5 39  1  0
 10 40  1  0
 10 41  1  0
 13 42  1  0
 13 43  1  0
 17 44  1  0
 18 45  1  0
 22 46  1  0
 23 47  1  6
 24 48  1  0
 24 49  1  0
 25 50  1  0
 25 51  1  0
 28 52  1  0
 31 53  1  0
 32 54  1  0
 33 55  1  0
M  END
$$$$
