@<TRIPOS>MOLECULE
*****
 55 57 0 0 0
SMALL
GASTEIGER

@<TRIPOS>ATOM
      1 C          -2.5860   -1.4385    1.7902 C.3     0  UNK0        0.0011
      2 N          -2.0486   -1.3181    0.4220 N.pl3   0  UNK0       -0.3271
      3 C          -2.9514   -1.2674   -0.6724 C.3     0  UNK0        0.0555
      4 C          -3.8593   -0.0688   -0.6035 C.ar    0  UNK0        0.0774
      5 C          -3.5023    1.1244   -1.1864 C.ar    0  UNK0        0.0528
      6 N          -4.3262    2.1794   -1.1150 N.ar    0  UNK0       -0.2324
      7 C          -5.5150    2.1186   -0.4826 C.ar    0  UNK0        0.1851
      8 N          -6.3573    3.1628   -0.3987 N.ar    0  UNK0       -0.1932
      9 C          -7.5475    3.1218    0.2273 C.ar    0  UNK0        0.2163
     10 N          -8.3965    4.2794    0.2776 N.pl3   0  UNK0       -0.3274
     11 N          -7.9021    1.9571    0.7995 N.ar    0  UNK0       -0.1978
     12 C          -7.1136    0.8693    0.7581 C.ar    0  UNK0        0.1491
     13 N          -7.5158   -0.3469    1.3720 N.pl3   0  UNK0       -0.3413
     14 C          -5.8956    0.9166    0.1156 C.ar    0  UNK0        0.1477
     15 N          -5.0495   -0.1163    0.0254 N.ar    0  UNK0       -0.2419
     16 C          -0.6601   -1.2584    0.2733 C.ar    0  UNK0        0.0298
     17 C           0.1865   -1.3241    1.3810 C.ar    0  UNK0       -0.0399
     18 C           1.5570   -1.2602    1.2520 C.ar    0  UNK0       -0.0479
     19 C           2.1436   -1.1277    0.0085 C.ar    0  UNK0        0.0368
     20 C           3.6208   -1.0611   -0.0799 C.2     0  UNK0        0.2447
     21 O           4.2972   -1.1433    1.0013 O.2     0  UNK0       -0.2702
     22 N           4.3242   -0.9113   -1.2914 N.am    1  GLU1       -0.2983
     23 CA          5.7452   -0.8172   -1.4497 C.3     1  GLU1        0.1209
     24 CB          6.4949   -0.3167   -0.2262 C.3     1  GLU1       -0.0140
     25 CG          6.0730    1.0797    0.0985 C.3     1  GLU1        0.0470
     26 CD          6.7846    1.5355    1.3065 C.2     1  GLU1        0.3048
     27 OE1         6.4759    1.1312    2.4618 O.2     1  GLU1       -0.2510
     28 OE2         7.8306    2.4353    1.2146 O.3     1  GLU1       -0.4806
     29 C           6.3219   -1.9746   -2.0938 C.2     1  GLU1        0.3253
     30 O           5.5681   -2.9335   -2.4550 O.2     1  GLU1       -0.2489
     31 OXT         7.6722   -2.1416   -2.3640 O.3     1  GLU1       -0.4793
     32 C           1.3220   -1.0638   -1.0702 C.ar    0  UNK0       -0.0479
     33 C          -0.0698   -1.1277   -0.9505 C.ar    0  UNK0       -0.0399
     34 H          -2.2374   -2.3837    2.2573 H       0  UNK0        0.0428
     35 H          -3.6807   -1.4357    1.7470 H       0  UNK0        0.0428
     36 H          -2.1651   -0.6206    2.4291 H       0  UNK0        0.0428
     37 H          -3.6544   -2.1534   -0.5255 H       0  UNK0        0.0529
     38 H          -2.5416   -1.3006   -1.6746 H       0  UNK0        0.0529
     39 H          -2.5580    1.2014   -1.6986 H       0  UNK0        0.0849
     40 H          -9.1117    4.3312    1.0351 H       0  UNK0        0.1452
     41 H          -8.2540    5.0029   -0.4415 H       0  UNK0        0.1452
     42 H          -8.4615   -0.7508    1.3081 H       0  UNK0        0.1438
     43 H          -6.7853   -0.8602    1.9274 H       0  UNK0        0.1438
     44 H          -0.2989   -1.4286    2.3520 H       0  UNK0        0.0636
     45 H           2.1704   -1.3158    2.1453 H       0  UNK0        0.0626
     46 H           3.7171   -0.8636   -2.1786 H       1  GLU1        0.1498
     47 HA          5.8633    0.1179   -2.1410 H       1  GLU1        0.0614
     48 HB1         7.5683   -0.2380   -0.5975 H       1  GLU1        0.0294
     49 HB2         6.5375   -1.0145    0.6031 H       1  GLU1        0.0294
     50 HG1         5.0019    1.1793    0.1963 H       1  GLU1        0.0378
     51 HG2         6.4676    1.7131   -0.7535 H       1  GLU1        0.0378
     52 HE2         8.1046    3.0004    2.0344 H       1  GLU1        0.2951
     53 HXT         8.1038   -3.0492   -2.4259 H       1  GLU1        0.2951
     54 H           1.7377   -0.9609   -2.0553 H       0  UNK0        0.0626
     55 H          -0.6446   -1.0648   -1.8890 H       0  UNK0        0.0636
@<TRIPOS>BOND
     1     1     2    1
     2     2     3    1
     3     3     4    1
     4     4     5   ar
     5     5     6   ar
     6     6     7   ar
     7     7     8   ar
     8     8     9   ar
     9     9    10    1
    10     9    11   ar
    11    11    12   ar
    12    12    13    1
    13    12    14   ar
    14    14    15   ar
    15     2    16    1
    16    16    17   ar
    17    17    18   ar
    18    18    19   ar
    19    19    20    1
    20    20    21    2
    21    20    22   am
    22    22    23    1
    23    23    24    1
    24    24    25    1
    25    25    26    1
    26    26    27    2
    27    26    28    1
    28    23    29    1
    29    29    30    2
    30    29    31    1
    31    19    32   ar
    32    32    33   ar
    33    15     4   ar
    34    33    16   ar
    35    14     7   ar
    36     1    34    1
    37     1    35    1
    38     1    36    1
    39     3    37    1
    40     3    38    1
    41     5    39    1
    42    10    40    1
    43    10    41    1
    44    13    42    1
    45    13    43    1
    46    17    44    1
    47    18    45    1
    48    22    46    1
    49    23    47    1
    50    24    48    1
    51    24    49    1
    52    25    50    1
    53    25    51    1
    54    28    52    1
    55    31    53    1
    56    32    54    1
    57    33    55    1
