@<TRIPOS>MOLECULE
*****
 39 41 0 0 0
SMALL
GASTEIGER

@<TRIPOS>ATOM
      1 O          -2.4508    0.5673    1.8321 O.2     1  UNL1       -0.2701
      2 C          -2.9348   -0.2009    0.9205 C.2     1  UNL1        0.2472
      3 N          -2.3535   -1.4680    0.8046 N.am    1  UNL1       -0.3072
      4 C          -1.2436   -1.8867    1.6558 C.3     1  UNL1        0.0371
      5 C           0.0615   -1.3686    1.1974 C.ar    1  UNL1       -0.0303
      6 C           0.6551   -0.2042    1.6141 C.ar    1  UNL1       -0.0565
      7 C           1.8855    0.2436    1.1439 C.ar    1  UNL1       -0.0536
      8 C           2.5555   -0.5092    0.2126 C.ar    1  UNL1       -0.0149
      9 C           3.8485   -0.0449   -0.2888 C.ar    1  UNL1        0.0239
     10 C           4.0942    1.2425   -0.7098 C.ar    1  UNL1        0.0132
     11 C           5.3556    1.6152   -1.1834 C.ar    1  UNL1        0.2495
     12 O           5.5644    2.7939   -1.5643 O.2     1  UNL1       -0.2679
     13 N           6.3606    0.7305   -1.2406 N.ar    1  UNL1       -0.3263
     14 C           6.1278   -0.5312   -0.8301 C.ar    1  UNL1        0.0408
     15 C           4.9026   -0.9485   -0.3554 C.ar    1  UNL1        0.1471
     16 F           4.6767   -2.2207    0.0560 F       1  UNL1       -0.2033
     17 C           1.9983   -1.7026   -0.2457 C.ar    1  UNL1       -0.0536
     18 C           0.7818   -2.1020    0.2474 C.ar    1  UNL1       -0.0565
     19 C          -4.0184    0.2690    0.0977 C.ar    1  UNL1        0.0732
     20 C          -4.7239    1.3721    0.6140 C.ar    1  UNL1        0.0545
     21 CL         -4.3014    2.0648    2.1786 Cl      1  UNL1       -0.0827
     22 C          -5.7523    1.9461   -0.0582 C.ar    1  UNL1       -0.0426
     23 C          -6.1494    1.4639   -1.2874 C.ar    1  UNL1       -0.0590
     24 C          -5.4858    0.3909   -1.8231 C.ar    1  UNL1       -0.0426
     25 C          -4.4250   -0.1856   -1.1090 C.ar    1  UNL1        0.0545
     26 CL         -3.6106   -1.5135   -1.8741 Cl      1  UNL1       -0.0827
     27 H          -2.6636   -2.1999    0.1368 H       1  UNL1        0.1493
     28 H          -1.4190   -1.4817    2.6856 H       1  UNL1        0.0512
     29 H          -1.1707   -2.9807    1.7634 H       1  UNL1        0.0512
     30 H           0.1588    0.4071    2.3554 H       1  UNL1        0.0621
     31 H           2.3044    1.1818    1.5150 H       1  UNL1        0.0624
     32 H           3.2736    1.9420   -0.6569 H       1  UNL1        0.0679
     33 H           7.3200    0.9773   -1.5905 H       1  UNL1        0.1684
     34 H           6.9616   -1.2322   -0.8867 H       1  UNL1        0.0837
     35 H           2.5388   -2.2734   -0.9725 H       1  UNL1        0.0624
     36 H           0.3192   -3.0332   -0.0918 H       1  UNL1        0.0621
     37 H          -6.2872    2.8000    0.3573 H       1  UNL1        0.0632
     38 H          -6.9619    1.9042   -1.8363 H       1  UNL1        0.0618
     39 H          -5.7928    0.0116   -2.7836 H       1  UNL1        0.0632
@<TRIPOS>BOND
     1     1     2    2
     2     2     3   am
     3     3     4    1
     4     4     5    1
     5     5     6   ar
     6     6     7   ar
     7     7     8   ar
     8     8     9    1
     9     9    10   ar
    10    10    11   ar
    11    11    12    2
    12    11    13   ar
    13    13    14   ar
    14    14    15   ar
    15    15    16    1
    16     8    17   ar
    17    17    18   ar
    18     2    19    1
    19    19    20   ar
    20    20    21    1
    21    20    22   ar
    22    22    23   ar
    23    23    24   ar
    24    24    25   ar
    25    25    26    1
    26    18     5   ar
    27    25    19   ar
    28    15     9   ar
    29     3    27    1
    30     4    28    1
    31     4    29    1
    32     6    30    1
    33     7    31    1
    34    10    32    1
    35    13    33    1
    36    14    34    1
    37    17    35    1
    38    18    36    1
    39    22    37    1
    40    23    38    1
    41    24    39    1
