
     RDKit          3D

 42 44  0  0  0  0  0  0  0  0999 V2000
   -5.4326    0.4347    0.6276 C   0  0  0  0  0  0  0  0  0  0  0  0
   -4.1881    0.7210   -0.1376 C   0  0  0  0  0  0  0  0  0  0  0  0
   -3.8626    2.1951   -0.0221 C   0  0  0  0  0  0  0  0  0  0  0  0
   -4.3656    0.3124   -1.6037 C   0  0  0  0  0  0  0  0  0  0  0  0
   -3.0135   -0.0437    0.3534 C   0  0  0  0  0  0  0  0  0  0  0  0
   -3.0667   -0.9179    1.3892 C   0  0  0  0  0  0  0  0  0  0  0  0
   -1.9293   -1.5872    1.7795 C   0  0  0  0  0  0  0  0  0  0  0  0
   -0.7243   -1.3627    1.1062 C   0  0  0  0  0  0  0  0  0  0  0  0
   -0.6452   -0.4812    0.0527 C   0  0  0  0  0  0  0  0  0  0  0  0
    0.5520   -0.2164   -0.6765 N   0  0  0  0  0  0  0  0  0  0  0  0
    1.7959   -0.9240   -0.4067 C   0  0  0  0  0  0  0  0  0  0  0  0
    1.7824   -2.1794   -0.1637 N   0  0  0  0  0  0  0  0  0  0  0  0
    3.3899   -2.6877    0.1060 S   0  0  0  0  0  6  0  0  0  0  0  0
    3.5749   -3.1950    1.5060 O   0  0  0  0  0  0  0  0  0  0  0  0
    3.8588   -3.6818   -0.9116 O   0  0  0  0  0  0  0  0  0  0  0  0
    4.1452   -1.1249   -0.1254 C   0  0  0  0  0  0  0  0  0  0  0  0
    5.4488   -0.6763   -0.0827 C   0  0  0  0  0  0  0  0  0  0  0  0
    5.7520    0.6460   -0.3138 C   0  0  0  0  0  0  0  0  0  0  0  0
    7.0786    1.1424   -0.2778 N   0  0  0  0  0  4  0  0  0  0  0  0
    7.3057    2.3412   -0.4909 O   0  0  0  0  0  0  0  0  0  0  0  0
    8.1131    0.2681   -0.0012 O   0  0  0  0  0  1  0  0  0  0  0  0
    4.7056    1.5136   -0.5912 C   0  0  0  0  0  0  0  0  0  0  0  0
    3.4318    1.0681   -0.6316 C   0  0  0  0  0  0  0  0  0  0  0  0
    3.0917   -0.2838   -0.3982 C   0  0  0  0  0  0  0  0  0  0  0  0
   -1.8171    0.1650   -0.2986 C   0  0  0  0  0  0  0  0  0  0  0  0
   -5.6465   -0.6430    0.7571 H   0  0  0  0  0  0  0  0  0  0  0  0
   -5.3218    0.8788    1.6462 H   0  0  0  0  0  0  0  0  0  0  0  0
   -6.2651    0.9654    0.1484 H   0  0  0  0  0  0  0  0  0  0  0  0
   -3.1489    2.4108    0.8068 H   0  0  0  0  0  0  0  0  0  0  0  0
   -3.4343    2.5395   -0.9951 H   0  0  0  0  0  0  0  0  0  0  0  0
   -4.7695    2.8122    0.1863 H   0  0  0  0  0  0  0  0  0  0  0  0
   -5.4319    0.3786   -1.8826 H   0  0  0  0  0  0  0  0  0  0  0  0
   -4.0419   -0.7595   -1.7499 H   0  0  0  0  0  0  0  0  0  0  0  0
   -3.6985    0.9474   -2.1977 H   0  0  0  0  0  0  0  0  0  0  0  0
   -3.9736   -1.1027    1.9149 H   0  0  0  0  0  0  0  0  0  0  0  0
   -1.9550   -2.2990    2.6173 H   0  0  0  0  0  0  0  0  0  0  0  0
    0.1432   -1.8980    1.4412 H   0  0  0  0  0  0  0  0  0  0  0  0
    0.5494    0.5069   -1.4286 H   0  0  0  0  0  0  0  0  0  0  0  0
    6.2173   -1.3910    0.1363 H   0  0  0  0  0  0  0  0  0  0  0  0
    4.8927    2.5705   -0.7811 H   0  0  0  0  0  0  0  0  0  0  0  0
    2.6440    1.7692   -0.8499 H   0  0  0  0  0  0  0  0  0  0  0  0
   -1.7407    0.8682   -1.1438 H   0  0  0  0  0  0  0  0  0  0  0  0
  1  2  1  0
  2  3  1  0
  2  4  1  0
  2  5  1  0
  5  6  2  0
  6  7  1  0
  7  8  2  0
  8  9  1  0
  9 10  1  0
 10 11  1  0
 11 12  2  0
 12 13  1  0
 13 14  2  0
 13 15  2  0
 13 16  1  0
 16 17  2  0
 17 18  1  0
 18 19  1  0
 19 20  2  0
 19 21  1  0
 18 22  2  0
 22 23  1  0
 23 24  2  0
  9 25  2  0
 25  5  1  0
 24 11  1  0
 24 16  1  0
  1 26  1  0
  1 27  1  0
  1 28  1  0
  3 29  1  0
  3 30  1  0
  3 31  1  0
  4 32  1  0
  4 33  1  0
  4 34  1  0
  6 35  1  0
  7 36  1  0
  8 37  1  0
 10 38  1  0
 17 39  1  0
 22 40  1  0
 23 41  1  0
 25 42  1  0
M  CHG  2  19   1  21  -1
M  END
$$$$
