@<TRIPOS>MOLECULE
*****
 42 44 0 0 0
SMALL
GASTEIGER

@<TRIPOS>ATOM
      1 C          -5.4326    0.4347    0.6276 C.3     1  UNL1       -0.0560
      2 C          -4.1881    0.7210   -0.1376 C.3     1  UNL1       -0.0125
      3 C          -3.8626    2.1951   -0.0221 C.3     1  UNL1       -0.0560
      4 C          -4.3656    0.3124   -1.6037 C.3     1  UNL1       -0.0560
      5 C          -3.0135   -0.0437    0.3534 C.ar    1  UNL1       -0.0382
      6 C          -3.0667   -0.9179    1.3892 C.ar    1  UNL1       -0.0578
      7 C          -1.9293   -1.5872    1.7795 C.ar    1  UNL1       -0.0577
      8 C          -0.7243   -1.3627    1.1062 C.ar    1  UNL1       -0.0170
      9 C          -0.6452   -0.4812    0.0527 C.ar    1  UNL1        0.1190
     10 N           0.5520   -0.2164   -0.6765 N.pl3   1  UNL1       -0.1984
     11 C           1.7959   -0.9240   -0.4067 C.2     1  UNL1        0.3512
     12 N           1.7824   -2.1794   -0.1637 N.2     1  UNL1        0.0960
     13 S           3.3899   -2.6877    0.1060 S.O2    1  UNL1        0.1799
     14 O           3.5749   -3.1950    1.5060 O.2     1  UNL1       -0.1251
     15 O           3.8588   -3.6818   -0.9116 O.2     1  UNL1       -0.1251
     16 C           4.1452   -1.1249   -0.1254 C.ar    1  UNL1        0.1559
     17 C           5.4488   -0.6763   -0.0827 C.ar    1  UNL1        0.0453
     18 C           5.7520    0.6460   -0.3138 C.ar    1  UNL1        0.2751
     19 N           7.0786    1.1424   -0.2778 N.pl3   1  UNL1        0.0797
     20 O           7.3057    2.3412   -0.4909 O.2     1  UNL1        0.0414
     21 O           8.1131    0.2681   -0.0012 O.co2   1  UNL1       -0.5760
     22 C           4.7056    1.5136   -0.5912 C.ar    1  UNL1        0.0165
     23 C           3.4318    1.0681   -0.6316 C.ar    1  UNL1       -0.0384
     24 C           3.0917   -0.2838   -0.3982 C.ar    1  UNL1        0.0970
     25 C          -1.8171    0.1650   -0.2986 C.ar    1  UNL1       -0.0133
     26 H          -5.6465   -0.6430    0.7571 H       1  UNL1        0.0238
     27 H          -5.3218    0.8788    1.6462 H       1  UNL1        0.0238
     28 H          -6.2651    0.9654    0.1484 H       1  UNL1        0.0238
     29 H          -3.1489    2.4108    0.8068 H       1  UNL1        0.0238
     30 H          -3.4343    2.5395   -0.9951 H       1  UNL1        0.0238
     31 H          -4.7695    2.8122    0.1863 H       1  UNL1        0.0238
     32 H          -5.4319    0.3786   -1.8826 H       1  UNL1        0.0238
     33 H          -4.0419   -0.7595   -1.7499 H       1  UNL1        0.0238
     34 H          -3.6985    0.9474   -2.1977 H       1  UNL1        0.0238
     35 H          -3.9736   -1.1027    1.9149 H       1  UNL1        0.0620
     36 H          -1.9550   -2.2990    2.6173 H       1  UNL1        0.0619
     37 H           0.1432   -1.8980    1.4412 H       1  UNL1        0.0658
     38 H           0.5494    0.5069   -1.4286 H       1  UNL1        0.2985
     39 H           6.2173   -1.3910    0.1363 H       1  UNL1        0.0706
     40 H           4.8927    2.5705   -0.7811 H       1  UNL1        0.0685
     41 H           2.6440    1.7692   -0.8499 H       1  UNL1        0.0629
     42 H          -1.7407    0.8682   -1.1438 H       1  UNL1        0.0661
@<TRIPOS>UNITY_ATOM_ATTR
19 1
charge 1
21 1
charge -1
@<TRIPOS>BOND
     1     1     2    1
     2     2     3    1
     3     2     4    1
     4     2     5    1
     5     5     6   ar
     6     6     7   ar
     7     7     8   ar
     8     8     9   ar
     9     9    10    1
    10    10    11    1
    11    11    12    2
    12    12    13    1
    13    13    14    2
    14    13    15    2
    15    13    16    1
    16    16    17   ar
    17    17    18   ar
    18    18    19    1
    19    19    20    2
    20    19    21    1
    21    18    22   ar
    22    22    23   ar
    23    23    24   ar
    24     9    25   ar
    25    25     5   ar
    26    24    11    1
    27    24    16   ar
    28     1    26    1
    29     1    27    1
    30     1    28    1
    31     3    29    1
    32     3    30    1
    33     3    31    1
    34     4    32    1
    35     4    33    1
    36     4    34    1
    37     6    35    1
    38     7    36    1
    39     8    37    1
    40    10    38    1
    41    17    39    1
    42    22    40    1
    43    23    41    1
    44    25    42    1
