@<TRIPOS>MOLECULE
*****
 63 67 0 0 0
SMALL
GASTEIGER

@<TRIPOS>ATOM
      1 C           5.0565    1.9144   -2.0739 C.3     1  UNL1        0.0788
      2 O           3.8318    1.7778   -1.3884 O.3     1  UNL1       -0.4948
      3 C           3.8255    1.2262   -0.1243 C.ar    1  UNL1        0.1245
      4 C           5.0206    0.8269    0.4252 C.ar    1  UNL1       -0.0196
      5 C           5.0733    0.2698    1.6840 C.ar    1  UNL1       -0.0583
      6 C           3.9357    0.0908    2.4405 C.ar    1  UNL1       -0.0612
      7 C           2.7482    0.5079    1.8481 C.ar    1  UNL1       -0.0539
      8 C           2.6733    1.0627    0.6010 C.ar    1  UNL1        0.0080
      9 C           1.3723    1.5059    0.0857 C.3     1  UNL1        0.0250
     10 N           0.7406    0.8639   -0.9338 N.3     1  UNL1       -0.3074
     11 C           0.2979   -0.4132   -1.1021 C.3     1  UNL1        0.0272
     12 C           1.2239   -1.5990   -1.0852 C.3     1  UNL1       -0.0218
     13 C           0.4187   -2.6768   -1.8712 C.3     1  UNL1       -0.0358
     14 C          -0.6364   -3.1339   -0.8521 C.3     1  UNL1       -0.0004
     15 N          -0.8519   -2.1658    0.1904 N.3     1  UNL1       -0.2970
     16 C           0.3024   -2.1377    1.0956 C.3     1  UNL1       -0.0004
     17 C           1.5087   -2.2442    0.2113 C.3     1  UNL1       -0.0358
     18 C          -0.9951   -0.8582   -0.4812 C.3     1  UNL1        0.0368
     19 C          -1.6309    0.0517    0.4973 C.3     1  UNL1        0.0262
     20 C          -2.0027    1.3864    0.0071 C.ar    1  UNL1       -0.0384
     21 C          -2.2756    1.7109   -1.3041 C.ar    1  UNL1       -0.0579
     22 C          -2.6261    2.9964   -1.6654 C.ar    1  UNL1       -0.0615
     23 C          -2.7167    3.9995   -0.7361 C.ar    1  UNL1       -0.0617
     24 C          -2.4476    3.6948    0.5806 C.ar    1  UNL1       -0.0615
     25 C          -2.1006    2.4124    0.9228 C.ar    1  UNL1       -0.0579
     26 C          -2.8901   -0.5837    0.9685 C.ar    1  UNL1       -0.0384
     27 C          -3.1456   -0.8113    2.3082 C.ar    1  UNL1       -0.0579
     28 C          -4.3212   -1.3901    2.7343 C.ar    1  UNL1       -0.0615
     29 C          -5.2907   -1.7651    1.8324 C.ar    1  UNL1       -0.0617
     30 C          -5.0526   -1.5454    0.4925 C.ar    1  UNL1       -0.0615
     31 C          -3.8516   -0.9550    0.0711 C.ar    1  UNL1       -0.0579
     32 H           5.5486    0.9048   -2.1285 H       1  UNL1        0.0660
     33 H           5.7146    2.5584   -1.4518 H       1  UNL1        0.0660
     34 H           4.9156    2.3393   -3.0921 H       1  UNL1        0.0660
     35 H           5.9713    0.9443   -0.1332 H       1  UNL1        0.0654
     36 H           6.0385   -0.0450    2.1097 H       1  UNL1        0.0619
     37 H           3.9548   -0.3473    3.4371 H       1  UNL1        0.0618
     38 H           1.8653    0.3505    2.4871 H       1  UNL1        0.0622
     39 H           1.5945    2.5808   -0.2613 H       1  UNL1        0.0475
     40 H           0.7030    1.7572    0.9789 H       1  UNL1        0.0475
     41 H           0.5748    1.5329   -1.7502 H       1  UNL1        0.1226
     42 H           0.0162   -0.4236   -2.2474 H       1  UNL1        0.0479
     43 H           2.1401   -1.4650   -1.6598 H       1  UNL1        0.0317
     44 H          -0.0279   -2.2482   -2.7676 H       1  UNL1        0.0281
     45 H           1.1006   -3.5127   -2.0143 H       1  UNL1        0.0281
     46 H          -0.3819   -4.1235   -0.4288 H       1  UNL1        0.0427
     47 H          -1.6012   -3.2143   -1.4163 H       1  UNL1        0.0427
     48 H           0.3014   -1.2946    1.7752 H       1  UNL1        0.0427
     49 H           0.1770   -3.0582    1.7384 H       1  UNL1        0.0427
     50 H           2.4725   -2.0215    0.6879 H       1  UNL1        0.0281
     51 H           1.6048   -3.3709    0.0280 H       1  UNL1        0.0281
     52 H          -1.7943   -1.0855   -1.2545 H       1  UNL1        0.0487
     53 H          -1.0113    0.2101    1.4168 H       1  UNL1        0.0413
     54 H          -2.2031    0.9100   -2.0444 H       1  UNL1        0.0620
     55 H          -2.8432    3.2583   -2.7024 H       1  UNL1        0.0618
     56 H          -2.9958    5.0262   -1.0182 H       1  UNL1        0.0618
     57 H          -2.5229    4.4944    1.3019 H       1  UNL1        0.0618
     58 H          -1.8997    2.2412    1.9907 H       1  UNL1        0.0620
     59 H          -2.3613   -0.5050    2.9989 H       1  UNL1        0.0620
     60 H          -4.4868   -1.5527    3.7866 H       1  UNL1        0.0618
     61 H          -6.2284   -2.2242    2.1378 H       1  UNL1        0.0618
     62 H          -5.7989   -1.8293   -0.2614 H       1  UNL1        0.0618
     63 H          -3.7312   -0.8062   -0.9698 H       1  UNL1        0.0620
@<TRIPOS>BOND
     1     1     2    1
     2     2     3    1
     3     3     4   ar
     4     4     5   ar
     5     5     6   ar
     6     6     7   ar
     7     7     8   ar
     8     8     9    1
     9     9    10    1
    10    10    11    1
    11    11    12    1
    12    12    13    1
    13    13    14    1
    14    14    15    1
    15    15    16    1
    16    16    17    1
    17    15    18    1
    18    18    19    1
    19    19    20    1
    20    20    21   ar
    21    21    22   ar
    22    22    23   ar
    23    23    24   ar
    24    24    25   ar
    25    19    26    1
    26    26    27   ar
    27    27    28   ar
    28    28    29   ar
    29    29    30   ar
    30    30    31   ar
    31     8     3   ar
    32    18    11    1
    33    25    20   ar
    34    31    26   ar
    35    17    12    1
    36     1    32    1
    37     1    33    1
    38     1    34    1
    39     4    35    1
    40     5    36    1
    41     6    37    1
    42     7    38    1
    43     9    39    1
    44     9    40    1
    45    10    41    1
    46    11    42    1
    47    12    43    1
    48    13    44    1
    49    13    45    1
    50    14    46    1
    51    14    47    1
    52    16    48    1
    53    16    49    1
    54    17    50    1
    55    17    51    1
    56    18    52    1
    57    19    53    1
    58    21    54    1
    59    22    55    1
    60    23    56    1
    61    24    57    1
    62    25    58    1
    63    27    59    1
    64    28    60    1
    65    29    61    1
    66    30    62    1
    67    31    63    1
