@<TRIPOS>MOLECULE
*****
 111 116 0 0 0
SMALL
GASTEIGER

@<TRIPOS>ATOM
      1 C          -2.7569    2.7785    2.4506 C.3     1  UNL1        0.0333
      2 C          -2.8641    2.2151    1.0659 C.2     1  UNL1        0.3046
      3 O          -1.8624    2.2351    0.2946 O.2     1  UNL1       -0.2511
      4 O          -3.9938    1.6622    0.5474 O.3     1  UNL1       -0.4528
      5 C          -4.1930    1.0873   -0.7041 C.3     1  UNL1        0.1696
      6 C          -5.6411    0.7884   -0.9312 C.3     1  UNL1        0.0909
      7 O          -5.7233    1.7200   -1.9631 O.3     1  UNL1       -0.3684
      8 C          -4.4215    2.0991   -1.7093 C.3     1  UNL1        0.1035
      9 C          -3.5053    1.9522   -2.9011 C.3     1  UNL1        0.0043
     10 C          -3.8295    0.5862   -3.4233 C.3     1  UNL1        0.0704
     11 O          -5.2063    0.5956   -3.7142 O.3     1  UNL1       -0.3907
     12 C          -3.4423   -0.5431   -2.4816 C.3     1  UNL1        0.0651
     13 C          -4.4570   -1.6014   -2.7271 C.3     1  UNL1       -0.0498
     14 C          -2.1602   -1.0549   -3.0437 C.2     1  UNL1        0.1745
     15 O          -1.7628   -0.3590   -3.9430 O.2     1  UNL1       -0.2936
     16 C          -1.1672   -2.1749   -2.8634 C.3     1  UNL1        0.1356
     17 O          -1.7801   -3.2794   -3.5032 O.3     1  UNL1       -0.3799
     18 C          -0.9326   -2.4086   -1.4385 C.2     1  UNL1       -0.0234
     19 C           0.2288   -1.8204   -1.1878 C.2     1  UNL1       -0.0299
     20 C           1.2642   -1.7039   -2.2099 C.3     1  UNL1       -0.0400
     21 C           0.4163   -1.2784    0.1885 C.3     1  UNL1        0.1271
     22 O           1.2525   -0.1219    0.2290 O.3     1  UNL1       -0.4550
     23 C           2.4473   -0.0401    0.8887 C.2     1  UNL1        0.3388
     24 O           2.7711   -1.0932    1.4969 O.2     1  UNL1       -0.2478
     25 C           3.3642    1.1033    0.9655 C.3     1  UNL1        0.1741
     26 O           2.9523    2.0639    0.0543 O.3     1  UNL1       -0.3786
     27 C           4.7999    0.7422    0.8128 C.3     1  UNL1        0.0878
     28 N           5.6227    1.9433    1.0122 N.am    1  UNL1       -0.2712
     29 C           6.6359    2.2475    0.0455 C.2     1  UNL1        0.4013
     30 O           6.8235    1.5128   -0.9543 O.2     1  UNL1       -0.2264
     31 O           7.4377    3.3630    0.1939 O.3     1  UNL1       -0.4447
     32 C           8.4502    3.6320   -0.7782 C.3     1  UNL1        0.1068
     33 C           9.4153    2.4335   -0.7912 C.3     1  UNL1       -0.0253
     34 C           7.9073    3.8026   -2.1656 C.3     1  UNL1       -0.0253
     35 C           9.2278    4.8577   -0.3349 C.3     1  UNL1       -0.0253
     36 C           5.2209   -0.3095    1.7807 C.ar    1  UNL1       -0.0241
     37 C           5.3636    0.0265    3.0979 C.ar    1  UNL1       -0.0567
     38 C           5.7559   -0.9284    3.9837 C.ar    1  UNL1       -0.0614
     39 C           6.0016   -2.2080    3.5462 C.ar    1  UNL1       -0.0617
     40 C           5.8690   -2.5841    2.2281 C.ar    1  UNL1       -0.0614
     41 C           5.4662   -1.5821    1.3490 C.ar    1  UNL1       -0.0567
     42 C          -0.8826   -1.0710    0.9427 C.3     1  UNL1        0.0215
     43 C          -2.0739   -1.8057    0.5249 C.3     1  UNL1        0.1156
     44 O          -2.4978   -2.5735    1.6884 O.3     1  UNL1       -0.3839
     45 C          -3.2773   -1.1208   -0.0042 C.3     1  UNL1        0.1404
     46 O          -4.1610   -0.6832    1.0198 O.3     1  UNL1       -0.4545
     47 C          -5.3529   -1.1792    1.3995 C.2     1  UNL1        0.3395
     48 O          -5.6710   -2.1757    0.6915 O.2     1  UNL1       -0.2449
     49 C          -6.1895   -0.6738    2.4664 C.ar    1  UNL1        0.0590
     50 C          -5.7488    0.3788    3.2321 C.ar    1  UNL1       -0.0478
     51 C          -6.5336    0.9015    4.2696 C.ar    1  UNL1       -0.0610
     52 C          -7.7652    0.3607    4.5344 C.ar    1  UNL1       -0.0617
     53 C          -8.2191   -0.6881    3.7809 C.ar    1  UNL1       -0.0610
     54 C          -7.4274   -1.1869    2.7630 C.ar    1  UNL1       -0.0478
     55 C          -3.2621   -0.0783   -1.0391 C.3     1  UNL1        0.0580
     56 C          -1.6041   -3.0255   -0.2694 C.3     1  UNL1        0.0216
     57 C          -0.6811   -3.8798    0.5888 C.3     1  UNL1       -0.0532
     58 C          -2.7709   -3.8899   -0.5666 C.3     1  UNL1       -0.0532
     59 H          -2.0772    2.2213    3.0993 H       1  UNL1        0.0342
     60 H          -3.7552    2.9450    2.8506 H       1  UNL1        0.0342
     61 H          -2.3112    3.8052    2.3207 H       1  UNL1        0.0342
     62 H          -5.9403   -0.2312   -1.2068 H       1  UNL1        0.0601
     63 H          -6.2931    1.1229   -0.1018 H       1  UNL1        0.0601
     64 H          -4.4458    3.1749   -1.3780 H       1  UNL1        0.0638
     65 H          -2.4366    1.9556   -2.6261 H       1  UNL1        0.0317
     66 H          -3.7952    2.6848   -3.6492 H       1  UNL1        0.0317
     67 H          -3.3506    0.5044   -4.4249 H       1  UNL1        0.0604
     68 H          -5.3927    0.9049   -4.6334 H       1  UNL1        0.2098
     69 H          -4.8674   -2.1781   -1.9263 H       1  UNL1        0.0240
     70 H          -4.0694   -2.3904   -3.4612 H       1  UNL1        0.0240
     71 H          -5.3679   -1.2346   -3.3072 H       1  UNL1        0.0240
     72 H          -0.2801   -1.9761   -3.4414 H       1  UNL1        0.0721
     73 H          -1.1400   -3.9177   -3.8557 H       1  UNL1        0.2108
     74 H           1.2210   -0.7910   -2.8434 H       1  UNL1        0.0276
     75 H           1.4830   -2.6353   -2.7802 H       1  UNL1        0.0276
     76 H           2.2390   -1.5515   -1.6435 H       1  UNL1        0.0276
     77 H           1.0454   -2.0255    0.7149 H       1  UNL1        0.0783
     78 H           3.2442    1.6178    1.9797 H       1  UNL1        0.0733
     79 H           2.6683    1.6451   -0.8184 H       1  UNL1        0.2106
     80 H           5.0040    0.3824   -0.2089 H       1  UNL1        0.0581
     81 H           5.4597    2.5395    1.8326 H       1  UNL1        0.1527
     82 H           9.2407    1.7831   -1.6678 H       1  UNL1        0.0268
     83 H           9.2902    1.8589    0.1545 H       1  UNL1        0.0268
     84 H          10.4385    2.8289   -0.8481 H       1  UNL1        0.0268
     85 H           8.4898    4.6254   -2.6783 H       1  UNL1        0.0268
     86 H           6.8426    4.0970   -2.1985 H       1  UNL1        0.0268
     87 H           8.1161    2.9084   -2.8124 H       1  UNL1        0.0268
     88 H           8.8843    5.7248   -0.9255 H       1  UNL1        0.0268
     89 H          10.3157    4.6535   -0.5146 H       1  UNL1        0.0268
     90 H           9.0249    5.0213    0.7438 H       1  UNL1        0.0268
     91 H           5.1630    1.0541    3.4292 H       1  UNL1        0.0621
     92 H           5.8678   -0.6466    5.0392 H       1  UNL1        0.0618
     93 H           6.3204   -2.9911    4.2537 H       1  UNL1        0.0618
     94 H           6.0623   -3.5746    1.9022 H       1  UNL1        0.0618
     95 H           5.3591   -1.8693    0.3111 H       1  UNL1        0.0621
     96 H          -0.9472    0.0100    1.1030 H       1  UNL1        0.0334
     97 H          -0.5875   -1.4042    2.0073 H       1  UNL1        0.0334
     98 H          -2.3677   -2.0163    2.4905 H       1  UNL1        0.2104
     99 H          -3.8733   -1.9668   -0.4004 H       1  UNL1        0.0768
    100 H          -4.7784    0.7990    3.0259 H       1  UNL1        0.0626
    101 H          -6.2027    1.7270    4.8810 H       1  UNL1        0.0618
    102 H          -8.4005    0.7551    5.3460 H       1  UNL1        0.0618
    103 H          -9.1947   -1.0904    4.0137 H       1  UNL1        0.0618
    104 H          -7.8242   -2.0205    2.1883 H       1  UNL1        0.0626
    105 H          -2.2602    0.4210   -1.0645 H       1  UNL1        0.0388
    106 H           0.2634   -4.1502    0.0771 H       1  UNL1        0.0239
    107 H          -1.1314   -4.9065    0.7881 H       1  UNL1        0.0239
    108 H          -0.5613   -3.4889    1.6190 H       1  UNL1        0.0239
    109 H          -2.4644   -4.9955   -0.4762 H       1  UNL1        0.0239
    110 H          -3.2092   -3.8427   -1.5530 H       1  UNL1        0.0239
    111 H          -3.5946   -3.8418    0.1907 H       1  UNL1        0.0239
@<TRIPOS>BOND
     1     1     2    1
     2     2     3    2
     3     2     4    1
     4     5     4    1
     5     5     6    1
     6     6     7    1
     7     7     8    1
     8     8     9    1
     9     9    10    1
    10    10    11    1
    11    10    12    1
    12    12    13    1
    13    12    14    1
    14    14    15    2
    15    14    16    1
    16    16    17    1
    17    16    18    1
    18    18    19    2
    19    19    20    1
    20    19    21    1
    21    21    22    1
    22    22    23    1
    23    23    24    2
    24    23    25    1
    25    25    26    1
    26    25    27    1
    27    27    28    1
    28    28    29   am
    29    29    30    2
    30    29    31    1
    31    31    32    1
    32    32    33    1
    33    32    34    1
    34    32    35    1
    35    27    36    1
    36    36    37   ar
    37    37    38   ar
    38    38    39   ar
    39    39    40   ar
    40    40    41   ar
    41    21    42    1
    42    42    43    1
    43    43    44    1
    44    43    45    1
    45    45    46    1
    46    46    47    1
    47    47    48    2
    48    47    49    1
    49    49    50   ar
    50    50    51   ar
    51    51    52   ar
    52    52    53   ar
    53    53    54   ar
    54    45    55    1
    55    43    56    1
    56    56    57    1
    57    56    58    1
    58     8     5    1
    59    55    12    1
    60    55     5    1
    61    56    18    1
    62    41    36   ar
    63    54    49   ar
    64     1    59    1
    65     1    60    1
    66     1    61    1
    67     6    62    1
    68     6    63    1
    69     8    64    1
    70     9    65    1
    71     9    66    1
    72    10    67    1
    73    11    68    1
    74    13    69    1
    75    13    70    1
    76    13    71    1
    77    16    72    1
    78    17    73    1
    79    20    74    1
    80    20    75    1
    81    20    76    1
    82    21    77    1
    83    25    78    1
    84    26    79    1
    85    27    80    1
    86    28    81    1
    87    33    82    1
    88    33    83    1
    89    33    84    1
    90    34    85    1
    91    34    86    1
    92    34    87    1
    93    35    88    1
    94    35    89    1
    95    35    90    1
    96    37    91    1
    97    38    92    1
    98    39    93    1
    99    40    94    1
   100    41    95    1
   101    42    96    1
   102    42    97    1
   103    44    98    1
   104    45    99    1
   105    50   100    1
   106    51   101    1
   107    52   102    1
   108    53   103    1
   109    54   104    1
   110    55   105    1
   111    57   106    1
   112    57   107    1
   113    57   108    1
   114    58   109    1
   115    58   110    1
   116    58   111    1
