
     RDKit          3D

111116  0  0  0  0  0  0  0  0999 V2000
   -2.7569    2.7785    2.4506 C   0  0  0  0  0  0  0  0  0  0  0  0
   -2.8641    2.2151    1.0659 C   0  0  0  0  0  0  0  0  0  0  0  0
   -1.8624    2.2351    0.2946 O   0  0  0  0  0  0  0  0  0  0  0  0
   -3.9938    1.6622    0.5474 O   0  0  0  0  0  0  0  0  0  0  0  0
   -4.1930    1.0873   -0.7041 C   0  0  1  0  0  0  0  0  0  0  0  0
   -5.6411    0.7884   -0.9312 C   0  0  0  0  0  0  0  0  0  0  0  0
   -5.7233    1.7200   -1.9631 O   0  0  0  0  0  0  0  0  0  0  0  0
   -4.4215    2.0991   -1.7093 C   0  0  2  0  0  0  0  0  0  0  0  0
   -3.5053    1.9522   -2.9011 C   0  0  0  0  0  0  0  0  0  0  0  0
   -3.8295    0.5862   -3.4233 C   0  0  2  0  0  0  0  0  0  0  0  0
   -5.2063    0.5956   -3.7142 O   0  0  0  0  0  0  0  0  0  0  0  0
   -3.4423   -0.5431   -2.4816 C   0  0  1  0  0  0  0  0  0  0  0  0
   -4.4570   -1.6014   -2.7271 C   0  0  0  0  0  0  0  0  0  0  0  0
   -2.1602   -1.0549   -3.0437 C   0  0  0  0  0  0  0  0  0  0  0  0
   -1.7628   -0.3590   -3.9430 O   0  0  0  0  0  0  0  0  0  0  0  0
   -1.1672   -2.1749   -2.8634 C   0  0  2  0  0  0  0  0  0  0  0  0
   -1.7801   -3.2794   -3.5032 O   0  0  0  0  0  0  0  0  0  0  0  0
   -0.9326   -2.4086   -1.4385 C   0  0  0  0  0  0  0  0  0  0  0  0
    0.2288   -1.8204   -1.1878 C   0  0  0  0  0  0  0  0  0  0  0  0
    1.2642   -1.7039   -2.2099 C   0  0  0  0  0  0  0  0  0  0  0  0
    0.4163   -1.2784    0.1885 C   0  0  1  0  0  0  0  0  0  0  0  0
    1.2525   -0.1219    0.2290 O   0  0  0  0  0  0  0  0  0  0  0  0
    2.4473   -0.0401    0.8887 C   0  0  0  0  0  0  0  0  0  0  0  0
    2.7711   -1.0932    1.4969 O   0  0  0  0  0  0  0  0  0  0  0  0
    3.3642    1.1033    0.9655 C   0  0  2  0  0  0  0  0  0  0  0  0
    2.9523    2.0639    0.0543 O   0  0  0  0  0  0  0  0  0  0  0  0
    4.7999    0.7422    0.8128 C   0  0  1  0  0  0  0  0  0  0  0  0
    5.6227    1.9433    1.0122 N   0  0  0  0  0  0  0  0  0  0  0  0
    6.6359    2.2475    0.0455 C   0  0  0  0  0  0  0  0  0  0  0  0
    6.8235    1.5128   -0.9543 O   0  0  0  0  0  0  0  0  0  0  0  0
    7.4377    3.3630    0.1939 O   0  0  0  0  0  0  0  0  0  0  0  0
    8.4502    3.6320   -0.7782 C   0  0  0  0  0  0  0  0  0  0  0  0
    9.4153    2.4335   -0.7912 C   0  0  0  0  0  0  0  0  0  0  0  0
    7.9073    3.8026   -2.1656 C   0  0  0  0  0  0  0  0  0  0  0  0
    9.2278    4.8577   -0.3349 C   0  0  0  0  0  0  0  0  0  0  0  0
    5.2209   -0.3095    1.7807 C   0  0  0  0  0  0  0  0  0  0  0  0
    5.3636    0.0265    3.0979 C   0  0  0  0  0  0  0  0  0  0  0  0
    5.7559   -0.9284    3.9837 C   0  0  0  0  0  0  0  0  0  0  0  0
    6.0016   -2.2080    3.5462 C   0  0  0  0  0  0  0  0  0  0  0  0
    5.8690   -2.5841    2.2281 C   0  0  0  0  0  0  0  0  0  0  0  0
    5.4662   -1.5821    1.3490 C   0  0  0  0  0  0  0  0  0  0  0  0
   -0.8826   -1.0710    0.9427 C   0  0  0  0  0  0  0  0  0  0  0  0
   -2.0739   -1.8057    0.5249 C   0  0  1  0  0  0  0  0  0  0  0  0
   -2.4978   -2.5735    1.6884 O   0  0  0  0  0  0  0  0  0  0  0  0
   -3.2773   -1.1208   -0.0042 C   0  0  1  0  0  0  0  0  0  0  0  0
   -4.1610   -0.6832    1.0198 O   0  0  0  0  0  0  0  0  0  0  0  0
   -5.3529   -1.1792    1.3995 C   0  0  0  0  0  0  0  0  0  0  0  0
   -5.6710   -2.1757    0.6915 O   0  0  0  0  0  0  0  0  0  0  0  0
   -6.1895   -0.6738    2.4664 C   0  0  0  0  0  0  0  0  0  0  0  0
   -5.7488    0.3788    3.2321 C   0  0  0  0  0  0  0  0  0  0  0  0
   -6.5336    0.9015    4.2696 C   0  0  0  0  0  0  0  0  0  0  0  0
   -7.7652    0.3607    4.5344 C   0  0  0  0  0  0  0  0  0  0  0  0
   -8.2191   -0.6881    3.7809 C   0  0  0  0  0  0  0  0  0  0  0  0
   -7.4274   -1.1869    2.7630 C   0  0  0  0  0  0  0  0  0  0  0  0
   -3.2621   -0.0783   -1.0391 C   0  0  2  0  0  0  0  0  0  0  0  0
   -1.6041   -3.0255   -0.2694 C   0  0  0  0  0  0  0  0  0  0  0  0
   -0.6811   -3.8798    0.5888 C   0  0  0  0  0  0  0  0  0  0  0  0
   -2.7709   -3.8899   -0.5666 C   0  0  0  0  0  0  0  0  0  0  0  0
   -2.0772    2.2213    3.0993 H   0  0  0  0  0  0  0  0  0  0  0  0
   -3.7552    2.9450    2.8506 H   0  0  0  0  0  0  0  0  0  0  0  0
   -2.3112    3.8052    2.3207 H   0  0  0  0  0  0  0  0  0  0  0  0
   -5.9403   -0.2312   -1.2068 H   0  0  0  0  0  0  0  0  0  0  0  0
   -6.2931    1.1229   -0.1018 H   0  0  0  0  0  0  0  0  0  0  0  0
   -4.4458    3.1749   -1.3780 H   0  0  0  0  0  0  0  0  0  0  0  0
   -2.4366    1.9556   -2.6261 H   0  0  0  0  0  0  0  0  0  0  0  0
   -3.7952    2.6848   -3.6492 H   0  0  0  0  0  0  0  0  0  0  0  0
   -3.3506    0.5044   -4.4249 H   0  0  0  0  0  0  0  0  0  0  0  0
   -5.3927    0.9049   -4.6334 H   0  0  0  0  0  0  0  0  0  0  0  0
   -4.8674   -2.1781   -1.9263 H   0  0  0  0  0  0  0  0  0  0  0  0
   -4.0694   -2.3904   -3.4612 H   0  0  0  0  0  0  0  0  0  0  0  0
   -5.3679   -1.2346   -3.3072 H   0  0  0  0  0  0  0  0  0  0  0  0
   -0.2801   -1.9761   -3.4414 H   0  0  0  0  0  0  0  0  0  0  0  0
   -1.1400   -3.9177   -3.8557 H   0  0  0  0  0  0  0  0  0  0  0  0
    1.2210   -0.7910   -2.8434 H   0  0  0  0  0  0  0  0  0  0  0  0
    1.4830   -2.6353   -2.7802 H   0  0  0  0  0  0  0  0  0  0  0  0
    2.2390   -1.5515   -1.6435 H   0  0  0  0  0  0  0  0  0  0  0  0
    1.0454   -2.0255    0.7149 H   0  0  0  0  0  0  0  0  0  0  0  0
    3.2442    1.6178    1.9797 H   0  0  0  0  0  0  0  0  0  0  0  0
    2.6683    1.6451   -0.8184 H   0  0  0  0  0  0  0  0  0  0  0  0
    5.0040    0.3824   -0.2089 H   0  0  0  0  0  0  0  0  0  0  0  0
    5.4597    2.5395    1.8326 H   0  0  0  0  0  0  0  0  0  0  0  0
    9.2407    1.7831   -1.6678 H   0  0  0  0  0  0  0  0  0  0  0  0
    9.2902    1.8589    0.1545 H   0  0  0  0  0  0  0  0  0  0  0  0
   10.4385    2.8289   -0.8481 H   0  0  0  0  0  0  0  0  0  0  0  0
    8.4898    4.6254   -2.6783 H   0  0  0  0  0  0  0  0  0  0  0  0
    6.8426    4.0970   -2.1985 H   0  0  0  0  0  0  0  0  0  0  0  0
    8.1161    2.9084   -2.8124 H   0  0  0  0  0  0  0  0  0  0  0  0
    8.8843    5.7248   -0.9255 H   0  0  0  0  0  0  0  0  0  0  0  0
   10.3157    4.6535   -0.5146 H   0  0  0  0  0  0  0  0  0  0  0  0
    9.0249    5.0213    0.7438 H   0  0  0  0  0  0  0  0  0  0  0  0
    5.1630    1.0541    3.4292 H   0  0  0  0  0  0  0  0  0  0  0  0
    5.8678   -0.6466    5.0392 H   0  0  0  0  0  0  0  0  0  0  0  0
    6.3204   -2.9911    4.2537 H   0  0  0  0  0  0  0  0  0  0  0  0
    6.0623   -3.5746    1.9022 H   0  0  0  0  0  0  0  0  0  0  0  0
    5.3591   -1.8693    0.3111 H   0  0  0  0  0  0  0  0  0  0  0  0
   -0.9472    0.0100    1.1030 H   0  0  0  0  0  0  0  0  0  0  0  0
   -0.5875   -1.4042    2.0073 H   0  0  0  0  0  0  0  0  0  0  0  0
   -2.3677   -2.0163    2.4905 H   0  0  0  0  0  0  0  0  0  0  0  0
   -3.8733   -1.9668   -0.4004 H   0  0  0  0  0  0  0  0  0  0  0  0
   -4.7784    0.7990    3.0259 H   0  0  0  0  0  0  0  0  0  0  0  0
   -6.2027    1.7270    4.8810 H   0  0  0  0  0  0  0  0  0  0  0  0
   -8.4005    0.7551    5.3460 H   0  0  0  0  0  0  0  0  0  0  0  0
   -9.1947   -1.0904    4.0137 H   0  0  0  0  0  0  0  0  0  0  0  0
   -7.8242   -2.0205    2.1883 H   0  0  0  0  0  0  0  0  0  0  0  0
   -2.2602    0.4210   -1.0645 H   0  0  0  0  0  0  0  0  0  0  0  0
    0.2634   -4.1502    0.0771 H   0  0  0  0  0  0  0  0  0  0  0  0
   -1.1314   -4.9065    0.7881 H   0  0  0  0  0  0  0  0  0  0  0  0
   -0.5613   -3.4889    1.6190 H   0  0  0  0  0  0  0  0  0  0  0  0
   -2.4644   -4.9955   -0.4762 H   0  0  0  0  0  0  0  0  0  0  0  0
   -3.2092   -3.8427   -1.5530 H   0  0  0  0  0  0  0  0  0  0  0  0
   -3.5946   -3.8418    0.1907 H   0  0  0  0  0  0  0  0  0  0  0  0
  1  2  1  0
  2  3  2  0
  2  4  1  0
  5  4  1  1
  5  6  1  0
  6  7  1  0
  7  8  1  0
  8  9  1  0
  9 10  1  0
 10 11  1  0
 10 12  1  0
 12 13  1  1
 12 14  1  0
 14 15  2  0
 14 16  1  0
 16 17  1  0
 16 18  1  0
 18 19  2  0
 19 20  1  0
 19 21  1  0
 21 22  1  0
 22 23  1  0
 23 24  2  0
 23 25  1  0
 25 26  1  0
 25 27  1  0
 27 28  1  0
 28 29  1  0
 29 30  2  0
 29 31  1  0
 31 32  1  0
 32 33  1  0
 32 34  1  0
 32 35  1  0
 27 36  1  0
 36 37  2  0
 37 38  1  0
 38 39  2  0
 39 40  1  0
 40 41  2  0
 21 42  1  0
 42 43  1  0
 43 44  1  1
 43 45  1  0
 45 46  1  0
 46 47  1  0
 47 48  2  0
 47 49  1  0
 49 50  2  0
 50 51  1  0
 51 52  2  0
 52 53  1  0
 53 54  2  0
 45 55  1  0
 43 56  1  0
 56 57  1  0
 56 58  1  0
  8  5  1  0
 55 12  1  0
 55  5  1  0
 56 18  1  0
 41 36  1  0
 54 49  1  0
  1 59  1  0
  1 60  1  0
  1 61  1  0
  6 62  1  0
  6 63  1  0
  8 64  1  1
  9 65  1  0
  9 66  1  0
 10 67  1  6
 11 68  1  0
 13 69  1  0
 13 70  1  0
 13 71  1  0
 16 72  1  6
 17 73  1  0
 20 74  1  0
 20 75  1  0
 20 76  1  0
 21 77  1  1
 25 78  1  1
 26 79  1  0
 27 80  1  6
 28 81  1  0
 33 82  1  0
 33 83  1  0
 33 84  1  0
 34 85  1  0
 34 86  1  0
 34 87  1  0
 35 88  1  0
 35 89  1  0
 35 90  1  0
 37 91  1  0
 38 92  1  0
 39 93  1  0
 40 94  1  0
 41 95  1  0
 42 96  1  0
 42 97  1  0
 44 98  1  0
 45 99  1  6
 50100  1  0
 51101  1  0
 52102  1  0
 53103  1  0
 54104  1  0
 55105  1  6
 57106  1  0
 57107  1  0
 57108  1  0
 58109  1  0
 58110  1  0
 58111  1  0
M  END
$$$$
