@<TRIPOS>MOLECULE
*****
 42 43 0 0 0
SMALL
GASTEIGER

@<TRIPOS>ATOM
      1 C           7.3406    0.3927   -0.3212 C.3     1  UNL1       -0.0307
      2 C           6.4958    1.0099   -1.3953 C.3     1  UNL1        0.0868
      3 O           5.1433    1.0335   -1.0651 O.3     1  UNL1       -0.4922
      4 C           4.4602   -0.1454   -0.8266 C.ar    1  UNL1        0.1211
      5 C           3.1321    0.1688   -0.5153 C.ar    1  UNL1       -0.0122
      6 C           2.2009   -0.8371   -0.2255 C.ar    1  UNL1       -0.0144
      7 C           2.6033   -2.1719   -0.2476 C.ar    1  UNL1       -0.0538
      8 C           3.9160   -2.4537   -0.5571 C.ar    1  UNL1       -0.0577
      9 C           4.8382   -1.4705   -0.8434 C.ar    1  UNL1       -0.0199
     10 C           0.8029   -0.5896    0.1083 C.ar    1  UNL1       -0.0177
     11 C          -0.1595   -1.5405   -0.2524 C.ar    1  UNL1       -0.0523
     12 C          -1.4823   -1.2711    0.0835 C.ar    1  UNL1       -0.0399
     13 C          -1.8481   -0.1072    0.7513 C.ar    1  UNL1        0.0337
     14 N          -3.2354   -0.0571    0.9816 N.am    1  UNL1       -0.2808
     15 C          -4.3190    0.4646    0.2217 C.2     1  UNL1        0.2618
     16 O          -4.0817    1.0057   -0.8881 O.2     1  UNL1       -0.2690
     17 C          -5.6738    0.3566    0.7522 C.2     1  UNL1        0.1502
     18 C          -5.9158   -0.2634    2.0155 C.1     1  UNL1        0.1077
     19 N          -6.1061   -0.7868    3.0398 N.1     1  UNL1       -0.1906
     20 C          -6.6637    0.8502    0.0254 C.2     1  UNL1        0.1133
     21 C          -8.0298    0.7174    0.6066 C.3     1  UNL1       -0.0057
     22 O          -6.4273    1.4445   -1.1871 O.2     1  UNL1       -0.5099
     23 C          -0.8565    0.7906    1.0798 C.ar    1  UNL1       -0.0399
     24 C           0.4593    0.5706    0.7709 C.ar    1  UNL1       -0.0523
     25 H           6.6679    0.0178    0.4996 H       1  UNL1        0.0262
     26 H           7.9482   -0.4345   -0.7323 H       1  UNL1        0.0262
     27 H           8.0247    1.1609    0.1256 H       1  UNL1        0.0262
     28 H           6.6204    0.4993   -2.3811 H       1  UNL1        0.0694
     29 H           6.8160    2.0780   -1.5335 H       1  UNL1        0.0694
     30 H           2.6572    1.1503   -0.4549 H       1  UNL1        0.0660
     31 H           1.9641   -3.0160   -0.0395 H       1  UNL1        0.0624
     32 H           4.3247   -3.4463   -0.6006 H       1  UNL1        0.0619
     33 H           5.8807   -1.5714   -1.0993 H       1  UNL1        0.0654
     34 H           0.1514   -2.4391   -0.7723 H       1  UNL1        0.0624
     35 H          -2.1576   -2.0663   -0.2372 H       1  UNL1        0.0636
     36 H          -3.3502   -0.5249    1.9200 H       1  UNL1        0.1552
     37 H          -8.7423    1.0591   -0.1705 H       1  UNL1        0.0308
     38 H          -8.1463    1.2976    1.5398 H       1  UNL1        0.0308
     39 H          -8.1830   -0.3784    0.8090 H       1  UNL1        0.0308
     40 H          -7.0098    2.1071   -1.6450 H       1  UNL1        0.2917
     41 H          -1.2409    1.6631    1.5963 H       1  UNL1        0.0636
     42 H           1.1813    1.3260    1.0640 H       1  UNL1        0.0624
@<TRIPOS>BOND
     1     1     2    1
     2     2     3    1
     3     3     4    1
     4     4     5   ar
     5     5     6   ar
     6     6     7   ar
     7     7     8   ar
     8     8     9   ar
     9     6    10    1
    10    10    11   ar
    11    11    12   ar
    12    12    13   ar
    13    13    14    1
    14    14    15   am
    15    15    16    2
    16    15    17    1
    17    17    18    1
    18    18    19    3
    19    17    20    2
    20    20    21    1
    21    20    22    1
    22    13    23   ar
    23    23    24   ar
    24     9     4   ar
    25    24    10   ar
    26     1    25    1
    27     1    26    1
    28     1    27    1
    29     2    28    1
    30     2    29    1
    31     5    30    1
    32     7    31    1
    33     8    32    1
    34     9    33    1
    35    11    34    1
    36    12    35    1
    37    14    36    1
    38    21    37    1
    39    21    38    1
    40    21    39    1
    41    22    40    1
    42    23    41    1
    43    24    42    1
