@<TRIPOS>MOLECULE
*****
 33 34 0 0 0
SMALL
GASTEIGER

@<TRIPOS>ATOM
      1 C           1.1091   -0.7829   -1.2167 C.3     1  UNL1        0.1137
      2 C           1.1328   -2.2945   -1.1083 C.3     1  UNL1        0.0730
      3 O           0.5023   -2.8984   -2.2075 O.3     1  UNL1       -0.3924
      4 O          -0.2067   -0.3867   -1.2618 O.3     1  UNL1       -0.3453
      5 C          -0.4407    0.4351   -0.1629 C.3     1  UNL1        0.1732
      6 N          -1.8343    0.3908    0.1337 N.ar    1  UNL1       -0.2696
      7 C          -2.4465   -0.4204    0.9840 C.ar    1  UNL1        0.0170
      8 C          -3.8226   -0.3146    1.1409 C.ar    1  UNL1        0.0163
      9 C          -4.5636    0.6146    0.4323 C.ar    1  UNL1        0.2182
     10 O          -5.9344    0.6190    0.6804 O.3     1  UNL1       -0.4923
     11 N          -3.9096    1.4077   -0.4092 N.ar    1  UNL1       -0.1577
     12 C          -2.5796    1.2848   -0.5421 C.ar    1  UNL1        0.3536
     13 O          -2.0841    2.1093   -1.3830 O.2     1  UNL1       -0.2443
     14 C           0.4545   -0.1834    0.8929 C.3     1  UNL1        0.1748
     15 F           0.6000    0.5878    2.0139 F       1  UNL1       -0.2380
     16 C           1.7169   -0.2193    0.0362 C.3     1  UNL1        0.1334
     17 O           2.1683    1.0504   -0.0434 O.3     1  UNL1       -0.2777
     18 P           3.6740    1.4379    0.4950 P.3     1  UNL1        0.4728
     19 O           4.5717    0.0975    1.0404 O.3     1  UNL1       -0.3026
     20 O           4.6429    2.2666   -0.6054 O.3     1  UNL1       -0.3026
     21 O           3.5315    2.3606    1.6898 O.2     1  UNL1       -0.2275
     22 H           1.6842   -0.5432   -2.1272 H       1  UNL1        0.0647
     23 H           0.6366   -2.6900   -0.2130 H       1  UNL1        0.0584
     24 H           2.1744   -2.6886   -1.0973 H       1  UNL1        0.0584
     25 H          -0.4433   -3.0587   -2.0602 H       1  UNL1        0.2095
     26 H          -0.1012    1.4701   -0.3161 H       1  UNL1        0.0870
     27 H          -1.8513   -1.1247    1.5150 H       1  UNL1        0.0813
     28 H          -4.2389   -1.0202    1.8592 H       1  UNL1        0.0685
     29 H          -6.4570    1.4120    0.3001 H       1  UNL1        0.2937
     30 H           0.1469   -1.2225    1.1167 H       1  UNL1        0.0724
     31 H           2.4594   -0.9266    0.4893 H       1  UNL1        0.0659
     32 H           5.5011    0.1034    0.7008 H       1  UNL1        0.2220
     33 H           4.2071    3.1270   -0.7955 H       1  UNL1        0.2220
@<TRIPOS>BOND
     1     1     2    1
     2     2     3    1
     3     1     4    1
     4     4     5    1
     5     5     6    1
     6     6     7   ar
     7     7     8   ar
     8     8     9   ar
     9     9    10    1
    10     9    11   ar
    11    11    12   ar
    12    12    13    2
    13     5    14    1
    14    14    15    1
    15    14    16    1
    16    16    17    1
    17    17    18    1
    18    18    19    1
    19    18    20    1
    20    18    21    2
    21    16     1    1
    22    12     6   ar
    23     1    22    1
    24     2    23    1
    25     2    24    1
    26     3    25    1
    27     5    26    1
    28     7    27    1
    29     8    28    1
    30    10    29    1
    31    14    30    1
    32    16    31    1
    33    19    32    1
    34    20    33    1
