@<TRIPOS>MOLECULE
*****
 73 78 0 0 0
SMALL
GASTEIGER

@<TRIPOS>ATOM
      1 C          -1.0393    7.5034   -3.2758 C.3     1  UNL1        0.0804
      2 O          -0.4559    6.4304   -2.5677 O.3     1  UNL1       -0.4795
      3 C          -1.1839    5.2758   -2.3386 C.ar    1  UNL1        0.2191
      4 C          -0.6162    4.2187   -1.6422 C.ar    1  UNL1        0.0404
      5 C          -1.3122    3.0572   -1.3974 C.ar    1  UNL1        0.1364
      6 N          -0.7235    1.9938   -0.6830 N.am    1  UNL1       -0.2240
      7 C           0.5947    1.9546   -0.0891 C.2     1  UNL1        0.3219
      8 O           1.2102    2.9615    0.3472 O.2     1  UNL1       -0.2512
      9 N           1.0396    0.5935   -0.0968 N.am    1  UNL1       -0.1920
     10 C           2.2739    0.0765    0.3819 C.ar    1  UNL1        0.0455
     11 C           2.4974   -0.3494    1.6574 C.ar    1  UNL1       -0.0392
     12 C           3.7556   -0.8356    1.9705 C.ar    1  UNL1       -0.0523
     13 C           4.7849   -0.9014    1.0336 C.ar    1  UNL1       -0.0177
     14 C           6.0863   -1.4175    1.4201 C.ar    1  UNL1       -0.0171
     15 C           6.5867   -1.2527    2.6938 C.ar    1  UNL1       -0.0540
     16 C           7.8272   -1.7536    3.0447 C.ar    1  UNL1       -0.0604
     17 C           8.5934   -2.4350    2.1148 C.ar    1  UNL1       -0.0477
     18 C           8.1078   -2.6080    0.8396 C.ar    1  UNL1        0.0594
     19 C           8.9019   -3.3191   -0.1528 C.2     1  UNL1        0.3368
     20 O          10.0486   -3.7723    0.1412 O.2     1  UNL1       -0.2451
     21 O           8.4564   -3.5338   -1.4459 O.3     1  UNL1       -0.4771
     22 C           6.8728   -2.1090    0.4908 C.ar    1  UNL1       -0.0400
     23 C           4.5412   -0.4644   -0.2592 C.ar    1  UNL1       -0.0523
     24 C           3.3036    0.0128   -0.5632 C.ar    1  UNL1       -0.0392
     25 C          -0.0430   -0.1488   -0.7046 C.2     1  UNL1        0.2516
     26 O           0.0796   -1.2127   -1.3557 O.2     1  UNL1       -0.2724
     27 C          -1.2415    0.6652   -0.3520 C.3     1  UNL1        0.1240
     28 C          -2.4837    0.2857   -1.0609 C.3     1  UNL1       -0.0095
     29 C          -2.9016   -1.0831   -0.5486 C.3     1  UNL1        0.0017
     30 N          -3.0764   -1.1567    0.8248 N.3     1  UNL1       -0.2965
     31 C          -4.2804   -1.0342    1.5018 C.3     1  UNL1        0.0415
     32 C          -5.3002   -2.0350    1.1302 C.ar    1  UNL1        0.0581
     33 N          -5.3515   -3.2279    1.8147 N.ar    1  UNL1       -0.2583
     34 C          -6.2013   -4.2138    1.5244 C.ar    1  UNL1        0.0279
     35 C          -7.1112   -4.1093    0.4949 C.ar    1  UNL1       -0.0433
     36 C          -7.1061   -2.9489   -0.2166 C.ar    1  UNL1       -0.0557
     37 C          -6.2034   -1.9224    0.1064 C.ar    1  UNL1       -0.0279
     38 C          -6.3085   -0.6630   -0.6810 C.3     1  UNL1       -0.0380
     39 C          -1.9091   -0.7306    1.5943 C.3     1  UNL1        0.0017
     40 C          -1.4303    0.6285    1.1503 C.3     1  UNL1       -0.0095
     41 N          -2.5615    2.9967   -1.8634 N.ar    1  UNL1       -0.2200
     42 C          -3.1202    4.0382   -2.5489 C.ar    1  UNL1        0.1219
     43 N          -2.4307    5.1648   -2.7809 N.ar    1  UNL1       -0.2013
     44 H          -2.1180    7.3055   -3.4590 H       1  UNL1        0.0660
     45 H          -0.5606    7.5796   -4.2769 H       1  UNL1        0.0660
     46 H          -0.9001    8.4803   -2.7549 H       1  UNL1        0.0660
     47 H           0.4121    4.3596   -1.3020 H       1  UNL1        0.0705
     48 H           1.6898   -0.2932    2.3736 H       1  UNL1        0.0636
     49 H           3.9292   -1.1737    2.9902 H       1  UNL1        0.0624
     50 H           6.0006   -0.7185    3.4497 H       1  UNL1        0.0624
     51 H           8.2384   -1.6303    4.0544 H       1  UNL1        0.0618
     52 H           9.5827   -2.8437    2.3655 H       1  UNL1        0.0626
     53 H           8.9871   -4.1485   -2.0487 H       1  UNL1        0.2954
     54 H           6.4618   -2.2316   -0.5125 H       1  UNL1        0.0632
     55 H           5.3230   -0.5079   -0.9981 H       1  UNL1        0.0624
     56 H           3.1404    0.3509   -1.5915 H       1  UNL1        0.0636
     57 H          -3.2731    1.0087   -0.7927 H       1  UNL1        0.0303
     58 H          -2.3639    0.2083   -2.1438 H       1  UNL1        0.0303
     59 H          -2.0691   -1.8022   -0.8290 H       1  UNL1        0.0427
     60 H          -3.7520   -1.4397   -1.1272 H       1  UNL1        0.0427
     61 H          -4.0929   -1.2201    2.6171 H       1  UNL1        0.0491
     62 H          -4.7519   -0.0245    1.4056 H       1  UNL1        0.0491
     63 H          -6.1988   -5.1468    2.1041 H       1  UNL1        0.0829
     64 H          -7.7978   -4.9322    0.2740 H       1  UNL1        0.0633
     65 H          -7.8082   -2.8300   -1.0325 H       1  UNL1        0.0621
     66 H          -5.9653   -0.8147   -1.7448 H       1  UNL1        0.0278
     67 H          -5.8962    0.2178   -0.1998 H       1  UNL1        0.0278
     68 H          -7.4152   -0.4593   -0.8097 H       1  UNL1        0.0278
     69 H          -1.0939   -1.4753    1.5552 H       1  UNL1        0.0427
     70 H          -2.2370   -0.6471    2.6465 H       1  UNL1        0.0427
     71 H          -0.4199    0.7872    1.5922 H       1  UNL1        0.0303
     72 H          -2.0939    1.4396    1.4652 H       1  UNL1        0.0303
     73 H          -4.1276    3.9830   -2.9232 H       1  UNL1        0.1049
@<TRIPOS>BOND
     1     1     2    1
     2     2     3    1
     3     3     4   ar
     4     4     5   ar
     5     5     6    1
     6     6     7   am
     7     7     8    2
     8     7     9   am
     9     9    10    1
    10    10    11   ar
    11    11    12   ar
    12    12    13   ar
    13    13    14    1
    14    14    15   ar
    15    15    16   ar
    16    16    17   ar
    17    17    18   ar
    18    18    19    1
    19    19    20    2
    20    19    21    1
    21    18    22   ar
    22    13    23   ar
    23    23    24   ar
    24     9    25   am
    25    25    26    2
    26    25    27    1
    27    27    28    1
    28    28    29    1
    29    29    30    1
    30    30    31    1
    31    31    32    1
    32    32    33   ar
    33    33    34   ar
    34    34    35   ar
    35    35    36   ar
    36    36    37   ar
    37    37    38    1
    38    30    39    1
    39    39    40    1
    40     5    41   ar
    41    41    42   ar
    42    42    43   ar
    43    43     3   ar
    44    27     6    1
    45    37    32   ar
    46    24    10   ar
    47    40    27    1
    48    22    14   ar
    49     1    44    1
    50     1    45    1
    51     1    46    1
    52     4    47    1
    53    11    48    1
    54    12    49    1
    55    15    50    1
    56    16    51    1
    57    17    52    1
    58    21    53    1
    59    22    54    1
    60    23    55    1
    61    24    56    1
    62    28    57    1
    63    28    58    1
    64    29    59    1
    65    29    60    1
    66    31    61    1
    67    31    62    1
    68    34    63    1
    69    35    64    1
    70    36    65    1
    71    38    66    1
    72    38    67    1
    73    38    68    1
    74    39    69    1
    75    39    70    1
    76    40    71    1
    77    40    72    1
    78    42    73    1
