
     RDKit          3D

 73 78  0  0  0  0  0  0  0  0999 V2000
   -1.0393    7.5034   -3.2758 C   0  0  0  0  0  0  0  0  0  0  0  0
   -0.4559    6.4304   -2.5677 O   0  0  0  0  0  0  0  0  0  0  0  0
   -1.1839    5.2758   -2.3386 C   0  0  0  0  0  0  0  0  0  0  0  0
   -0.6162    4.2187   -1.6422 C   0  0  0  0  0  0  0  0  0  0  0  0
   -1.3122    3.0572   -1.3974 C   0  0  0  0  0  0  0  0  0  0  0  0
   -0.7235    1.9938   -0.6830 N   0  0  0  0  0  0  0  0  0  0  0  0
    0.5947    1.9546   -0.0891 C   0  0  0  0  0  0  0  0  0  0  0  0
    1.2102    2.9615    0.3472 O   0  0  0  0  0  0  0  0  0  0  0  0
    1.0396    0.5935   -0.0968 N   0  0  0  0  0  0  0  0  0  0  0  0
    2.2739    0.0765    0.3819 C   0  0  0  0  0  0  0  0  0  0  0  0
    2.4974   -0.3494    1.6574 C   0  0  0  0  0  0  0  0  0  0  0  0
    3.7556   -0.8356    1.9705 C   0  0  0  0  0  0  0  0  0  0  0  0
    4.7849   -0.9014    1.0336 C   0  0  0  0  0  0  0  0  0  0  0  0
    6.0863   -1.4175    1.4201 C   0  0  0  0  0  0  0  0  0  0  0  0
    6.5867   -1.2527    2.6938 C   0  0  0  0  0  0  0  0  0  0  0  0
    7.8272   -1.7536    3.0447 C   0  0  0  0  0  0  0  0  0  0  0  0
    8.5934   -2.4350    2.1148 C   0  0  0  0  0  0  0  0  0  0  0  0
    8.1078   -2.6080    0.8396 C   0  0  0  0  0  0  0  0  0  0  0  0
    8.9019   -3.3191   -0.1528 C   0  0  0  0  0  0  0  0  0  0  0  0
   10.0486   -3.7723    0.1412 O   0  0  0  0  0  0  0  0  0  0  0  0
    8.4564   -3.5338   -1.4459 O   0  0  0  0  0  0  0  0  0  0  0  0
    6.8728   -2.1090    0.4908 C   0  0  0  0  0  0  0  0  0  0  0  0
    4.5412   -0.4644   -0.2592 C   0  0  0  0  0  0  0  0  0  0  0  0
    3.3036    0.0128   -0.5632 C   0  0  0  0  0  0  0  0  0  0  0  0
   -0.0430   -0.1488   -0.7046 C   0  0  0  0  0  0  0  0  0  0  0  0
    0.0796   -1.2127   -1.3557 O   0  0  0  0  0  0  0  0  0  0  0  0
   -1.2415    0.6652   -0.3520 C   0  0  0  0  0  0  0  0  0  0  0  0
   -2.4837    0.2857   -1.0609 C   0  0  0  0  0  0  0  0  0  0  0  0
   -2.9016   -1.0831   -0.5486 C   0  0  0  0  0  0  0  0  0  0  0  0
   -3.0764   -1.1567    0.8248 N   0  0  0  0  0  0  0  0  0  0  0  0
   -4.2804   -1.0342    1.5018 C   0  0  0  0  0  0  0  0  0  0  0  0
   -5.3002   -2.0350    1.1302 C   0  0  0  0  0  0  0  0  0  0  0  0
   -5.3515   -3.2279    1.8147 N   0  0  0  0  0  0  0  0  0  0  0  0
   -6.2013   -4.2138    1.5244 C   0  0  0  0  0  0  0  0  0  0  0  0
   -7.1112   -4.1093    0.4949 C   0  0  0  0  0  0  0  0  0  0  0  0
   -7.1061   -2.9489   -0.2166 C   0  0  0  0  0  0  0  0  0  0  0  0
   -6.2034   -1.9224    0.1064 C   0  0  0  0  0  0  0  0  0  0  0  0
   -6.3085   -0.6630   -0.6810 C   0  0  0  0  0  0  0  0  0  0  0  0
   -1.9091   -0.7306    1.5943 C   0  0  0  0  0  0  0  0  0  0  0  0
   -1.4303    0.6285    1.1503 C   0  0  0  0  0  0  0  0  0  0  0  0
   -2.5615    2.9967   -1.8634 N   0  0  0  0  0  0  0  0  0  0  0  0
   -3.1202    4.0382   -2.5489 C   0  0  0  0  0  0  0  0  0  0  0  0
   -2.4307    5.1648   -2.7809 N   0  0  0  0  0  0  0  0  0  0  0  0
   -2.1180    7.3055   -3.4590 H   0  0  0  0  0  0  0  0  0  0  0  0
   -0.5606    7.5796   -4.2769 H   0  0  0  0  0  0  0  0  0  0  0  0
   -0.9001    8.4803   -2.7549 H   0  0  0  0  0  0  0  0  0  0  0  0
    0.4121    4.3596   -1.3020 H   0  0  0  0  0  0  0  0  0  0  0  0
    1.6898   -0.2932    2.3736 H   0  0  0  0  0  0  0  0  0  0  0  0
    3.9292   -1.1737    2.9902 H   0  0  0  0  0  0  0  0  0  0  0  0
    6.0006   -0.7185    3.4497 H   0  0  0  0  0  0  0  0  0  0  0  0
    8.2384   -1.6303    4.0544 H   0  0  0  0  0  0  0  0  0  0  0  0
    9.5827   -2.8437    2.3655 H   0  0  0  0  0  0  0  0  0  0  0  0
    8.9871   -4.1485   -2.0487 H   0  0  0  0  0  0  0  0  0  0  0  0
    6.4618   -2.2316   -0.5125 H   0  0  0  0  0  0  0  0  0  0  0  0
    5.3230   -0.5079   -0.9981 H   0  0  0  0  0  0  0  0  0  0  0  0
    3.1404    0.3509   -1.5915 H   0  0  0  0  0  0  0  0  0  0  0  0
   -3.2731    1.0087   -0.7927 H   0  0  0  0  0  0  0  0  0  0  0  0
   -2.3639    0.2083   -2.1438 H   0  0  0  0  0  0  0  0  0  0  0  0
   -2.0691   -1.8022   -0.8290 H   0  0  0  0  0  0  0  0  0  0  0  0
   -3.7520   -1.4397   -1.1272 H   0  0  0  0  0  0  0  0  0  0  0  0
   -4.0929   -1.2201    2.6171 H   0  0  0  0  0  0  0  0  0  0  0  0
   -4.7519   -0.0245    1.4056 H   0  0  0  0  0  0  0  0  0  0  0  0
   -6.1988   -5.1468    2.1041 H   0  0  0  0  0  0  0  0  0  0  0  0
   -7.7978   -4.9322    0.2740 H   0  0  0  0  0  0  0  0  0  0  0  0
   -7.8082   -2.8300   -1.0325 H   0  0  0  0  0  0  0  0  0  0  0  0
   -5.9653   -0.8147   -1.7448 H   0  0  0  0  0  0  0  0  0  0  0  0
   -5.8962    0.2178   -0.1998 H   0  0  0  0  0  0  0  0  0  0  0  0
   -7.4152   -0.4593   -0.8097 H   0  0  0  0  0  0  0  0  0  0  0  0
   -1.0939   -1.4753    1.5552 H   0  0  0  0  0  0  0  0  0  0  0  0
   -2.2370   -0.6471    2.6465 H   0  0  0  0  0  0  0  0  0  0  0  0
   -0.4199    0.7872    1.5922 H   0  0  0  0  0  0  0  0  0  0  0  0
   -2.0939    1.4396    1.4652 H   0  0  0  0  0  0  0  0  0  0  0  0
   -4.1276    3.9830   -2.9232 H   0  0  0  0  0  0  0  0  0  0  0  0
  1  2  1  0
  2  3  1  0
  3  4  2  0
  4  5  1  0
  5  6  1  0
  6  7  1  0
  7  8  2  0
  7  9  1  0
  9 10  1  0
 10 11  2  0
 11 12  1  0
 12 13  2  0
 13 14  1  0
 14 15  2  0
 15 16  1  0
 16 17  2  0
 17 18  1  0
 18 19  1  0
 19 20  2  0
 19 21  1  0
 18 22  2  0
 13 23  1  0
 23 24  2  0
  9 25  1  0
 25 26  2  0
 25 27  1  0
 27 28  1  0
 28 29  1  0
 29 30  1  0
 30 31  1  0
 31 32  1  0
 32 33  2  0
 33 34  1  0
 34 35  2  0
 35 36  1  0
 36 37  2  0
 37 38  1  0
 30 39  1  0
 39 40  1  0
  5 41  2  0
 41 42  1  0
 42 43  2  0
 43  3  1  0
 27  6  1  0
 37 32  1  0
 24 10  1  0
 40 27  1  0
 22 14  1  0
  1 44  1  0
  1 45  1  0
  1 46  1  0
  4 47  1  0
 11 48  1  0
 12 49  1  0
 15 50  1  0
 16 51  1  0
 17 52  1  0
 21 53  1  0
 22 54  1  0
 23 55  1  0
 24 56  1  0
 28 57  1  0
 28 58  1  0
 29 59  1  0
 29 60  1  0
 31 61  1  0
 31 62  1  0
 34 63  1  0
 35 64  1  0
 36 65  1  0
 38 66  1  0
 38 67  1  0
 38 68  1  0
 39 69  1  0
 39 70  1  0
 40 71  1  0
 40 72  1  0
 42 73  1  0
M  END
$$$$
