
     RDKit          3D

 28 29  0  0  0  0  0  0  0  0999 V2000
   -1.6290   -3.0081   -0.3537 C   0  0  0  0  0  0  0  0  0  0  0  0
   -0.9177   -1.9544    0.2405 O   0  0  0  0  0  0  0  0  0  0  0  0
   -1.3662   -0.6455    0.3575 C   0  0  0  0  0  0  0  0  0  0  0  0
   -2.5495   -0.1894   -0.0805 N   0  0  0  0  0  0  0  0  0  0  0  0
   -2.9466    1.0848    0.0518 C   0  0  0  0  0  0  0  0  0  0  0  0
   -4.2555    1.5197   -0.4501 C   0  0  0  0  0  0  0  0  0  0  0  0
   -2.1022    1.9518    0.6616 N   0  0  0  0  0  0  0  0  0  0  0  0
   -0.8897    1.5482    1.1263 C   0  0  0  0  0  0  0  0  0  0  0  0
    0.1066    2.7686    1.8949 Cl  0  0  0  0  0  0  0  0  0  0  0  0
   -0.4881    0.2224    0.9832 C   0  0  0  0  0  0  0  0  0  0  0  0
    0.8031   -0.0904    1.5073 N   0  0  0  0  0  0  0  0  0  0  0  0
    1.9717    0.0255    0.6714 C   0  0  0  0  0  0  0  0  0  0  0  0
    1.9008    0.5867   -0.5045 N   0  0  0  0  0  0  0  0  0  0  0  0
    3.2227    0.5646   -1.1192 C   0  0  0  0  0  0  0  0  0  0  0  0
    4.1872    0.3389    0.0522 C   0  0  0  0  0  0  0  0  0  0  0  0
    3.3196   -0.4114    0.9390 N   0  0  0  0  0  0  0  0  0  0  0  0
   -1.3481   -3.2116   -1.3882 H   0  0  0  0  0  0  0  0  0  0  0  0
   -1.4724   -3.9209    0.2821 H   0  0  0  0  0  0  0  0  0  0  0  0
   -2.7278   -2.7671   -0.2626 H   0  0  0  0  0  0  0  0  0  0  0  0
   -5.0192    0.8097   -0.0312 H   0  0  0  0  0  0  0  0  0  0  0  0
   -4.4539    2.5521   -0.0582 H   0  0  0  0  0  0  0  0  0  0  0  0
   -4.2434    1.5402   -1.5550 H   0  0  0  0  0  0  0  0  0  0  0  0
    0.9950   -0.4153    2.4992 H   0  0  0  0  0  0  0  0  0  0  0  0
    3.3029   -0.3658   -1.7344 H   0  0  0  0  0  0  0  0  0  0  0  0
    3.4652    1.4835   -1.6563 H   0  0  0  0  0  0  0  0  0  0  0  0
    5.0930   -0.1893   -0.2527 H   0  0  0  0  0  0  0  0  0  0  0  0
    4.5015    1.3062    0.5059 H   0  0  0  0  0  0  0  0  0  0  0  0
    3.5399   -1.1338    1.6511 H   0  0  0  0  0  0  0  0  0  0  0  0
  1  2  1  0
  2  3  1  0
  3  4  2  0
  4  5  1  0
  5  6  1  0
  5  7  2  0
  7  8  1  0
  8  9  1  0
  8 10  2  0
 10 11  1  0
 11 12  1  0
 12 13  2  0
 13 14  1  0
 14 15  1  0
 15 16  1  0
 10  3  1  0
 16 12  1  0
  1 17  1  0
  1 18  1  0
  1 19  1  0
  6 20  1  0
  6 21  1  0
  6 22  1  0
 11 23  1  0
 14 24  1  0
 14 25  1  0
 15 26  1  0
 15 27  1  0
 16 28  1  0
M  END
$$$$
