
     RDKit          3D

 42 45  0  0  0  0  0  0  0  0999 V2000
   -1.8288    2.7264   -0.3924 C   0  0  0  0  0  0  0  0  0  0  0  0
   -1.5003    1.5588    0.3759 N   0  0  0  0  0  0  0  0  0  0  0  0
   -2.5348    0.7051    0.8044 C   0  0  0  0  0  0  0  0  0  0  0  0
   -2.6639    0.5350    2.1506 N   0  0  0  0  0  0  0  0  0  0  0  0
   -3.6209   -0.2603    2.6599 C   0  0  0  0  0  0  0  0  0  0  0  0
   -4.4530   -0.8881    1.8093 N   0  0  0  0  0  0  0  0  0  0  0  0
   -4.3696   -0.7549    0.4659 C   0  0  0  0  0  0  0  0  0  0  0  0
   -5.0394   -1.2418   -0.5927 N   0  0  0  0  0  0  0  0  0  0  0  0
   -4.5291   -0.7743   -1.7455 C   0  0  0  0  0  0  0  0  0  0  0  0
   -3.4638    0.0668   -1.4146 C   0  0  0  0  0  0  0  0  0  0  0  0
   -3.3960    0.0537   -0.0425 C   0  0  0  0  0  0  0  0  0  0  0  0
   -0.1413    1.2760    0.6957 C   0  0  1  0  0  0  0  0  0  0  0  0
    0.0951    0.0211    1.5094 C   0  0  0  0  0  0  0  0  0  0  0  0
    1.3757   -0.1753    0.6876 C   0  0  1  0  0  0  0  0  0  0  0  0
    1.6294   -1.6050    0.3365 C   0  0  0  0  0  0  0  0  0  0  0  0
    3.1400   -1.6701   -0.6104 S   0  0  0  0  0  6  0  0  0  0  0  0
    3.4456   -3.0795   -1.0471 O   0  0  0  0  0  0  0  0  0  0  0  0
    2.9782   -0.7813   -1.7914 O   0  0  0  0  0  0  0  0  0  0  0  0
    4.4374   -1.0168    0.4093 C   0  0  0  0  0  0  0  0  0  0  0  0
    5.6346   -0.4746   -0.3480 C   0  0  0  0  0  0  0  0  0  0  0  0
    4.7015    0.4421    0.3552 C   0  0  0  0  0  0  0  0  0  0  0  0
    0.6799    0.6413   -0.4099 C   0  0  0  0  0  0  0  0  0  0  0  0
   -1.1380    2.8959   -1.2442 H   0  0  0  0  0  0  0  0  0  0  0  0
   -1.7122    3.6107    0.2975 H   0  0  0  0  0  0  0  0  0  0  0  0
   -2.8842    2.7131   -0.7087 H   0  0  0  0  0  0  0  0  0  0  0  0
   -3.7050   -0.3816    3.7490 H   0  0  0  0  0  0  0  0  0  0  0  0
   -5.8559   -1.9036   -0.4953 H   0  0  0  0  0  0  0  0  0  0  0  0
   -4.8900   -1.0156   -2.7441 H   0  0  0  0  0  0  0  0  0  0  0  0
   -2.8523    0.5933   -2.1145 H   0  0  0  0  0  0  0  0  0  0  0  0
    0.4297    2.1125    1.1511 H   0  0  0  0  0  0  0  0  0  0  0  0
   -0.6160   -0.8114    1.2377 H   0  0  0  0  0  0  0  0  0  0  0  0
    0.2560    0.1580    2.5791 H   0  0  0  0  0  0  0  0  0  0  0  0
    2.2533    0.3254    1.1263 H   0  0  0  0  0  0  0  0  0  0  0  0
    0.7882   -2.0127   -0.2511 H   0  0  0  0  0  0  0  0  0  0  0  0
    1.7922   -2.1598    1.2887 H   0  0  0  0  0  0  0  0  0  0  0  0
    4.6104   -1.5620    1.3568 H   0  0  0  0  0  0  0  0  0  0  0  0
    6.6138   -0.7454    0.1108 H   0  0  0  0  0  0  0  0  0  0  0  0
    5.6404   -0.4991   -1.4469 H   0  0  0  0  0  0  0  0  0  0  0  0
    4.0377    1.0360   -0.3138 H   0  0  0  0  0  0  0  0  0  0  0  0
    5.1248    1.0040    1.1963 H   0  0  0  0  0  0  0  0  0  0  0  0
    1.4066    1.3163   -0.9032 H   0  0  0  0  0  0  0  0  0  0  0  0
    0.1239    0.0216   -1.1234 H   0  0  0  0  0  0  0  0  0  0  0  0
  1  2  1  0
  2  3  1  0
  3  4  2  0
  4  5  1  0
  5  6  2  0
  6  7  1  0
  7  8  1  0
  8  9  1  0
  9 10  2  0
 10 11  1  0
  2 12  1  0
 12 13  1  0
 13 14  1  0
 14 15  1  0
 15 16  1  0
 16 17  2  0
 16 18  2  0
 16 19  1  0
 19 20  1  0
 20 21  1  0
 14 22  1  0
 11  3  1  0
 22 12  1  0
 11  7  2  0
 21 19  1  0
  1 23  1  0
  1 24  1  0
  1 25  1  0
  5 26  1  0
  8 27  1  0
  9 28  1  0
 10 29  1  0
 12 30  1  1
 13 31  1  0
 13 32  1  0
 14 33  1  1
 15 34  1  0
 15 35  1  0
 19 36  1  0
 20 37  1  0
 20 38  1  0
 21 39  1  0
 21 40  1  0
 22 41  1  0
 22 42  1  0
M  END
$$$$
