@<TRIPOS>MOLECULE
*****
 42 45 0 0 0
SMALL
GASTEIGER

@<TRIPOS>ATOM
      1 C          -1.8288    2.7264   -0.3924 C.3     1  UNL1        0.0023
      2 N          -1.5003    1.5588    0.3759 N.pl3   1  UNL1       -0.3146
      3 C          -2.5348    0.7051    0.8044 C.ar    1  UNL1        0.1337
      4 N          -2.6639    0.5350    2.1506 N.ar    1  UNL1       -0.2200
      5 C          -3.6209   -0.2603    2.6599 C.ar    1  UNL1        0.1204
      6 N          -4.4530   -0.8881    1.8093 N.ar    1  UNL1       -0.2178
      7 C          -4.3696   -0.7549    0.4659 C.ar    1  UNL1        0.1432
      8 N          -5.0394   -1.2418   -0.5927 N.ar    1  UNL1       -0.3457
      9 C          -4.5291   -0.7743   -1.7455 C.ar    1  UNL1        0.0042
     10 C          -3.4638    0.0668   -1.4146 C.ar    1  UNL1       -0.0318
     11 C          -3.3960    0.0537   -0.0425 C.ar    1  UNL1        0.0585
     12 C          -0.1413    1.2760    0.6957 C.3     1  UNL1        0.0251
     13 C           0.0951    0.0211    1.5094 C.3     1  UNL1       -0.0300
     14 C           1.3757   -0.1753    0.6876 C.3     1  UNL1       -0.0183
     15 C           1.6294   -1.6050    0.3365 C.3     1  UNL1        0.0690
     16 S           3.1400   -1.6701   -0.6104 S.O2    1  UNL1       -0.0280
     17 O           3.4456   -3.0795   -1.0471 O.2     1  UNL1       -0.1741
     18 O           2.9782   -0.7813   -1.7914 O.2     1  UNL1       -0.1741
     19 C           4.4374   -1.0168    0.4093 C.3     1  UNL1        0.0770
     20 C           5.6346   -0.4746   -0.3480 C.3     1  UNL1       -0.0290
     21 C           4.7015    0.4421    0.3552 C.3     1  UNL1       -0.0290
     22 C           0.6799    0.6413   -0.4099 C.3     1  UNL1       -0.0300
     23 H          -1.1380    2.8959   -1.2442 H       1  UNL1        0.0428
     24 H          -1.7122    3.6107    0.2975 H       1  UNL1        0.0428
     25 H          -2.8842    2.7131   -0.7087 H       1  UNL1        0.0428
     26 H          -3.7050   -0.3816    3.7490 H       1  UNL1        0.1048
     27 H          -5.8559   -1.9036   -0.4953 H       1  UNL1        0.1668
     28 H          -4.8900   -1.0156   -2.7441 H       1  UNL1        0.0807
     29 H          -2.8523    0.5933   -2.1145 H       1  UNL1        0.0640
     30 H           0.4297    2.1125    1.1511 H       1  UNL1        0.0500
     31 H          -0.6160   -0.8114    1.2377 H       1  UNL1        0.0286
     32 H           0.2560    0.1580    2.5791 H       1  UNL1        0.0286
     33 H           2.2533    0.3254    1.1263 H       1  UNL1        0.0318
     34 H           0.7882   -2.0127   -0.2511 H       1  UNL1        0.0503
     35 H           1.7922   -2.1598    1.2887 H       1  UNL1        0.0503
     36 H           4.6104   -1.5620    1.3568 H       1  UNL1        0.0536
     37 H           6.6138   -0.7454    0.1108 H       1  UNL1        0.0284
     38 H           5.6404   -0.4991   -1.4469 H       1  UNL1        0.0284
     39 H           4.0377    1.0360   -0.3138 H       1  UNL1        0.0284
     40 H           5.1248    1.0040    1.1963 H       1  UNL1        0.0284
     41 H           1.4066    1.3163   -0.9032 H       1  UNL1        0.0286
     42 H           0.1239    0.0216   -1.1234 H       1  UNL1        0.0286
@<TRIPOS>BOND
     1     1     2    1
     2     2     3    1
     3     3     4   ar
     4     4     5   ar
     5     5     6   ar
     6     6     7   ar
     7     7     8   ar
     8     8     9   ar
     9     9    10   ar
    10    10    11   ar
    11     2    12    1
    12    12    13    1
    13    13    14    1
    14    14    15    1
    15    15    16    1
    16    16    17    2
    17    16    18    2
    18    16    19    1
    19    19    20    1
    20    20    21    1
    21    14    22    1
    22    11     3   ar
    23    22    12    1
    24    11     7   ar
    25    21    19    1
    26     1    23    1
    27     1    24    1
    28     1    25    1
    29     5    26    1
    30     8    27    1
    31     9    28    1
    32    10    29    1
    33    12    30    1
    34    13    31    1
    35    13    32    1
    36    14    33    1
    37    15    34    1
    38    15    35    1
    39    19    36    1
    40    20    37    1
    41    20    38    1
    42    21    39    1
    43    21    40    1
    44    22    41    1
    45    22    42    1
