
     RDKit          3D

 47 49  0  0  0  0  0  0  0  0999 V2000
    3.1563   -0.6533   -1.1414 C   0  0  0  0  0  0  0  0  0  0  0  0
    4.0425   -0.4784    0.0619 C   0  0  0  0  0  0  0  0  0  0  0  0
    5.2286   -1.4537   -0.1201 C   0  0  0  0  0  0  0  0  0  0  0  0
    3.5110   -0.7647    1.2669 O   0  0  0  0  0  0  0  0  0  0  0  0
    2.4647   -0.1051    1.7774 C   0  0  0  0  0  0  0  0  0  0  0  0
    1.1906   -0.1580    1.0141 C   0  0  0  0  0  0  0  0  0  0  0  0
    0.2377   -1.1321    1.1196 C   0  0  0  0  0  0  0  0  0  0  0  0
   -0.8034   -0.7770    0.2426 C   0  0  0  0  0  0  0  0  0  0  0  0
   -2.0134   -1.5926    0.1169 C   0  0  0  0  0  0  0  0  0  0  0  0
   -2.7306   -1.9546    1.2640 C   0  0  0  0  0  0  0  0  0  0  0  0
   -3.8583   -2.7431    1.2098 C   0  0  0  0  0  0  0  0  0  0  0  0
   -4.3127   -3.2007    0.0013 C   0  0  0  0  0  0  0  0  0  0  0  0
   -5.7525   -4.2143   -0.1329 Cl  0  0  0  0  0  0  0  0  0  0  0  0
   -3.6374   -2.8676   -1.1401 C   0  0  0  0  0  0  0  0  0  0  0  0
   -2.4878   -2.0634   -1.0765 C   0  0  0  0  0  0  0  0  0  0  0  0
   -0.4586    0.3677   -0.3478 N   0  0  0  0  0  0  0  0  0  0  0  0
   -1.2651    1.0948   -1.3047 C   0  0  0  0  0  0  0  0  0  0  0  0
   -2.1584    2.0787   -0.6381 C   0  0  0  0  0  0  0  0  0  0  0  0
   -1.7177    3.3577   -0.4105 C   0  0  0  0  0  0  0  0  0  0  0  0
   -2.5433    4.2744    0.2078 C   0  0  0  0  0  0  0  0  0  0  0  0
   -3.8048    3.8580    0.5797 C   0  0  0  0  0  0  0  0  0  0  0  0
   -4.2319    2.5983    0.3527 N   0  0  0  0  0  0  0  0  0  0  0  0
   -3.4258    1.7030   -0.2511 C   0  0  0  0  0  0  0  0  0  0  0  0
    0.7341    0.7193    0.1257 N   0  0  0  0  0  0  0  0  0  0  0  0
    4.6803    0.8963    0.0335 C   0  0  0  0  0  0  0  0  0  0  0  0
    4.6704    1.6137    1.0610 O   0  0  0  0  0  0  0  0  0  0  0  0
    5.2840    1.3959   -1.1075 O   0  0  0  0  0  0  0  0  0  0  0  0
    2.3245   -1.3222   -0.8594 H   0  0  0  0  0  0  0  0  0  0  0  0
    2.8436    0.3171   -1.5818 H   0  0  0  0  0  0  0  0  0  0  0  0
    3.7395   -1.2499   -1.9073 H   0  0  0  0  0  0  0  0  0  0  0  0
    4.7912   -2.4071   -0.4225 H   0  0  0  0  0  0  0  0  0  0  0  0
    5.7283   -1.4846    0.8700 H   0  0  0  0  0  0  0  0  0  0  0  0
    5.8718   -0.9821   -0.8966 H   0  0  0  0  0  0  0  0  0  0  0  0
    2.6731    0.9575    2.0681 H   0  0  0  0  0  0  0  0  0  0  0  0
    2.2215   -0.5962    2.7741 H   0  0  0  0  0  0  0  0  0  0  0  0
    0.2524   -2.0087    1.7413 H   0  0  0  0  0  0  0  0  0  0  0  0
   -2.3351   -1.5697    2.2021 H   0  0  0  0  0  0  0  0  0  0  0  0
   -4.3860   -3.0026    2.1113 H   0  0  0  0  0  0  0  0  0  0  0  0
   -4.0042   -3.2340   -2.0897 H   0  0  0  0  0  0  0  0  0  0  0  0
   -1.9726   -1.8398   -2.0033 H   0  0  0  0  0  0  0  0  0  0  0  0
   -1.8400    0.4368   -1.9654 H   0  0  0  0  0  0  0  0  0  0  0  0
   -0.5581    1.6926   -1.9325 H   0  0  0  0  0  0  0  0  0  0  0  0
   -0.7290    3.7064   -0.6949 H   0  0  0  0  0  0  0  0  0  0  0  0
   -2.2308    5.2889    0.4031 H   0  0  0  0  0  0  0  0  0  0  0  0
   -4.4450    4.5588    1.0560 H   0  0  0  0  0  0  0  0  0  0  0  0
   -3.8215    0.7084   -0.4070 H   0  0  0  0  0  0  0  0  0  0  0  0
    5.8780    2.2314   -1.0679 H   0  0  0  0  0  0  0  0  0  0  0  0
  1  2  1  0
  2  3  1  0
  2  4  1  0
  4  5  1  0
  5  6  1  0
  6  7  1  0
  7  8  2  0
  8  9  1  0
  9 10  2  0
 10 11  1  0
 11 12  2  0
 12 13  1  0
 12 14  1  0
 14 15  2  0
  8 16  1  0
 16 17  1  0
 17 18  1  0
 18 19  2  0
 19 20  1  0
 20 21  2  0
 21 22  1  0
 22 23  2  0
 16 24  1  0
  2 25  1  0
 25 26  2  0
 25 27  1  0
 24  6  2  0
 15  9  1  0
 23 18  1  0
  1 28  1  0
  1 29  1  0
  1 30  1  0
  3 31  1  0
  3 32  1  0
  3 33  1  0
  5 34  1  0
  5 35  1  0
  7 36  1  0
 10 37  1  0
 11 38  1  0
 14 39  1  0
 15 40  1  0
 17 41  1  0
 17 42  1  0
 19 43  1  0
 20 44  1  0
 21 45  1  0
 23 46  1  0
 27 47  1  0
M  END
$$$$
