@<TRIPOS>MOLECULE
*****
 47 49 0 0 0
SMALL
GASTEIGER

@<TRIPOS>ATOM
      1 C           3.1563   -0.6533   -1.1414 C.3     1  UNL1       -0.0256
      2 C           4.0425   -0.4784    0.0619 C.3     1  UNL1        0.1602
      3 C           5.2286   -1.4537   -0.1201 C.3     1  UNL1       -0.0256
      4 O           3.5110   -0.7647    1.2669 O.3     1  UNL1       -0.3566
      5 C           2.4647   -0.1051    1.7774 C.3     1  UNL1        0.0928
      6 C           1.1906   -0.1580    1.0141 C.ar    1  UNL1        0.0892
      7 C           0.2377   -1.1321    1.1196 C.ar    1  UNL1       -0.0108
      8 C          -0.8034   -0.7770    0.2426 C.ar    1  UNL1        0.0696
      9 C          -2.0134   -1.5926    0.1169 C.ar    1  UNL1        0.0001
     10 C          -2.7306   -1.9546    1.2640 C.ar    1  UNL1       -0.0512
     11 C          -3.8583   -2.7431    1.2098 C.ar    1  UNL1       -0.0428
     12 C          -4.3127   -3.2007    0.0013 C.ar    1  UNL1        0.0410
     13 CL         -5.7525   -4.2143   -0.1329 Cl      1  UNL1       -0.0835
     14 C          -3.6374   -2.8676   -1.1401 C.ar    1  UNL1       -0.0428
     15 C          -2.4878   -2.0634   -1.0765 C.ar    1  UNL1       -0.0512
     16 N          -0.4586    0.3677   -0.3478 N.ar    1  UNL1       -0.2590
     17 C          -1.2651    1.0948   -1.3047 C.3     1  UNL1        0.0686
     18 C          -2.1584    2.0787   -0.6381 C.ar    1  UNL1       -0.0080
     19 C          -1.7177    3.3577   -0.4105 C.ar    1  UNL1       -0.0539
     20 C          -2.5433    4.2744    0.2078 C.ar    1  UNL1       -0.0433
     21 C          -3.8048    3.8580    0.5797 C.ar    1  UNL1        0.0276
     22 N          -4.2319    2.5983    0.3527 N.ar    1  UNL1       -0.2629
     23 C          -3.4258    1.7030   -0.2511 C.ar    1  UNL1        0.0325
     24 N           0.7341    0.7193    0.1257 N.ar    1  UNL1       -0.1730
     25 C           4.6803    0.8963    0.0335 C.2     1  UNL1        0.3365
     26 O           4.6704    1.6137    1.0610 O.2     1  UNL1       -0.2478
     27 O           5.2840    1.3959   -1.1075 O.3     1  UNL1       -0.4786
     28 H           2.3245   -1.3222   -0.8594 H       1  UNL1        0.0263
     29 H           2.8436    0.3171   -1.5818 H       1  UNL1        0.0263
     30 H           3.7395   -1.2499   -1.9073 H       1  UNL1        0.0263
     31 H           4.7912   -2.4071   -0.4225 H       1  UNL1        0.0263
     32 H           5.7283   -1.4846    0.8700 H       1  UNL1        0.0263
     33 H           5.8718   -0.9821   -0.8966 H       1  UNL1        0.0263
     34 H           2.6731    0.9575    2.0681 H       1  UNL1        0.0626
     35 H           2.2215   -0.5962    2.7741 H       1  UNL1        0.0626
     36 H           0.2524   -2.0087    1.7413 H       1  UNL1        0.0658
     37 H          -2.3351   -1.5697    2.2021 H       1  UNL1        0.0625
     38 H          -4.3860   -3.0026    2.1113 H       1  UNL1        0.0632
     39 H          -4.0042   -3.2340   -2.0897 H       1  UNL1        0.0632
     40 H          -1.9726   -1.8398   -2.0033 H       1  UNL1        0.0625
     41 H          -1.8400    0.4368   -1.9654 H       1  UNL1        0.0559
     42 H          -0.5581    1.6926   -1.9325 H       1  UNL1        0.0559
     43 H          -0.7290    3.7064   -0.6949 H       1  UNL1        0.0622
     44 H          -2.2308    5.2889    0.4031 H       1  UNL1        0.0633
     45 H          -4.4450    4.5588    1.0560 H       1  UNL1        0.0829
     46 H          -3.8215    0.7084   -0.4070 H       1  UNL1        0.0833
     47 H           5.8780    2.2314   -1.0679 H       1  UNL1        0.2951
@<TRIPOS>BOND
     1     1     2    1
     2     2     3    1
     3     2     4    1
     4     4     5    1
     5     5     6    1
     6     6     7   ar
     7     7     8   ar
     8     8     9    1
     9     9    10   ar
    10    10    11   ar
    11    11    12   ar
    12    12    13    1
    13    12    14   ar
    14    14    15   ar
    15     8    16   ar
    16    16    17    1
    17    17    18    1
    18    18    19   ar
    19    19    20   ar
    20    20    21   ar
    21    21    22   ar
    22    22    23   ar
    23    16    24   ar
    24     2    25    1
    25    25    26    2
    26    25    27    1
    27    24     6   ar
    28    15     9   ar
    29    23    18   ar
    30     1    28    1
    31     1    29    1
    32     1    30    1
    33     3    31    1
    34     3    32    1
    35     3    33    1
    36     5    34    1
    37     5    35    1
    38     7    36    1
    39    10    37    1
    40    11    38    1
    41    14    39    1
    42    15    40    1
    43    17    41    1
    44    17    42    1
    45    19    43    1
    46    20    44    1
    47    21    45    1
    48    23    46    1
    49    27    47    1
