@<TRIPOS>MOLECULE
*****
 39 41 0 0 0
SMALL
GASTEIGER

@<TRIPOS>ATOM
      1 C           4.5352   -0.4054   -0.3032 C.3     1  UNL1       -0.0629
      2 C           3.3426   -0.5128   -1.1756 C.3     1  UNL1       -0.0294
      3 C           2.0458   -0.6991   -0.4471 C.3     1  UNL1        0.0589
      4 C           1.7081    0.3971    0.4845 C.3     1  UNL1       -0.0204
      5 C           0.2966    0.1872    1.0410 C.3     1  UNL1        0.0024
      6 C           0.2153    1.0705    2.2130 C.3     1  UNL1        0.0064
      7 S           0.0586    2.8101    1.6778 S.3     1  UNL1       -0.0907
      8 C          -1.1951    2.7031    0.4055 C.2     1  UNL1        0.1476
      9 N          -1.9462    3.8851    0.1616 N.pl3   1  UNL1       -0.3380
     10 N          -1.3282    1.6129   -0.1782 N.2     1  UNL1       -0.2495
     11 C          -0.6691    0.3470   -0.0593 C.3     1  UNL1        0.1185
     12 C          -1.7429   -0.6529   -0.1328 C.ar    1  UNL1        0.0178
     13 C          -1.7481   -1.6197   -1.1069 C.ar    1  UNL1       -0.0507
     14 C          -2.7664   -2.5834   -1.1738 C.ar    1  UNL1       -0.0259
     15 C          -3.7877   -2.5740   -0.2524 C.ar    1  UNL1        0.1261
     16 F          -4.7794   -3.5101   -0.3150 F       1  UNL1       -0.2054
     17 C          -3.8025   -1.6230    0.7237 C.ar    1  UNL1        0.0091
     18 C          -2.7944   -0.6945    0.7638 C.ar    1  UNL1        0.1317
     19 F          -2.8344    0.2292    1.7302 F       1  UNL1       -0.2050
     20 C           0.1175    0.2246   -1.3521 C.3     1  UNL1        0.0777
     21 O           0.9987   -0.8622   -1.3461 O.3     1  UNL1       -0.3738
     22 H           5.3536    0.0885   -0.9050 H       1  UNL1        0.0231
     23 H           4.3965    0.2024    0.6048 H       1  UNL1        0.0231
     24 H           4.9442   -1.3866    0.0133 H       1  UNL1        0.0231
     25 H           3.2341    0.3617   -1.8515 H       1  UNL1        0.0287
     26 H           3.4899   -1.3919   -1.8543 H       1  UNL1        0.0287
     27 H           2.1259   -1.6475    0.1427 H       1  UNL1        0.0596
     28 H           1.8074    1.4117    0.1176 H       1  UNL1        0.0294
     29 H           2.4062    0.3113    1.3698 H       1  UNL1        0.0294
     30 H           0.2925   -0.8842    1.3676 H       1  UNL1        0.0337
     31 H          -0.5395    0.8885    2.9611 H       1  UNL1        0.0384
     32 H           1.2033    1.0405    2.7628 H       1  UNL1        0.0384
     33 H          -1.4749    4.6508   -0.3609 H       1  UNL1        0.1442
     34 H          -2.9284    4.0479    0.4624 H       1  UNL1        0.1442
     35 H          -1.0085   -1.7436   -1.8862 H       1  UNL1        0.0623
     36 H          -2.7582   -3.3357   -1.9428 H       1  UNL1        0.0646
     37 H          -4.6241   -1.6319    1.4482 H       1  UNL1        0.0675
     38 H          -0.5227    0.1117   -2.2489 H       1  UNL1        0.0587
     39 H           0.6787    1.1769   -1.5594 H       1  UNL1        0.0587
@<TRIPOS>BOND
     1     1     2    1
     2     2     3    1
     3     3     4    1
     4     4     5    1
     5     5     6    1
     6     6     7    1
     7     7     8    1
     8     8     9    1
     9     8    10    2
    10    10    11    1
    11    11    12    1
    12    12    13   ar
    13    13    14   ar
    14    14    15   ar
    15    15    16    1
    16    15    17   ar
    17    17    18   ar
    18    18    19    1
    19    11    20    1
    20    20    21    1
    21    21     3    1
    22    11     5    1
    23    18    12   ar
    24     1    22    1
    25     1    23    1
    26     1    24    1
    27     2    25    1
    28     2    26    1
    29     3    27    1
    30     4    28    1
    31     4    29    1
    32     5    30    1
    33     6    31    1
    34     6    32    1
    35     9    33    1
    36     9    34    1
    37    13    35    1
    38    14    36    1
    39    17    37    1
    40    20    38    1
    41    20    39    1
