
     RDKit          3D

 39 41  0  0  0  0  0  0  0  0999 V2000
    4.5352   -0.4054   -0.3032 C   0  0  0  0  0  0  0  0  0  0  0  0
    3.3426   -0.5128   -1.1756 C   0  0  0  0  0  0  0  0  0  0  0  0
    2.0458   -0.6991   -0.4471 C   0  0  1  0  0  0  0  0  0  0  0  0
    1.7081    0.3971    0.4845 C   0  0  0  0  0  0  0  0  0  0  0  0
    0.2966    0.1872    1.0410 C   0  0  1  0  0  0  0  0  0  0  0  0
    0.2153    1.0705    2.2130 C   0  0  0  0  0  0  0  0  0  0  0  0
    0.0586    2.8101    1.6778 S   0  0  0  0  0  0  0  0  0  0  0  0
   -1.1951    2.7031    0.4055 C   0  0  0  0  0  0  0  0  0  0  0  0
   -1.9462    3.8851    0.1616 N   0  0  0  0  0  0  0  0  0  0  0  0
   -1.3282    1.6129   -0.1782 N   0  0  0  0  0  0  0  0  0  0  0  0
   -0.6691    0.3470   -0.0593 C   0  0  2  0  0  0  0  0  0  0  0  0
   -1.7429   -0.6529   -0.1328 C   0  0  0  0  0  0  0  0  0  0  0  0
   -1.7481   -1.6197   -1.1069 C   0  0  0  0  0  0  0  0  0  0  0  0
   -2.7664   -2.5834   -1.1738 C   0  0  0  0  0  0  0  0  0  0  0  0
   -3.7877   -2.5740   -0.2524 C   0  0  0  0  0  0  0  0  0  0  0  0
   -4.7794   -3.5101   -0.3150 F   0  0  0  0  0  0  0  0  0  0  0  0
   -3.8025   -1.6230    0.7237 C   0  0  0  0  0  0  0  0  0  0  0  0
   -2.7944   -0.6945    0.7638 C   0  0  0  0  0  0  0  0  0  0  0  0
   -2.8344    0.2292    1.7302 F   0  0  0  0  0  0  0  0  0  0  0  0
    0.1175    0.2246   -1.3521 C   0  0  0  0  0  0  0  0  0  0  0  0
    0.9987   -0.8622   -1.3461 O   0  0  0  0  0  0  0  0  0  0  0  0
    5.3536    0.0885   -0.9050 H   0  0  0  0  0  0  0  0  0  0  0  0
    4.3965    0.2024    0.6048 H   0  0  0  0  0  0  0  0  0  0  0  0
    4.9442   -1.3866    0.0133 H   0  0  0  0  0  0  0  0  0  0  0  0
    3.2341    0.3617   -1.8515 H   0  0  0  0  0  0  0  0  0  0  0  0
    3.4899   -1.3919   -1.8543 H   0  0  0  0  0  0  0  0  0  0  0  0
    2.1259   -1.6475    0.1427 H   0  0  0  0  0  0  0  0  0  0  0  0
    1.8074    1.4117    0.1176 H   0  0  0  0  0  0  0  0  0  0  0  0
    2.4062    0.3113    1.3698 H   0  0  0  0  0  0  0  0  0  0  0  0
    0.2925   -0.8842    1.3676 H   0  0  0  0  0  0  0  0  0  0  0  0
   -0.5395    0.8885    2.9611 H   0  0  0  0  0  0  0  0  0  0  0  0
    1.2033    1.0405    2.7628 H   0  0  0  0  0  0  0  0  0  0  0  0
   -1.4749    4.6508   -0.3609 H   0  0  0  0  0  0  0  0  0  0  0  0
   -2.9284    4.0479    0.4624 H   0  0  0  0  0  0  0  0  0  0  0  0
   -1.0085   -1.7436   -1.8862 H   0  0  0  0  0  0  0  0  0  0  0  0
   -2.7582   -3.3357   -1.9428 H   0  0  0  0  0  0  0  0  0  0  0  0
   -4.6241   -1.6319    1.4482 H   0  0  0  0  0  0  0  0  0  0  0  0
   -0.5227    0.1117   -2.2489 H   0  0  0  0  0  0  0  0  0  0  0  0
    0.6787    1.1769   -1.5594 H   0  0  0  0  0  0  0  0  0  0  0  0
  1  2  1  0
  2  3  1  0
  3  4  1  0
  4  5  1  0
  5  6  1  0
  6  7  1  0
  7  8  1  0
  8  9  1  0
  8 10  2  0
 10 11  1  0
 11 12  1  6
 12 13  2  0
 13 14  1  0
 14 15  2  0
 15 16  1  0
 15 17  1  0
 17 18  2  0
 18 19  1  0
 11 20  1  0
 20 21  1  0
 21  3  1  0
 11  5  1  0
 18 12  1  0
  1 22  1  0
  1 23  1  0
  1 24  1  0
  2 25  1  0
  2 26  1  0
  3 27  1  1
  4 28  1  0
  4 29  1  0
  5 30  1  1
  6 31  1  0
  6 32  1  0
  9 33  1  0
  9 34  1  0
 13 35  1  0
 14 36  1  0
 17 37  1  0
 20 38  1  0
 20 39  1  0
M  END
$$$$
