@<TRIPOS>MOLECULE
*****
 33 35 0 0 0
SMALL
GASTEIGER

@<TRIPOS>ATOM
      1 O           7.7665   -0.4121    0.7912 O.2     1  UNL1       -0.2703
      2 C           6.5816   -0.3060    0.3611 C.2     1  UNL1        0.2700
      3 C           5.7271   -1.5228    0.1138 C.3     1  UNL1        0.1685
      4 O           4.4073   -1.1732    0.4809 O.2     1  UNL1       -0.4656
      5 C           3.8304    0.0533    0.2032 C.2     1  UNL1        0.2379
      6 C           2.3533    0.1870    0.1307 C.ar    1  UNL1        0.0379
      7 C           1.5619   -0.9088    0.3399 C.ar    1  UNL1       -0.0474
      8 C           0.1640   -0.8193    0.2791 C.ar    1  UNL1       -0.0338
      9 C          -0.4229    0.3856    0.0057 C.ar    1  UNL1        0.0862
     10 N          -1.8280    0.5560   -0.0725 N.2     1  UNL1       -0.1493
     11 N          -2.6711   -0.3159    0.2864 N.2     1  UNL1       -0.1493
     12 C          -4.0757   -0.1274    0.2007 C.ar    1  UNL1        0.0862
     13 C          -4.8283    0.4931    1.1745 C.ar    1  UNL1       -0.0345
     14 C          -6.2054    0.6478    1.0313 C.ar    1  UNL1       -0.0597
     15 C          -6.8085    0.1675   -0.1069 C.ar    1  UNL1       -0.0616
     16 C          -6.0930   -0.4540   -1.0947 C.ar    1  UNL1       -0.0597
     17 C          -4.7306   -0.5883   -0.9164 C.ar    1  UNL1       -0.0345
     18 C           0.3657    1.4999   -0.2075 C.ar    1  UNL1       -0.0338
     19 C           1.7478    1.3878   -0.1424 C.ar    1  UNL1       -0.0474
     20 N           4.5858    1.0670    0.0104 N.2     1  UNL1       -0.1417
     21 N           5.9627    0.9371    0.0789 N.am    1  UNL1       -0.2008
     22 H           5.8005   -1.7338   -0.9811 H       1  UNL1        0.0796
     23 H           6.1000   -2.3756    0.7113 H       1  UNL1        0.0796
     24 H           2.0482   -1.8537    0.5551 H       1  UNL1        0.0626
     25 H          -0.4442   -1.6885    0.4456 H       1  UNL1        0.0639
     26 H          -4.3246    0.8581    2.0542 H       1  UNL1        0.0639
     27 H          -6.8158    1.1338    1.7872 H       1  UNL1        0.0618
     28 H          -7.8770    0.2906   -0.2120 H       1  UNL1        0.0618
     29 H          -6.6179   -0.8134   -1.9703 H       1  UNL1        0.0618
     30 H          -4.1656   -1.0772   -1.6926 H       1  UNL1        0.0639
     31 H          -0.0442    2.4757   -0.4270 H       1  UNL1        0.0639
     32 H           2.3364    2.2688   -0.3120 H       1  UNL1        0.0626
     33 H           6.6141    1.7608   -0.0766 H       1  UNL1        0.1775
@<TRIPOS>BOND
     1     1     2    2
     2     2     3    1
     3     3     4    1
     4     4     5    1
     5     5     6    1
     6     6     7   ar
     7     7     8   ar
     8     8     9   ar
     9     9    10    1
    10    10    11    2
    11    11    12    1
    12    12    13   ar
    13    13    14   ar
    14    14    15   ar
    15    15    16   ar
    16    16    17   ar
    17     9    18   ar
    18    18    19   ar
    19     5    20    2
    20    20    21    1
    21    21     2   am
    22    19     6   ar
    23    17    12   ar
    24     3    22    1
    25     3    23    1
    26     7    24    1
    27     8    25    1
    28    13    26    1
    29    14    27    1
    30    15    28    1
    31    16    29    1
    32    17    30    1
    33    18    31    1
    34    19    32    1
    35    21    33    1
