@<TRIPOS>MOLECULE
*****
 40 41 0 0 0
SMALL
GASTEIGER

@<TRIPOS>ATOM
      1 C           5.1985    0.2955    0.3125 C.3     1  UNL1       -0.0130
      2 N           3.9426    0.0522   -0.3752 N.3     1  UNL1       -0.3062
      3 C           3.8874   -1.2986   -0.9013 C.3     1  UNL1       -0.0130
      4 C           2.8013    0.3300    0.4800 C.3     1  UNL1        0.0218
      5 C           1.5569    0.0481   -0.3230 C.3     1  UNL1        0.0616
      6 O           0.3922    0.2710    0.3700 O.3     1  UNL1       -0.3661
      7 C          -0.7576    0.0087   -0.3777 C.3     1  UNL1        0.1087
      8 C          -1.5483   -1.1048    0.2023 C.ar    1  UNL1       -0.0145
      9 C          -1.7509   -1.1056    1.5731 C.ar    1  UNL1       -0.0558
     10 C          -2.4851   -2.1315    2.1451 C.ar    1  UNL1       -0.0614
     11 C          -3.0131   -3.1446    1.3746 C.ar    1  UNL1       -0.0617
     12 C          -2.8128   -3.1499   -0.0065 C.ar    1  UNL1       -0.0614
     13 C          -2.0794   -2.1243   -0.5749 C.ar    1  UNL1       -0.0558
     14 C          -1.5776    1.2259   -0.5794 C.ar    1  UNL1       -0.0144
     15 C          -2.9493    1.2369   -0.4193 C.ar    1  UNL1       -0.0547
     16 C          -3.7162    2.3753   -0.6079 C.ar    1  UNL1       -0.0474
     17 C          -3.0246    3.5346   -0.9747 C.ar    1  UNL1        0.0179
     18 BR         -4.1239    5.0765   -1.2229 Br      1  UNL1       -0.0503
     19 C          -1.6479    3.5611   -1.1446 C.ar    1  UNL1       -0.0474
     20 C          -0.9277    2.3875   -0.9418 C.ar    1  UNL1       -0.0547
     21 H           5.9809   -0.1580   -0.3518 H       1  UNL1        0.0391
     22 H           5.3832    1.3717    0.3560 H       1  UNL1        0.0391
     23 H           5.2371   -0.2200    1.2959 H       1  UNL1        0.0391
     24 H           3.4147   -1.9793   -0.1643 H       1  UNL1        0.0391
     25 H           3.2230   -1.2804   -1.7906 H       1  UNL1        0.0391
     26 H           4.8887   -1.6781   -1.1779 H       1  UNL1        0.0391
     27 H           2.8920    1.3989    0.7668 H       1  UNL1        0.0449
     28 H           2.8091   -0.2558    1.4227 H       1  UNL1        0.0449
     29 H           1.6346    0.6376   -1.2571 H       1  UNL1        0.0573
     30 H           1.5974   -1.0477   -0.5734 H       1  UNL1        0.0573
     31 H          -0.4129   -0.3246   -1.3789 H       1  UNL1        0.0697
     32 H          -1.3644   -0.3356    2.2586 H       1  UNL1        0.0621
     33 H          -2.6637   -2.1615    3.2277 H       1  UNL1        0.0618
     34 H          -3.5935   -3.9702    1.7648 H       1  UNL1        0.0618
     35 H          -3.1912   -3.9071   -0.6923 H       1  UNL1        0.0618
     36 H          -1.9078   -2.1021   -1.6437 H       1  UNL1        0.0621
     37 H          -3.4061    0.2912   -0.1329 H       1  UNL1        0.0622
     38 H          -4.7859    2.3529   -0.4755 H       1  UNL1        0.0629
     39 H          -1.2354    4.5196   -1.4289 H       1  UNL1        0.0629
     40 H           0.1358    2.5044   -1.0967 H       1  UNL1        0.0622
@<TRIPOS>BOND
     1     1     2    1
     2     2     3    1
     3     2     4    1
     4     4     5    1
     5     5     6    1
     6     6     7    1
     7     7     8    1
     8     8     9   ar
     9     9    10   ar
    10    10    11   ar
    11    11    12   ar
    12    12    13   ar
    13     7    14    1
    14    14    15   ar
    15    15    16   ar
    16    16    17   ar
    17    17    18    1
    18    17    19   ar
    19    19    20   ar
    20    13     8   ar
    21    20    14   ar
    22     1    21    1
    23     1    22    1
    24     1    23    1
    25     3    24    1
    26     3    25    1
    27     3    26    1
    28     4    27    1
    29     4    28    1
    30     5    29    1
    31     5    30    1
    32     7    31    1
    33     9    32    1
    34    10    33    1
    35    11    34    1
    36    12    35    1
    37    13    36    1
    38    15    37    1
    39    16    38    1
    40    19    39    1
    41    20    40    1
