@<TRIPOS>MOLECULE
*****
 64 65 0 0 0
SMALL
GASTEIGER

@<TRIPOS>ATOM
      1 C           7.6982    1.2044    1.6936 C.3     1  UNL1       -0.0653
      2 C           6.5835    1.2676    0.6635 C.3     1  UNL1       -0.0559
      3 C           7.0364    0.8009   -0.6835 C.3     1  UNL1       -0.0533
      4 C           7.5470   -0.5690   -0.7960 C.3     1  UNL1       -0.0531
      5 C           6.7577   -1.7626   -0.5048 C.3     1  UNL1       -0.0531
      6 C           5.5509   -2.0933   -1.2725 C.3     1  UNL1       -0.0531
      7 C           4.3378   -1.2556   -1.1926 C.3     1  UNL1       -0.0530
      8 C           3.7157   -1.2423    0.1890 C.3     1  UNL1       -0.0514
      9 C           2.5372   -0.3168    0.2021 C.3     1  UNL1       -0.0333
     10 C           1.5078   -0.7847   -0.7935 C.3     1  UNL1        0.0432
     11 N           0.3860    0.1512   -0.6975 N.ar    1  UNL1       -0.2514
     12 C          -0.6670    0.0131    0.1269 C.ar    1  UNL1        0.0499
     13 C          -1.5062    1.0865   -0.0708 C.ar    1  UNL1        0.0965
     14 C          -2.8065    1.3749    0.6155 C.3     1  UNL1        0.0421
     15 N          -3.8448    0.7945   -0.1011 N.3     1  UNL1       -0.3031
     16 C          -5.1709    0.8837    0.2792 C.3     1  UNL1        0.0652
     17 C          -5.9720    0.1281   -0.7540 C.3     1  UNL1        0.1013
     18 O          -5.8268    0.8488   -1.9622 O.3     1  UNL1       -0.3875
     19 C          -7.4087   -0.0040   -0.4705 C.3     1  UNL1        0.1108
     20 O          -7.9266   -1.0339   -1.2799 O.3     1  UNL1       -0.3865
     21 C          -7.7446   -0.3783    0.9540 C.3     1  UNL1        0.1117
     22 O          -9.1092   -0.3822    1.1321 O.3     1  UNL1       -0.3865
     23 C          -7.0485    0.6704    1.8133 C.3     1  UNL1        0.1108
     24 O          -7.4254    0.5863    3.1410 O.3     1  UNL1       -0.3865
     25 C          -5.5508    0.4034    1.6414 C.3     1  UNL1        0.1013
     26 O          -4.9476    1.0921    2.6678 O.3     1  UNL1       -0.3875
     27 N          -0.9259    1.8471   -1.0195 N.ar    1  UNL1       -0.1332
     28 N           0.2089    1.2626   -1.3783 N.ar    1  UNL1       -0.0654
     29 H           8.6710    1.5217    1.2622 H       1  UNL1        0.0230
     30 H           7.7668    0.1835    2.1487 H       1  UNL1        0.0230
     31 H           7.4264    1.8970    2.5130 H       1  UNL1        0.0230
     32 H           5.6919    0.8211    1.0656 H       1  UNL1        0.0263
     33 H           6.3663    2.3648    0.5487 H       1  UNL1        0.0263
     34 H           6.2322    1.0214   -1.4206 H       1  UNL1        0.0265
     35 H           7.9239    1.4831   -0.9443 H       1  UNL1        0.0265
     36 H           8.5342   -0.6137   -0.2026 H       1  UNL1        0.0265
     37 H           7.9396   -0.6746   -1.8676 H       1  UNL1        0.0265
     38 H           7.4597   -2.6541   -0.6179 H       1  UNL1        0.0265
     39 H           6.5683   -1.7666    0.6168 H       1  UNL1        0.0265
     40 H           5.8548   -2.1067   -2.3751 H       1  UNL1        0.0265
     41 H           5.2286   -3.1635   -1.1115 H       1  UNL1        0.0265
     42 H           4.3761   -0.2362   -1.5761 H       1  UNL1        0.0265
     43 H           3.5902   -1.7728   -1.9040 H       1  UNL1        0.0265
     44 H           4.4321   -1.0429    0.9773 H       1  UNL1        0.0266
     45 H           3.2545   -2.2774    0.3917 H       1  UNL1        0.0266
     46 H           2.0750   -0.2699    1.2226 H       1  UNL1        0.0283
     47 H           2.8522    0.7464   -0.0166 H       1  UNL1        0.0283
     48 H           1.2129   -1.8132   -0.5508 H       1  UNL1        0.0509
     49 H           1.9460   -0.7182   -1.8341 H       1  UNL1        0.0509
     50 H          -0.8574   -0.7815    0.8317 H       1  UNL1        0.0845
     51 H          -2.9152    2.4809    0.6047 H       1  UNL1        0.0490
     52 H          -2.6738    1.0809    1.6631 H       1  UNL1        0.0490
     53 H          -3.6000    0.5668   -1.0587 H       1  UNL1        0.1227
     54 H          -5.5177    1.9568    0.2066 H       1  UNL1        0.0513
     55 H          -5.4805   -0.8551   -0.9351 H       1  UNL1        0.0636
     56 H          -6.6210    1.4145   -2.1401 H       1  UNL1        0.2100
     57 H          -7.9828    0.9040   -0.7411 H       1  UNL1        0.0646
     58 H          -7.7818   -0.8537   -2.2404 H       1  UNL1        0.2100
     59 H          -7.2725   -1.3515    1.2189 H       1  UNL1        0.0647
     60 H          -9.3742   -1.3266    1.3650 H       1  UNL1        0.2100
     61 H          -7.2504    1.6564    1.3545 H       1  UNL1        0.0646
     62 H          -7.7525   -0.3126    3.3962 H       1  UNL1        0.2100
     63 H          -5.4305   -0.7021    1.7483 H       1  UNL1        0.0636
     64 H          -4.8779    0.6007    3.5010 H       1  UNL1        0.2100
@<TRIPOS>BOND
     1     1     2    1
     2     2     3    1
     3     3     4    1
     4     4     5    1
     5     5     6    1
     6     6     7    1
     7     7     8    1
     8     8     9    1
     9     9    10    1
    10    10    11    1
    11    11    12   ar
    12    12    13   ar
    13    13    14    1
    14    14    15    1
    15    15    16    1
    16    16    17    1
    17    17    18    1
    18    17    19    1
    19    19    20    1
    20    19    21    1
    21    21    22    1
    22    21    23    1
    23    23    24    1
    24    23    25    1
    25    25    26    1
    26    13    27   ar
    27    27    28   ar
    28    28    11   ar
    29    25    16    1
    30     1    29    1
    31     1    30    1
    32     1    31    1
    33     2    32    1
    34     2    33    1
    35     3    34    1
    36     3    35    1
    37     4    36    1
    38     4    37    1
    39     5    38    1
    40     5    39    1
    41     6    40    1
    42     6    41    1
    43     7    42    1
    44     7    43    1
    45     8    44    1
    46     8    45    1
    47     9    46    1
    48     9    47    1
    49    10    48    1
    50    10    49    1
    51    12    50    1
    52    14    51    1
    53    14    52    1
    54    15    53    1
    55    16    54    1
    56    17    55    1
    57    18    56    1
    58    19    57    1
    59    20    58    1
    60    21    59    1
    61    22    60    1
    62    23    61    1
    63    24    62    1
    64    25    63    1
    65    26    64    1
