@<TRIPOS>MOLECULE
*****
 53 55 0 0 0
SMALL
GASTEIGER

@<TRIPOS>ATOM
      1 N           1.8654   -0.3004   -0.1156 N.pl3   1  UNL1       -0.2836
      2 C           0.4668   -0.5121   -0.1948 C.ar    1  UNL1        0.0338
      3 C          -0.1589   -0.8022   -1.3929 C.ar    1  UNL1       -0.0370
      4 C          -1.5117   -1.0163   -1.5176 C.ar    1  UNL1       -0.0182
      5 C          -2.3311   -0.9482   -0.4118 C.ar    1  UNL1        0.1207
      6 O          -3.6816   -1.1714   -0.5930 O.3     1  UNL1       -0.4894
      7 C          -4.6358   -1.1375    0.4228 C.3     1  UNL1        0.1166
      8 C          -5.9960   -1.4374   -0.2072 C.3     1  UNL1        0.1017
      9 O          -5.9621   -2.6965   -0.8014 O.3     1  UNL1       -0.3872
     10 C          -6.3249   -0.3738   -1.2194 C.3     1  UNL1        0.0276
     11 N          -6.3466    0.9052   -0.5434 N.3     1  UNL1       -0.3058
     12 C          -7.4550    0.9737    0.3620 C.3     1  UNL1       -0.0130
     13 C          -6.3563    2.0062   -1.4909 C.3     1  UNL1       -0.0130
     14 C          -1.7641   -0.6638    0.8031 C.ar    1  UNL1       -0.0182
     15 C          -0.4033   -0.4577    0.8727 C.ar    1  UNL1       -0.0370
     16 C           2.6284    0.0105    1.0378 C.ar    1  UNL1        0.2212
     17 N           2.1898    0.1735    2.2902 N.ar    1  UNL1       -0.2225
     18 C           2.9439    0.4677    3.3566 C.ar    1  UNL1        0.0344
     19 C           4.2880    0.6086    3.1087 C.ar    1  UNL1       -0.0033
     20 C           4.8289    0.4590    1.8521 C.ar    1  UNL1        0.1280
     21 N           3.9482    0.1694    0.9092 N.ar    1  UNL1       -0.1992
     22 N           6.2232    0.6158    1.6491 N.pl3   1  UNL1       -0.2981
     23 C           6.9737    0.4968    0.4620 C.ar    1  UNL1        0.0523
     24 C           8.3306    0.6882    0.4523 C.ar    1  UNL1        0.0622
     25 CL          9.1551    1.0928    1.9637 Cl      1  UNL1       -0.0816
     26 C           9.1066    0.5878   -0.6593 C.ar    1  UNL1       -0.0402
     27 C           8.5464    0.2805   -1.8575 C.ar    1  UNL1       -0.0419
     28 C           7.2016    0.0732   -1.9410 C.ar    1  UNL1        0.0428
     29 CL          6.4441   -0.3243   -3.4696 Cl      1  UNL1       -0.0835
     30 C           6.4665    0.1890   -0.7795 C.ar    1  UNL1       -0.0207
     31 H           2.3734   -0.3898   -1.0326 H       1  UNL1        0.1550
     32 H           0.4491   -0.8674   -2.3020 H       1  UNL1        0.0637
     33 H          -1.9179   -1.2371   -2.4870 H       1  UNL1        0.0655
     34 H          -4.4230   -2.0013    1.1153 H       1  UNL1        0.0723
     35 H          -4.6529   -0.2420    1.0385 H       1  UNL1        0.0723
     36 H          -6.7901   -1.4798    0.5549 H       1  UNL1        0.0640
     37 H          -5.0669   -3.0728   -0.7298 H       1  UNL1        0.2100
     38 H          -5.5566   -0.3358   -2.0202 H       1  UNL1        0.0453
     39 H          -7.3118   -0.6361   -1.6482 H       1  UNL1        0.0453
     40 H          -8.0805    0.0684    0.2304 H       1  UNL1        0.0391
     41 H          -8.0986    1.8370    0.0442 H       1  UNL1        0.0391
     42 H          -7.1517    1.1145    1.4216 H       1  UNL1        0.0391
     43 H          -5.4746    1.8617   -2.1549 H       1  UNL1        0.0391
     44 H          -6.2272    2.9483   -0.9194 H       1  UNL1        0.0391
     45 H          -7.3017    2.0709   -2.0586 H       1  UNL1        0.0391
     46 H          -2.4203   -0.6172    1.6418 H       1  UNL1        0.0655
     47 H          -0.0515   -0.2432    1.8534 H       1  UNL1        0.0637
     48 H           2.5160    0.5845    4.3417 H       1  UNL1        0.0832
     49 H           4.9365    0.8497    3.9585 H       1  UNL1        0.0667
     50 H           6.7903    0.8584    2.5163 H       1  UNL1        0.1536
     51 H          10.1819    0.7503   -0.6111 H       1  UNL1        0.0633
     52 H           9.1918    0.2071   -2.7271 H       1  UNL1        0.0633
     53 H           5.4064    0.0157   -0.8980 H       1  UNL1        0.0651
@<TRIPOS>BOND
     1     1     2    1
     2     2     3   ar
     3     3     4   ar
     4     4     5   ar
     5     5     6    1
     6     6     7    1
     7     7     8    1
     8     8     9    1
     9     8    10    1
    10    10    11    1
    11    11    12    1
    12    11    13    1
    13     5    14   ar
    14    14    15   ar
    15     1    16    1
    16    16    17   ar
    17    17    18   ar
    18    18    19   ar
    19    19    20   ar
    20    20    21   ar
    21    20    22    1
    22    22    23    1
    23    23    24   ar
    24    24    25    1
    25    24    26   ar
    26    26    27   ar
    27    27    28   ar
    28    28    29    1
    29    28    30   ar
    30    15     2   ar
    31    21    16   ar
    32    30    23   ar
    33     1    31    1
    34     3    32    1
    35     4    33    1
    36     7    34    1
    37     7    35    1
    38     8    36    1
    39     9    37    1
    40    10    38    1
    41    10    39    1
    42    12    40    1
    43    12    41    1
    44    12    42    1
    45    13    43    1
    46    13    44    1
    47    13    45    1
    48    14    46    1
    49    15    47    1
    50    18    48    1
    51    19    49    1
    52    22    50    1
    53    26    51    1
    54    27    52    1
    55    30    53    1
