
     RDKit          3D

 37 39  0  0  0  0  0  0  0  0999 V2000
    2.9863   -0.4900   -2.3151 C   0  0  0  0  0  0  0  0  0  0  0  0
    2.9694    0.0914   -0.9494 C   0  0  0  0  0  0  0  0  0  0  0  0
    1.7064    0.6191   -0.4011 C   0  0  0  0  0  0  0  0  0  0  0  0
    1.4223    1.6984    0.4098 C   0  0  0  0  0  0  0  0  0  0  0  0
    0.0748    1.7623    0.6371 C   0  0  0  0  0  0  0  0  0  0  0  0
   -0.4309    0.6729   -0.0748 C   0  0  0  0  0  0  0  0  0  0  0  0
    0.5472    0.0246   -0.6708 O   0  0  0  0  0  0  0  0  0  0  0  0
   -1.8630    0.3531   -0.1102 C   0  0  0  0  0  0  0  0  0  0  0  0
   -2.8090    1.0999    0.5555 C   0  0  0  0  0  0  0  0  0  0  0  0
   -4.1578    0.7458    0.4818 C   0  0  0  0  0  0  0  0  0  0  0  0
   -4.5732   -0.3548   -0.2555 C   0  0  0  0  0  0  0  0  0  0  0  0
   -3.6137   -1.1025   -0.9234 C   0  0  0  0  0  0  0  0  0  0  0  0
   -2.2759   -0.7548   -0.8530 C   0  0  0  0  0  0  0  0  0  0  0  0
   -6.2530   -0.7811   -0.3359 S   0  0  0  0  0  0  0  0  0  0  0  0
   -6.7127   -1.8825    0.9012 N   0  0  0  0  0  0  0  0  0  0  0  0
   -7.1441    0.4381   -0.2269 O   0  0  0  0  0  0  0  0  0  0  0  0
   -6.5900   -1.4192   -1.6506 O   0  0  0  0  0  0  0  0  0  0  0  0
    4.0654    0.1497   -0.2124 C   0  0  0  0  0  0  0  0  0  0  0  0
    4.1604    0.8283    1.4455 S   0  0  0  0  0  0  0  0  0  0  0  0
    5.8509    0.3045    1.7612 C   0  0  0  0  0  0  0  0  0  0  0  0
    6.4544    0.3885    2.8735 N   0  0  0  0  0  0  0  0  0  0  0  0
    6.3333   -0.2062    0.5126 N   0  0  0  0  0  0  0  0  0  0  0  0
    5.4136   -0.2976   -0.5424 C   0  0  0  0  0  0  0  0  0  0  0  0
    5.7372   -0.7332   -1.6811 O   0  0  0  0  0  0  0  0  0  0  0  0
    3.3038    0.2557   -3.0787 H   0  0  0  0  0  0  0  0  0  0  0  0
    1.9426   -0.8542   -2.5155 H   0  0  0  0  0  0  0  0  0  0  0  0
    3.6302   -1.3771   -2.4072 H   0  0  0  0  0  0  0  0  0  0  0  0
    2.2199    2.3347    0.7580 H   0  0  0  0  0  0  0  0  0  0  0  0
   -0.4209    2.5119    1.2407 H   0  0  0  0  0  0  0  0  0  0  0  0
   -2.4894    1.9517    1.1272 H   0  0  0  0  0  0  0  0  0  0  0  0
   -4.9114    1.3218    0.9964 H   0  0  0  0  0  0  0  0  0  0  0  0
   -3.9302   -1.9615   -1.4975 H   0  0  0  0  0  0  0  0  0  0  0  0
   -1.5068   -1.3223   -1.3656 H   0  0  0  0  0  0  0  0  0  0  0  0
   -7.7244   -1.8999    1.0631 H   0  0  0  0  0  0  0  0  0  0  0  0
   -6.2167   -1.6997    1.7843 H   0  0  0  0  0  0  0  0  0  0  0  0
    7.4467    0.0696    3.0187 H   0  0  0  0  0  0  0  0  0  0  0  0
    7.3582   -0.4851    0.4603 H   0  0  0  0  0  0  0  0  0  0  0  0
  1  2  1  0
  2  3  1  0
  3  4  2  0
  4  5  1  0
  5  6  2  0
  6  7  1  0
  6  8  1  0
  8  9  2  0
  9 10  1  0
 10 11  2  0
 11 12  1  0
 12 13  2  0
 11 14  1  0
 14 15  1  0
 14 16  2  0
 14 17  2  0
  2 18  2  0
 18 19  1  0
 19 20  1  0
 20 21  2  3
 20 22  1  0
 22 23  1  0
 23 24  2  0
  7  3  1  0
 13  8  1  0
 23 18  1  0
  1 25  1  0
  1 26  1  0
  1 27  1  0
  4 28  1  0
  5 29  1  0
  9 30  1  0
 10 31  1  0
 12 32  1  0
 13 33  1  0
 15 34  1  0
 15 35  1  0
 21 36  1  0
 22 37  1  0
M  END
$$$$
