@<TRIPOS>MOLECULE
*****
 81 82 0 0 0
SMALL
GASTEIGER

@<TRIPOS>ATOM
      1 C           9.2518   -1.5033    0.3802 C.3     1  UNL1       -0.0627
      2 C           8.6735   -0.2372    0.9485 C.3     1  UNL1       -0.0467
      3 C           8.3171   -0.3925    2.3936 C.3     1  UNL1       -0.0627
      4 C           7.4406    0.1005    0.0920 C.3     1  UNL1       -0.0507
      5 C           6.4341   -0.9769    0.1365 C.3     1  UNL1       -0.0526
      6 C           5.2483   -0.7748   -0.7001 C.3     1  UNL1       -0.0505
      7 C           4.3632    0.4073   -0.4932 C.3     1  UNL1       -0.0439
      8 C           4.9736    1.7395   -0.7191 C.3     1  UNL1       -0.0624
      9 C           3.1526    0.2050   -1.3602 C.3     1  UNL1       -0.0505
     10 C           2.0970    1.2372   -1.3027 C.3     1  UNL1       -0.0526
     11 C           1.5275    1.4342    0.0806 C.3     1  UNL1       -0.0505
     12 C           0.9101    0.2007    0.6741 C.3     1  UNL1       -0.0439
     13 C           0.4015    0.5919    2.0461 C.3     1  UNL1       -0.0624
     14 C          -0.2317   -0.2403   -0.2286 C.3     1  UNL1       -0.0503
     15 C          -0.9201   -1.4500    0.2707 C.3     1  UNL1       -0.0492
     16 C          -2.0420   -1.9331   -0.5727 C.3     1  UNL1       -0.0132
     17 C          -3.2483   -1.1204   -0.7480 C.3     1  UNL1        0.1082
     18 C          -4.1687   -1.9397   -1.6855 C.3     1  UNL1       -0.0249
     19 C          -3.1457    0.2306   -1.3646 C.3     1  UNL1       -0.0091
     20 C          -4.5224    0.5805   -1.9645 C.3     1  UNL1       -0.0202
     21 C          -5.5350    0.5946   -0.8664 C.ar    1  UNL1        0.0011
     22 C          -5.1777   -0.1760    0.2439 C.ar    1  UNL1        0.1281
     23 O          -4.0194   -0.9561    0.4783 O.3     1  UNL1       -0.4854
     24 C          -6.0782   -0.1963    1.2888 C.ar    1  UNL1       -0.0021
     25 C          -5.8423   -0.9705    2.5418 C.3     1  UNL1       -0.0359
     26 C          -7.2774    0.4857    1.2918 C.ar    1  UNL1       -0.0024
     27 C          -8.2472    0.4664    2.4119 C.3     1  UNL1       -0.0359
     28 C          -7.6111    1.2406    0.1857 C.ar    1  UNL1        0.1234
     29 O          -8.7884    1.9708    0.0699 O.3     1  UNL1       -0.5062
     30 C          -6.7233    1.2723   -0.8673 C.ar    1  UNL1       -0.0021
     31 C          -6.9996    2.0574   -2.0964 C.3     1  UNL1       -0.0359
     32 H          10.3664   -1.4582    0.4874 H       1  UNL1        0.0232
     33 H           8.9881   -1.5984   -0.7035 H       1  UNL1        0.0232
     34 H           8.8445   -2.4116    0.8795 H       1  UNL1        0.0232
     35 H           9.3642    0.6189    0.8428 H       1  UNL1        0.0295
     36 H           9.2289   -0.2287    3.0035 H       1  UNL1        0.0232
     37 H           7.9894   -1.4525    2.5755 H       1  UNL1        0.0232
     38 H           7.5369    0.3277    2.6793 H       1  UNL1        0.0232
     39 H           7.7663    0.2971   -0.9314 H       1  UNL1        0.0268
     40 H           7.0064    1.0468    0.5145 H       1  UNL1        0.0268
     41 H           6.1850   -1.2952    1.1896 H       1  UNL1        0.0265
     42 H           6.9541   -1.9170   -0.2605 H       1  UNL1        0.0265
     43 H           4.5513   -1.6734   -0.6628 H       1  UNL1        0.0268
     44 H           5.5261   -0.7520   -1.8089 H       1  UNL1        0.0268
     45 H           3.9817    0.4240    0.5948 H       1  UNL1        0.0298
     46 H           5.9085    1.7287   -1.3455 H       1  UNL1        0.0232
     47 H           5.1456    2.3651    0.1647 H       1  UNL1        0.0232
     48 H           4.2783    2.3484   -1.3671 H       1  UNL1        0.0232
     49 H           2.7124   -0.8014   -1.1453 H       1  UNL1        0.0268
     50 H           3.5498    0.2098   -2.4241 H       1  UNL1        0.0268
     51 H           1.2360    1.0023   -1.9907 H       1  UNL1        0.0265
     52 H           2.4556    2.2086   -1.6621 H       1  UNL1        0.0265
     53 H           0.6920    2.1841   -0.0252 H       1  UNL1        0.0268
     54 H           2.3098    1.8268    0.7600 H       1  UNL1        0.0268
     55 H           1.6527   -0.6029    0.7012 H       1  UNL1        0.0298
     56 H          -0.1321   -0.2026    2.5700 H       1  UNL1        0.0232
     57 H           1.3288    0.7872    2.6599 H       1  UNL1        0.0232
     58 H          -0.1067    1.5565    1.9693 H       1  UNL1        0.0232
     59 H          -0.8047    0.6172   -0.4909 H       1  UNL1        0.0268
     60 H           0.3007   -0.5631   -1.1847 H       1  UNL1        0.0268
     61 H          -0.1996   -2.3220    0.3859 H       1  UNL1        0.0267
     62 H          -1.3364   -1.3242    1.3055 H       1  UNL1        0.0267
     63 H          -2.3960   -2.9441   -0.1803 H       1  UNL1        0.0304
     64 H          -1.6847   -2.2014   -1.6135 H       1  UNL1        0.0304
     65 H          -3.8628   -1.8665   -2.7294 H       1  UNL1        0.0268
     66 H          -5.2195   -1.6912   -1.5790 H       1  UNL1        0.0268
     67 H          -4.0408   -3.0190   -1.3726 H       1  UNL1        0.0268
     68 H          -2.9518    1.0110   -0.5791 H       1  UNL1        0.0307
     69 H          -2.4387    0.2169   -2.1948 H       1  UNL1        0.0307
     70 H          -4.8171   -0.0996   -2.7691 H       1  UNL1        0.0316
     71 H          -4.4410    1.6031   -2.3728 H       1  UNL1        0.0316
     72 H          -4.7987   -1.3418    2.5962 H       1  UNL1        0.0279
     73 H          -6.5675   -1.8016    2.6029 H       1  UNL1        0.0279
     74 H          -5.9821   -0.3254    3.4320 H       1  UNL1        0.0279
     75 H          -9.2312    0.1520    1.9644 H       1  UNL1        0.0279
     76 H          -8.3728    1.4320    2.9193 H       1  UNL1        0.0279
     77 H          -8.0008   -0.3720    3.1154 H       1  UNL1        0.0279
     78 H          -9.5094    1.6812   -0.5920 H       1  UNL1        0.2922
     79 H          -8.0823    2.2853   -2.1413 H       1  UNL1        0.0279
     80 H          -6.3694    2.9679   -2.1611 H       1  UNL1        0.0279
     81 H          -6.7259    1.4194   -2.9639 H       1  UNL1        0.0279
@<TRIPOS>BOND
     1     1     2    1
     2     2     3    1
     3     2     4    1
     4     4     5    1
     5     5     6    1
     6     6     7    1
     7     7     8    1
     8     7     9    1
     9     9    10    1
    10    10    11    1
    11    11    12    1
    12    12    13    1
    13    12    14    1
    14    14    15    1
    15    15    16    1
    16    17    16    1
    17    17    18    1
    18    17    19    1
    19    19    20    1
    20    20    21    1
    21    21    22   ar
    22    22    23    1
    23    22    24   ar
    24    24    25    1
    25    24    26   ar
    26    26    27    1
    27    26    28   ar
    28    28    29    1
    29    28    30   ar
    30    30    31    1
    31    23    17    1
    32    30    21   ar
    33     1    32    1
    34     1    33    1
    35     1    34    1
    36     2    35    1
    37     3    36    1
    38     3    37    1
    39     3    38    1
    40     4    39    1
    41     4    40    1
    42     5    41    1
    43     5    42    1
    44     6    43    1
    45     6    44    1
    46     7    45    1
    47     8    46    1
    48     8    47    1
    49     8    48    1
    50     9    49    1
    51     9    50    1
    52    10    51    1
    53    10    52    1
    54    11    53    1
    55    11    54    1
    56    12    55    1
    57    13    56    1
    58    13    57    1
    59    13    58    1
    60    14    59    1
    61    14    60    1
    62    15    61    1
    63    15    62    1
    64    16    63    1
    65    16    64    1
    66    18    65    1
    67    18    66    1
    68    18    67    1
    69    19    68    1
    70    19    69    1
    71    20    70    1
    72    20    71    1
    73    25    72    1
    74    25    73    1
    75    25    74    1
    76    27    75    1
    77    27    76    1
    78    27    77    1
    79    29    78    1
    80    31    79    1
    81    31    80    1
    82    31    81    1
