@<TRIPOS>MOLECULE
*****
 64 69 0 0 0
SMALL
GASTEIGER

@<TRIPOS>ATOM
      1 C          -0.4126    2.3011    3.8763 C.3     1  UNL1       -0.0612
      2 C          -0.2719    2.6497    2.4464 C.3     1  UNL1       -0.0288
      3 C           0.1563    1.4295    1.6318 C.ar    1  UNL1       -0.0259
      4 C           1.4650    1.3071    1.4676 C.ar    1  UNL1       -0.0457
      5 C           2.1217    0.3609    0.5912 C.ar    1  UNL1        0.0268
      6 C           1.2239   -0.4480   -0.0812 C.ar    1  UNL1       -0.0234
      7 C          -0.0846   -0.3268    0.1112 C.ar    1  UNL1       -0.0357
      8 C          -0.7111    0.6148    0.9838 C.ar    1  UNL1        0.0333
      9 N          -2.1225    0.5130    1.0821 N.pl3   1  UNL1       -0.3272
     10 C          -2.9548    0.5415    2.2318 C.3     1  UNL1        0.0250
     11 C          -4.2331    1.2823    1.8643 C.3     1  UNL1        0.0151
     12 N          -4.8566    0.6180    0.8141 N.3     1  UNL1       -0.2921
     13 C          -5.9927   -0.1646    0.9697 C.3     1  UNL1        0.0572
     14 C          -7.3036    0.5268    1.2372 C.3     1  UNL1        0.0654
     15 O          -7.8927   -0.4735    0.4027 O.3     1  UNL1       -0.3765
     16 C          -6.6920   -0.5183   -0.3248 C.3     1  UNL1        0.0654
     17 C          -4.1182    0.5751   -0.4185 C.3     1  UNL1        0.0151
     18 C          -2.7748    0.0566   -0.1905 C.3     1  UNL1        0.0250
     19 C           1.7816   -1.5381   -0.9914 C.3     1  UNL1        0.0315
     20 C           0.7940   -1.6951   -2.1036 C.3     1  UNL1       -0.0503
     21 C           1.7464   -2.8385   -0.2159 C.3     1  UNL1       -0.0503
     22 C           3.1048   -1.1842   -1.5568 C.ar    1  UNL1        0.0380
     23 N           3.7258   -1.4971   -2.6981 N.ar    1  UNL1       -0.3566
     24 C           4.9724   -1.0982   -2.7929 C.ar    1  UNL1        0.0486
     25 C           6.0777   -1.1683   -3.6078 C.ar    1  UNL1       -0.0204
     26 C           7.3239   -0.7349   -3.4293 C.ar    1  UNL1        0.0537
     27 C           8.2161   -0.3493   -4.2392 C.1     1  UNL1        0.0992
     28 N           9.2000    0.0791   -5.1251 N.1     1  UNL1       -0.1909
     29 C           7.5274   -0.0842   -2.0777 C.ar    1  UNL1       -0.0436
     30 C           6.4038    0.0117   -1.2491 C.ar    1  UNL1       -0.0507
     31 C           5.1990   -0.4391   -1.5585 C.ar    1  UNL1        0.0109
     32 C           4.0338   -0.4667   -0.7862 C.ar    1  UNL1        0.0513
     33 C           3.4951    0.3421    0.3018 C.2     1  UNL1        0.1957
     34 O           4.2925    1.0578    1.0152 O.2     1  UNL1       -0.2866
     35 H           0.3628    2.8306    4.5197 H       1  UNL1        0.0233
     36 H          -1.4048    2.5631    4.2925 H       1  UNL1        0.0233
     37 H          -0.1427    1.2120    4.0265 H       1  UNL1        0.0233
     38 H           0.4370    3.4575    2.3374 H       1  UNL1        0.0311
     39 H          -1.2187    3.0455    1.9493 H       1  UNL1        0.0311
     40 H           2.1781    1.9519    2.0102 H       1  UNL1        0.0628
     41 H          -0.7504   -1.0027   -0.3997 H       1  UNL1        0.0639
     42 H          -2.5821    1.0956    3.1243 H       1  UNL1        0.0476
     43 H          -3.2588   -0.5578    2.4869 H       1  UNL1        0.0476
     44 H          -4.8758    1.3918    2.7971 H       1  UNL1        0.0442
     45 H          -3.9114    2.3052    1.5753 H       1  UNL1        0.0442
     46 H          -5.9022   -1.1263    1.5641 H       1  UNL1        0.0508
     47 H          -7.4248    1.5126    0.7799 H       1  UNL1        0.0576
     48 H          -7.5904    0.4785    2.3157 H       1  UNL1        0.0576
     49 H          -6.4997   -1.5867   -0.6281 H       1  UNL1        0.0576
     50 H          -6.5768    0.0980   -1.1971 H       1  UNL1        0.0576
     51 H          -4.6389   -0.1381   -1.1324 H       1  UNL1        0.0442
     52 H          -4.1426    1.5761   -0.9427 H       1  UNL1        0.0442
     53 H          -2.1356    0.1157   -1.0673 H       1  UNL1        0.0476
     54 H          -2.8797   -1.0664    0.0622 H       1  UNL1        0.0476
     55 H           0.4359   -0.6359   -2.3439 H       1  UNL1        0.0242
     56 H           1.1377   -2.2648   -2.9703 H       1  UNL1        0.0242
     57 H          -0.1553   -2.2223   -1.7487 H       1  UNL1        0.0242
     58 H           1.9644   -2.6922    0.8949 H       1  UNL1        0.0242
     59 H           2.3493   -3.6208   -0.6890 H       1  UNL1        0.0242
     60 H           0.6514   -3.1785   -0.2083 H       1  UNL1        0.0242
     61 H           3.2315   -1.9226   -3.5862 H       1  UNL1        0.1656
     62 H           5.9366   -1.6395   -4.6370 H       1  UNL1        0.0651
     63 H           8.4496    0.2347   -1.8512 H       1  UNL1        0.0631
     64 H           6.5168    0.5435   -0.3022 H       1  UNL1        0.0625
@<TRIPOS>BOND
     1     1     2    1
     2     2     3    1
     3     3     4   ar
     4     4     5   ar
     5     5     6   ar
     6     6     7   ar
     7     7     8   ar
     8     8     9    1
     9     9    10    1
    10    10    11    1
    11    11    12    1
    12    12    13    1
    13    13    14    1
    14    14    15    1
    15    15    16    1
    16    12    17    1
    17    17    18    1
    18     6    19    1
    19    19    20    1
    20    19    21    1
    21    19    22    1
    22    22    23   ar
    23    23    24   ar
    24    24    25   ar
    25    25    26   ar
    26    26    27    1
    27    27    28    3
    28    26    29   ar
    29    29    30   ar
    30    30    31   ar
    31    31    32   ar
    32    32    33    1
    33    33    34    2
    34     8     3   ar
    35    18     9    1
    36    32    22   ar
    37    33     5    1
    38    16    13    1
    39    31    24   ar
    40     1    35    1
    41     1    36    1
    42     1    37    1
    43     2    38    1
    44     2    39    1
    45     4    40    1
    46     7    41    1
    47    10    42    1
    48    10    43    1
    49    11    44    1
    50    11    45    1
    51    13    46    1
    52    14    47    1
    53    14    48    1
    54    16    49    1
    55    16    50    1
    56    17    51    1
    57    17    52    1
    58    18    53    1
    59    18    54    1
    60    20    55    1
    61    20    56    1
    62    20    57    1
    63    21    58    1
    64    21    59    1
    65    21    60    1
    66    23    61    1
    67    25    62    1
    68    29    63    1
    69    30    64    1
