
     RDKit          3D

 64 69  0  0  0  0  0  0  0  0999 V2000
   -0.4126    2.3011    3.8763 C   0  0  0  0  0  0  0  0  0  0  0  0
   -0.2719    2.6497    2.4464 C   0  0  0  0  0  0  0  0  0  0  0  0
    0.1563    1.4295    1.6318 C   0  0  0  0  0  0  0  0  0  0  0  0
    1.4650    1.3071    1.4676 C   0  0  0  0  0  0  0  0  0  0  0  0
    2.1217    0.3609    0.5912 C   0  0  0  0  0  0  0  0  0  0  0  0
    1.2239   -0.4480   -0.0812 C   0  0  0  0  0  0  0  0  0  0  0  0
   -0.0846   -0.3268    0.1112 C   0  0  0  0  0  0  0  0  0  0  0  0
   -0.7111    0.6148    0.9838 C   0  0  0  0  0  0  0  0  0  0  0  0
   -2.1225    0.5130    1.0821 N   0  0  0  0  0  0  0  0  0  0  0  0
   -2.9548    0.5415    2.2318 C   0  0  0  0  0  0  0  0  0  0  0  0
   -4.2331    1.2823    1.8643 C   0  0  0  0  0  0  0  0  0  0  0  0
   -4.8566    0.6180    0.8141 N   0  0  0  0  0  0  0  0  0  0  0  0
   -5.9927   -0.1646    0.9697 C   0  0  0  0  0  0  0  0  0  0  0  0
   -7.3036    0.5268    1.2372 C   0  0  0  0  0  0  0  0  0  0  0  0
   -7.8927   -0.4735    0.4027 O   0  0  0  0  0  0  0  0  0  0  0  0
   -6.6920   -0.5183   -0.3248 C   0  0  0  0  0  0  0  0  0  0  0  0
   -4.1182    0.5751   -0.4185 C   0  0  0  0  0  0  0  0  0  0  0  0
   -2.7748    0.0566   -0.1905 C   0  0  0  0  0  0  0  0  0  0  0  0
    1.7816   -1.5381   -0.9914 C   0  0  0  0  0  0  0  0  0  0  0  0
    0.7940   -1.6951   -2.1036 C   0  0  0  0  0  0  0  0  0  0  0  0
    1.7464   -2.8385   -0.2159 C   0  0  0  0  0  0  0  0  0  0  0  0
    3.1048   -1.1842   -1.5568 C   0  0  0  0  0  0  0  0  0  0  0  0
    3.7258   -1.4971   -2.6981 N   0  0  0  0  0  0  0  0  0  0  0  0
    4.9724   -1.0982   -2.7929 C   0  0  0  0  0  0  0  0  0  0  0  0
    6.0777   -1.1683   -3.6078 C   0  0  0  0  0  0  0  0  0  0  0  0
    7.3239   -0.7349   -3.4293 C   0  0  0  0  0  0  0  0  0  0  0  0
    8.2161   -0.3493   -4.2392 C   0  0  0  0  0  0  0  0  0  0  0  0
    9.2000    0.0791   -5.1251 N   0  0  0  0  0  0  0  0  0  0  0  0
    7.5274   -0.0842   -2.0777 C   0  0  0  0  0  0  0  0  0  0  0  0
    6.4038    0.0117   -1.2491 C   0  0  0  0  0  0  0  0  0  0  0  0
    5.1990   -0.4391   -1.5585 C   0  0  0  0  0  0  0  0  0  0  0  0
    4.0338   -0.4667   -0.7862 C   0  0  0  0  0  0  0  0  0  0  0  0
    3.4951    0.3421    0.3018 C   0  0  0  0  0  0  0  0  0  0  0  0
    4.2925    1.0578    1.0152 O   0  0  0  0  0  0  0  0  0  0  0  0
    0.3628    2.8306    4.5197 H   0  0  0  0  0  0  0  0  0  0  0  0
   -1.4048    2.5631    4.2925 H   0  0  0  0  0  0  0  0  0  0  0  0
   -0.1427    1.2120    4.0265 H   0  0  0  0  0  0  0  0  0  0  0  0
    0.4370    3.4575    2.3374 H   0  0  0  0  0  0  0  0  0  0  0  0
   -1.2187    3.0455    1.9493 H   0  0  0  0  0  0  0  0  0  0  0  0
    2.1781    1.9519    2.0102 H   0  0  0  0  0  0  0  0  0  0  0  0
   -0.7504   -1.0027   -0.3997 H   0  0  0  0  0  0  0  0  0  0  0  0
   -2.5821    1.0956    3.1243 H   0  0  0  0  0  0  0  0  0  0  0  0
   -3.2588   -0.5578    2.4869 H   0  0  0  0  0  0  0  0  0  0  0  0
   -4.8758    1.3918    2.7971 H   0  0  0  0  0  0  0  0  0  0  0  0
   -3.9114    2.3052    1.5753 H   0  0  0  0  0  0  0  0  0  0  0  0
   -5.9022   -1.1263    1.5641 H   0  0  0  0  0  0  0  0  0  0  0  0
   -7.4248    1.5126    0.7799 H   0  0  0  0  0  0  0  0  0  0  0  0
   -7.5904    0.4785    2.3157 H   0  0  0  0  0  0  0  0  0  0  0  0
   -6.4997   -1.5867   -0.6281 H   0  0  0  0  0  0  0  0  0  0  0  0
   -6.5768    0.0980   -1.1971 H   0  0  0  0  0  0  0  0  0  0  0  0
   -4.6389   -0.1381   -1.1324 H   0  0  0  0  0  0  0  0  0  0  0  0
   -4.1426    1.5761   -0.9427 H   0  0  0  0  0  0  0  0  0  0  0  0
   -2.1356    0.1157   -1.0673 H   0  0  0  0  0  0  0  0  0  0  0  0
   -2.8797   -1.0664    0.0622 H   0  0  0  0  0  0  0  0  0  0  0  0
    0.4359   -0.6359   -2.3439 H   0  0  0  0  0  0  0  0  0  0  0  0
    1.1377   -2.2648   -2.9703 H   0  0  0  0  0  0  0  0  0  0  0  0
   -0.1553   -2.2223   -1.7487 H   0  0  0  0  0  0  0  0  0  0  0  0
    1.9644   -2.6922    0.8949 H   0  0  0  0  0  0  0  0  0  0  0  0
    2.3493   -3.6208   -0.6890 H   0  0  0  0  0  0  0  0  0  0  0  0
    0.6514   -3.1785   -0.2083 H   0  0  0  0  0  0  0  0  0  0  0  0
    3.2315   -1.9226   -3.5862 H   0  0  0  0  0  0  0  0  0  0  0  0
    5.9366   -1.6395   -4.6370 H   0  0  0  0  0  0  0  0  0  0  0  0
    8.4496    0.2347   -1.8512 H   0  0  0  0  0  0  0  0  0  0  0  0
    6.5168    0.5435   -0.3022 H   0  0  0  0  0  0  0  0  0  0  0  0
  1  2  1  0
  2  3  1  0
  3  4  2  0
  4  5  1  0
  5  6  2  0
  6  7  1  0
  7  8  2  0
  8  9  1  0
  9 10  1  0
 10 11  1  0
 11 12  1  0
 12 13  1  0
 13 14  1  0
 14 15  1  0
 15 16  1  0
 12 17  1  0
 17 18  1  0
  6 19  1  0
 19 20  1  0
 19 21  1  0
 19 22  1  0
 22 23  1  0
 23 24  1  0
 24 25  2  0
 25 26  1  0
 26 27  1  0
 27 28  3  0
 26 29  2  0
 29 30  1  0
 30 31  2  0
 31 32  1  0
 32 33  1  0
 33 34  2  0
  8  3  1  0
 18  9  1  0
 32 22  2  0
 33  5  1  0
 16 13  1  0
 31 24  1  0
  1 35  1  0
  1 36  1  0
  1 37  1  0
  2 38  1  0
  2 39  1  0
  4 40  1  0
  7 41  1  0
 10 42  1  0
 10 43  1  0
 11 44  1  0
 11 45  1  0
 13 46  1  0
 14 47  1  0
 14 48  1  0
 16 49  1  0
 16 50  1  0
 17 51  1  0
 17 52  1  0
 18 53  1  0
 18 54  1  0
 20 55  1  0
 20 56  1  0
 20 57  1  0
 21 58  1  0
 21 59  1  0
 21 60  1  0
 23 61  1  0
 25 62  1  0
 29 63  1  0
 30 64  1  0
M  END
$$$$
