
     RDKit          3D

 64 68  0  0  0  0  0  0  0  0999 V2000
   10.0640    0.4976   -1.6085 C   0  0  0  0  0  0  0  0  0  0  0  0
    9.0466   -0.2929   -0.8835 C   0  0  0  0  0  0  0  0  0  0  0  0
    9.1659   -1.5011   -0.6009 O   0  0  0  0  0  0  0  0  0  0  0  0
    7.7989    0.2033   -0.4087 N   0  0  0  0  0  0  0  0  0  0  0  0
    7.1677   -0.9370    0.2243 C   0  0  0  0  0  0  0  0  0  0  0  0
    5.8371   -0.6083    0.8598 C   0  0  0  0  0  0  0  0  0  0  0  0
    5.0173    0.2401   -0.0134 N   0  0  0  0  0  0  0  0  0  0  0  0
    5.6723    1.0636   -0.9772 C   0  0  0  0  0  0  0  0  0  0  0  0
    7.0378    1.4375   -0.3824 C   0  0  0  0  0  0  0  0  0  0  0  0
    3.6060    0.2266    0.1176 C   0  0  0  0  0  0  0  0  0  0  0  0
    2.7550    0.9513   -0.6905 C   0  0  0  0  0  0  0  0  0  0  0  0
    1.3794    0.9560   -0.5821 C   0  0  0  0  0  0  0  0  0  0  0  0
    0.7866    0.1869    0.3996 C   0  0  0  0  0  0  0  0  0  0  0  0
   -0.5878    0.1723    0.5312 O   0  0  0  0  0  0  0  0  0  0  0  0
   -1.2554   -0.5991    1.5219 C   0  0  0  0  0  0  0  0  0  0  0  0
   -2.7389   -0.3453    1.3370 C   0  0  0  0  0  0  0  0  0  0  0  0
   -3.0571    1.1178    1.2271 C   0  0  0  0  0  0  0  0  0  0  0  0
   -4.0612    1.2119    0.2520 O   0  0  0  0  0  0  0  0  0  0  0  0
   -4.1859   -0.0951   -0.2432 C   0  0  0  0  0  0  0  0  0  0  0  0
   -4.5032   -0.0363   -1.7384 C   0  0  0  0  0  0  0  0  0  0  0  0
   -5.7431    0.6748   -1.9197 N   0  0  0  0  0  0  0  0  0  0  0  0
   -6.9946    0.1791   -1.9480 C   0  0  0  0  0  0  0  0  0  0  0  0
   -7.9282    1.1783   -2.1435 C   0  0  0  0  0  0  0  0  0  0  0  0
   -7.2263    2.3209   -2.2377 N   0  0  0  0  0  0  0  0  0  0  0  0
   -5.9221    2.0093   -2.1028 C   0  0  0  0  0  0  0  0  0  0  0  0
   -3.0272   -0.7718    0.0265 O   0  0  0  0  0  0  0  0  0  0  0  0
   -5.3066   -0.7449    0.4805 C   0  0  0  0  0  0  0  0  0  0  0  0
   -6.0327   -0.0351    1.4203 C   0  0  0  0  0  0  0  0  0  0  0  0
   -7.1010   -0.4846    2.1588 C   0  0  0  0  0  0  0  0  0  0  0  0
   -7.5008   -1.7838    1.9474 C   0  0  0  0  0  0  0  0  0  0  0  0
   -8.8465   -2.4815    2.8207 Cl  0  0  0  0  0  0  0  0  0  0  0  0
   -6.8293   -2.5555    1.0291 C   0  0  0  0  0  0  0  0  0  0  0  0
   -5.7704   -2.0329    0.3307 C   0  0  0  0  0  0  0  0  0  0  0  0
   -4.9577   -3.0767   -0.7932 Cl  0  0  0  0  0  0  0  0  0  0  0  0
    1.5815   -0.5627    1.2427 C   0  0  0  0  0  0  0  0  0  0  0  0
    2.9597   -0.5219    1.0789 C   0  0  0  0  0  0  0  0  0  0  0  0
   11.0286    0.3306   -1.0736 H   0  0  0  0  0  0  0  0  0  0  0  0
    9.8137    1.5624   -1.5500 H   0  0  0  0  0  0  0  0  0  0  0  0
   10.0781    0.1297   -2.6583 H   0  0  0  0  0  0  0  0  0  0  0  0
    6.9587   -1.7044   -0.5621 H   0  0  0  0  0  0  0  0  0  0  0  0
    7.7861   -1.3982    1.0216 H   0  0  0  0  0  0  0  0  0  0  0  0
    5.3016   -1.5742    0.9709 H   0  0  0  0  0  0  0  0  0  0  0  0
    5.9313   -0.0694    1.8208 H   0  0  0  0  0  0  0  0  0  0  0  0
    5.9035    0.4863   -1.8803 H   0  0  0  0  0  0  0  0  0  0  0  0
    5.1238    1.9684   -1.2923 H   0  0  0  0  0  0  0  0  0  0  0  0
    7.5260    2.2590   -0.9359 H   0  0  0  0  0  0  0  0  0  0  0  0
    6.8196    1.7040    0.6727 H   0  0  0  0  0  0  0  0  0  0  0  0
    3.1434    1.5659   -1.4687 H   0  0  0  0  0  0  0  0  0  0  0  0
    0.7433    1.5372   -1.2342 H   0  0  0  0  0  0  0  0  0  0  0  0
   -1.0454   -1.6598    1.2662 H   0  0  0  0  0  0  0  0  0  0  0  0
   -0.8956   -0.3505    2.5428 H   0  0  0  0  0  0  0  0  0  0  0  0
   -3.3497   -0.8528    2.1006 H   0  0  0  0  0  0  0  0  0  0  0  0
   -2.2080    1.7268    0.8742 H   0  0  0  0  0  0  0  0  0  0  0  0
   -3.4782    1.5101    2.1902 H   0  0  0  0  0  0  0  0  0  0  0  0
   -4.5075   -1.0510   -2.1236 H   0  0  0  0  0  0  0  0  0  0  0  0
   -3.6490    0.4853   -2.2431 H   0  0  0  0  0  0  0  0  0  0  0  0
   -7.2905   -0.8523   -1.8382 H   0  0  0  0  0  0  0  0  0  0  0  0
   -9.0033    1.0578   -2.2067 H   0  0  0  0  0  0  0  0  0  0  0  0
   -5.1095    2.7475   -2.1374 H   0  0  0  0  0  0  0  0  0  0  0  0
   -5.7534    1.0027    1.6238 H   0  0  0  0  0  0  0  0  0  0  0  0
   -7.6098    0.1353    2.8703 H   0  0  0  0  0  0  0  0  0  0  0  0
   -7.1463   -3.5783    0.8646 H   0  0  0  0  0  0  0  0  0  0  0  0
    1.0960   -1.1490    1.9938 H   0  0  0  0  0  0  0  0  0  0  0  0
    3.4928   -1.1297    1.7731 H   0  0  0  0  0  0  0  0  0  0  0  0
  1  2  1  0
  2  3  2  0
  2  4  1  0
  4  5  1  0
  5  6  1  0
  6  7  1  0
  7  8  1  0
  8  9  1  0
  7 10  1  0
 10 11  2  0
 11 12  1  0
 12 13  2  0
 13 14  1  0
 14 15  1  0
 15 16  1  0
 16 17  1  0
 17 18  1  0
 18 19  1  0
 19 20  1  0
 20 21  1  0
 21 22  1  0
 22 23  2  0
 23 24  1  0
 24 25  2  0
 19 26  1  0
 19 27  1  0
 27 28  2  0
 28 29  1  0
 29 30  2  0
 30 31  1  0
 30 32  1  0
 32 33  2  0
 33 34  1  0
 13 35  1  0
 35 36  2  0
  9  4  1  0
 36 10  1  0
 26 16  1  0
 33 27  1  0
 25 21  1  0
  1 37  1  0
  1 38  1  0
  1 39  1  0
  5 40  1  0
  5 41  1  0
  6 42  1  0
  6 43  1  0
  8 44  1  0
  8 45  1  0
  9 46  1  0
  9 47  1  0
 11 48  1  0
 12 49  1  0
 15 50  1  0
 15 51  1  0
 16 52  1  0
 17 53  1  0
 17 54  1  0
 20 55  1  0
 20 56  1  0
 22 57  1  0
 23 58  1  0
 25 59  1  0
 28 60  1  0
 29 61  1  0
 32 62  1  0
 35 63  1  0
 36 64  1  0
M  END
$$$$
