@<TRIPOS>MOLECULE
*****
 46 48 0 0 0
SMALL
GASTEIGER

@<TRIPOS>ATOM
      1 C           5.8796   -0.7153    0.5137 C.3     1  UNL1       -0.0528
      2 C           4.6532    0.1701    0.5498 C.3     1  UNL1        0.0121
      3 C           3.3743   -0.5733    0.6782 C.3     1  UNL1       -0.0116
      4 C           2.3010   -0.3110   -0.3044 C.3     1  UNL1        0.0900
      5 C           2.5923   -0.9302   -1.6685 C.3     1  UNL1       -0.0354
      6 C           1.0488   -0.9506    0.1685 C.ar    1  UNL1        0.0154
      7 C          -0.0860   -0.1837    0.2920 C.ar    1  UNL1       -0.0464
      8 C          -1.2955   -0.6663    0.7261 C.ar    1  UNL1        0.0021
      9 C          -2.5256    0.1589    0.8621 C.3     1  UNL1        0.0247
     10 N          -3.3859   -0.1512   -0.2343 N.3     1  UNL1       -0.2992
     11 C          -4.6300    0.5640   -0.2538 C.3     1  UNL1        0.1154
     12 C          -5.5061    0.1788   -1.4535 C.3     1  UNL1        0.4076
     13 F          -5.8108   -1.1682   -1.4333 F       1  UNL1       -0.1686
     14 F          -4.7822    0.4463   -2.6094 F       1  UNL1       -0.1686
     15 F          -6.6609    0.9093   -1.4785 F       1  UNL1       -0.1686
     16 C          -5.3175    1.0153    0.9511 C.3     1  UNL1       -0.0243
     17 C          -4.6667    2.0520    0.0153 C.3     1  UNL1       -0.0243
     18 C          -1.3869   -2.0004    1.0608 C.ar    1  UNL1        0.1305
     19 F          -2.5786   -2.5268    1.5005 F       1  UNL1       -0.2051
     20 C          -0.2877   -2.7979    0.9538 C.ar    1  UNL1        0.0095
     21 C           0.9320   -2.2777    0.5080 C.ar    1  UNL1        0.1316
     22 F           1.9768   -3.1214    0.4183 F       1  UNL1       -0.2050
     23 N           2.0037    1.0840   -0.5640 N.2     1  UNL1       -0.2524
     24 C           2.9284    1.8955   -0.8667 C.2     1  UNL1        0.1477
     25 N           2.6973    3.2408   -1.1260 N.pl3   1  UNL1       -0.3380
     26 S           4.5698    1.2251   -0.9342 S.3     1  UNL1       -0.0879
     27 H           6.2364   -0.8741    1.5634 H       1  UNL1        0.0240
     28 H           6.6939   -0.1724   -0.0078 H       1  UNL1        0.0240
     29 H           5.6490   -1.6988    0.0785 H       1  UNL1        0.0240
     30 H           4.7162    0.9016    1.4100 H       1  UNL1        0.0414
     31 H           2.9889   -0.4846    1.7374 H       1  UNL1        0.0302
     32 H           3.6611   -1.6649    0.5448 H       1  UNL1        0.0302
     33 H           3.2547   -1.8088   -1.6011 H       1  UNL1        0.0256
     34 H           1.6346   -1.2697   -2.1617 H       1  UNL1        0.0256
     35 H           3.0204   -0.1921   -2.3770 H       1  UNL1        0.0256
     36 H          -0.0705    0.8853    0.0389 H       1  UNL1        0.0626
     37 H          -3.0316   -0.2000    1.8020 H       1  UNL1        0.0475
     38 H          -2.2817    1.2402    0.9309 H       1  UNL1        0.0475
     39 H          -2.9188   -0.1990   -1.1461 H       1  UNL1        0.1230
     40 H          -6.4300    0.9645    0.9497 H       1  UNL1        0.0286
     41 H          -4.8877    1.0205    1.9512 H       1  UNL1        0.0286
     42 H          -5.3673    2.7003   -0.5349 H       1  UNL1        0.0286
     43 H          -3.7398    2.5285    0.3375 H       1  UNL1        0.0286
     44 H          -0.3682   -3.8338    1.2168 H       1  UNL1        0.0675
     45 H           2.5870    3.9001   -0.2993 H       1  UNL1        0.1442
     46 H           2.6165    3.6911   -2.0651 H       1  UNL1        0.1442
@<TRIPOS>BOND
     1     1     2    1
     2     2     3    1
     3     3     4    1
     4     4     5    1
     5     4     6    1
     6     6     7   ar
     7     7     8   ar
     8     8     9    1
     9     9    10    1
    10    10    11    1
    11    11    12    1
    12    12    13    1
    13    12    14    1
    14    12    15    1
    15    11    16    1
    16    16    17    1
    17     8    18   ar
    18    18    19    1
    19    18    20   ar
    20    20    21   ar
    21    21    22    1
    22     4    23    1
    23    23    24    2
    24    24    25    1
    25    24    26    1
    26    26     2    1
    27    21     6   ar
    28    17    11    1
    29     1    27    1
    30     1    28    1
    31     1    29    1
    32     2    30    1
    33     3    31    1
    34     3    32    1
    35     5    33    1
    36     5    34    1
    37     5    35    1
    38     7    36    1
    39     9    37    1
    40     9    38    1
    41    10    39    1
    42    16    40    1
    43    16    41    1
    44    17    42    1
    45    17    43    1
    46    20    44    1
    47    25    45    1
    48    25    46    1
