
     RDKit          3D

 46 48  0  0  0  0  0  0  0  0999 V2000
    5.8796   -0.7153    0.5137 C   0  0  0  0  0  0  0  0  0  0  0  0
    4.6532    0.1701    0.5498 C   0  0  2  0  0  0  0  0  0  0  0  0
    3.3743   -0.5733    0.6782 C   0  0  0  0  0  0  0  0  0  0  0  0
    2.3010   -0.3110   -0.3044 C   0  0  1  0  0  0  0  0  0  0  0  0
    2.5923   -0.9302   -1.6685 C   0  0  0  0  0  0  0  0  0  0  0  0
    1.0488   -0.9506    0.1685 C   0  0  0  0  0  0  0  0  0  0  0  0
   -0.0860   -0.1837    0.2920 C   0  0  0  0  0  0  0  0  0  0  0  0
   -1.2955   -0.6663    0.7261 C   0  0  0  0  0  0  0  0  0  0  0  0
   -2.5256    0.1589    0.8621 C   0  0  0  0  0  0  0  0  0  0  0  0
   -3.3859   -0.1512   -0.2343 N   0  0  0  0  0  0  0  0  0  0  0  0
   -4.6300    0.5640   -0.2538 C   0  0  0  0  0  0  0  0  0  0  0  0
   -5.5061    0.1788   -1.4535 C   0  0  0  0  0  0  0  0  0  0  0  0
   -5.8108   -1.1682   -1.4333 F   0  0  0  0  0  0  0  0  0  0  0  0
   -4.7822    0.4463   -2.6094 F   0  0  0  0  0  0  0  0  0  0  0  0
   -6.6609    0.9093   -1.4785 F   0  0  0  0  0  0  0  0  0  0  0  0
   -5.3175    1.0153    0.9511 C   0  0  0  0  0  0  0  0  0  0  0  0
   -4.6667    2.0520    0.0153 C   0  0  0  0  0  0  0  0  0  0  0  0
   -1.3869   -2.0004    1.0608 C   0  0  0  0  0  0  0  0  0  0  0  0
   -2.5786   -2.5268    1.5005 F   0  0  0  0  0  0  0  0  0  0  0  0
   -0.2877   -2.7979    0.9538 C   0  0  0  0  0  0  0  0  0  0  0  0
    0.9320   -2.2777    0.5080 C   0  0  0  0  0  0  0  0  0  0  0  0
    1.9768   -3.1214    0.4183 F   0  0  0  0  0  0  0  0  0  0  0  0
    2.0037    1.0840   -0.5640 N   0  0  0  0  0  0  0  0  0  0  0  0
    2.9284    1.8955   -0.8667 C   0  0  0  0  0  0  0  0  0  0  0  0
    2.6973    3.2408   -1.1260 N   0  0  0  0  0  0  0  0  0  0  0  0
    4.5698    1.2251   -0.9342 S   0  0  0  0  0  0  0  0  0  0  0  0
    6.2364   -0.8741    1.5634 H   0  0  0  0  0  0  0  0  0  0  0  0
    6.6939   -0.1724   -0.0078 H   0  0  0  0  0  0  0  0  0  0  0  0
    5.6490   -1.6988    0.0785 H   0  0  0  0  0  0  0  0  0  0  0  0
    4.7162    0.9016    1.4100 H   0  0  0  0  0  0  0  0  0  0  0  0
    2.9889   -0.4846    1.7374 H   0  0  0  0  0  0  0  0  0  0  0  0
    3.6611   -1.6649    0.5448 H   0  0  0  0  0  0  0  0  0  0  0  0
    3.2547   -1.8088   -1.6011 H   0  0  0  0  0  0  0  0  0  0  0  0
    1.6346   -1.2697   -2.1617 H   0  0  0  0  0  0  0  0  0  0  0  0
    3.0204   -0.1921   -2.3770 H   0  0  0  0  0  0  0  0  0  0  0  0
   -0.0705    0.8853    0.0389 H   0  0  0  0  0  0  0  0  0  0  0  0
   -3.0316   -0.2000    1.8020 H   0  0  0  0  0  0  0  0  0  0  0  0
   -2.2817    1.2402    0.9309 H   0  0  0  0  0  0  0  0  0  0  0  0
   -2.9188   -0.1990   -1.1461 H   0  0  0  0  0  0  0  0  0  0  0  0
   -6.4300    0.9645    0.9497 H   0  0  0  0  0  0  0  0  0  0  0  0
   -4.8877    1.0205    1.9512 H   0  0  0  0  0  0  0  0  0  0  0  0
   -5.3673    2.7003   -0.5349 H   0  0  0  0  0  0  0  0  0  0  0  0
   -3.7398    2.5285    0.3375 H   0  0  0  0  0  0  0  0  0  0  0  0
   -0.3682   -3.8338    1.2168 H   0  0  0  0  0  0  0  0  0  0  0  0
    2.5870    3.9001   -0.2993 H   0  0  0  0  0  0  0  0  0  0  0  0
    2.6165    3.6911   -2.0651 H   0  0  0  0  0  0  0  0  0  0  0  0
  1  2  1  0
  2  3  1  0
  3  4  1  0
  4  5  1  6
  4  6  1  0
  6  7  2  0
  7  8  1  0
  8  9  1  0
  9 10  1  0
 10 11  1  0
 11 12  1  0
 12 13  1  0
 12 14  1  0
 12 15  1  0
 11 16  1  0
 16 17  1  0
  8 18  2  0
 18 19  1  0
 18 20  1  0
 20 21  2  0
 21 22  1  0
  4 23  1  0
 23 24  2  0
 24 25  1  0
 24 26  1  0
 26  2  1  0
 21  6  1  0
 17 11  1  0
  1 27  1  0
  1 28  1  0
  1 29  1  0
  2 30  1  1
  3 31  1  0
  3 32  1  0
  5 33  1  0
  5 34  1  0
  5 35  1  0
  7 36  1  0
  9 37  1  0
  9 38  1  0
 10 39  1  0
 16 40  1  0
 16 41  1  0
 17 42  1  0
 17 43  1  0
 20 44  1  0
 25 45  1  0
 25 46  1  0
M  END
$$$$
