
     RDKit          3D

 60 63  0  0  0  0  0  0  0  0999 V2000
    1.1881   -3.3048    1.1194 C   0  0  0  0  0  0  0  0  0  0  0  0
    0.9365   -1.8399    1.4069 C   0  0  1  0  0  0  0  0  0  0  0  0
    2.1142   -1.0763    0.8785 C   0  0  0  0  0  0  0  0  0  0  0  0
    3.2738   -1.7202    0.5026 C   0  0  0  0  0  0  0  0  0  0  0  0
    4.3633   -1.0180    0.0165 C   0  0  0  0  0  0  0  0  0  0  0  0
    4.3335    0.3543   -0.1117 C   0  0  0  0  0  0  0  0  0  0  0  0
    5.5005    1.0891   -0.6298 C   0  0  0  0  0  0  0  0  0  0  0  0
    5.9333    2.2293   -0.0123 C   0  0  0  0  0  0  0  0  0  0  0  0
    7.0082    2.9157   -0.4796 C   0  0  0  0  0  0  0  0  0  0  0  0
    7.6708    2.4512   -1.5953 C   0  0  0  0  0  0  0  0  0  0  0  0
    8.7507    3.1581   -2.0485 F   0  0  0  0  0  0  0  0  0  0  0  0
    7.2622    1.3062   -2.2422 C   0  0  0  0  0  0  0  0  0  0  0  0
    6.1665    0.6318   -1.7425 C   0  0  0  0  0  0  0  0  0  0  0  0
    5.7506   -0.5067   -2.3760 F   0  0  0  0  0  0  0  0  0  0  0  0
    3.1729    0.9963    0.2647 C   0  0  0  0  0  0  0  0  0  0  0  0
    2.0830    0.2960    0.7507 C   0  0  0  0  0  0  0  0  0  0  0  0
   -0.2906   -1.3988    0.8154 N   0  0  0  0  0  0  0  0  0  0  0  0
   -1.3534   -0.9298    1.6569 C   0  0  0  0  0  0  0  0  0  0  0  0
   -2.6716   -1.1848    0.9430 C   0  0  0  0  0  0  0  0  0  0  0  0
   -2.6959   -0.4001   -0.3213 C   0  0  2  0  0  0  0  0  0  0  0  0
   -2.7002    1.0712   -0.0256 C   0  0  0  0  0  0  0  0  0  0  0  0
   -3.9270    1.4121    0.7869 C   0  0  0  0  0  0  0  0  0  0  0  0
   -3.9761    2.9047    1.0905 C   0  0  0  0  0  0  0  0  0  0  0  0
   -2.8818    3.3362    1.8061 O   0  0  0  0  0  0  0  0  0  0  0  0
   -3.8928   -0.6902   -1.1575 C   0  0  0  0  0  0  0  0  0  0  0  0
   -4.8240   -1.6024   -0.7208 C   0  0  0  0  0  0  0  0  0  0  0  0
   -5.9217   -1.8532   -1.5110 C   0  0  0  0  0  0  0  0  0  0  0  0
   -6.0880   -1.2012   -2.7230 C   0  0  0  0  0  0  0  0  0  0  0  0
   -7.1906   -1.4664   -3.4951 F   0  0  0  0  0  0  0  0  0  0  0  0
   -5.1374   -0.2910   -3.1356 C   0  0  0  0  0  0  0  0  0  0  0  0
   -4.0320   -0.0286   -2.3554 C   0  0  0  0  0  0  0  0  0  0  0  0
   -1.5669   -0.7623   -1.1239 O   0  0  0  0  0  0  0  0  0  0  0  0
   -0.4700   -1.4191   -0.5926 C   0  0  0  0  0  0  0  0  0  0  0  0
    0.3642   -2.0303   -1.3442 O   0  0  0  0  0  0  0  0  0  0  0  0
    1.9187   -3.6738    1.8680 H   0  0  0  0  0  0  0  0  0  0  0  0
    1.4653   -3.5124    0.0869 H   0  0  0  0  0  0  0  0  0  0  0  0
    0.2224   -3.8337    1.3608 H   0  0  0  0  0  0  0  0  0  0  0  0
    0.8623   -1.7433    2.5065 H   0  0  0  0  0  0  0  0  0  0  0  0
    3.3106   -2.8110    0.5995 H   0  0  0  0  0  0  0  0  0  0  0  0
    5.2707   -1.5549   -0.2743 H   0  0  0  0  0  0  0  0  0  0  0  0
    5.4171    2.5983    0.8639 H   0  0  0  0  0  0  0  0  0  0  0  0
    7.3312    3.8288    0.0392 H   0  0  0  0  0  0  0  0  0  0  0  0
    7.8047    0.9529   -3.1307 H   0  0  0  0  0  0  0  0  0  0  0  0
    3.1499    2.0896    0.1621 H   0  0  0  0  0  0  0  0  0  0  0  0
    1.1723    0.8059    1.0455 H   0  0  0  0  0  0  0  0  0  0  0  0
   -1.4322   -1.5199    2.6061 H   0  0  0  0  0  0  0  0  0  0  0  0
   -1.2017    0.1059    1.9633 H   0  0  0  0  0  0  0  0  0  0  0  0
   -3.5025   -1.0040    1.6181 H   0  0  0  0  0  0  0  0  0  0  0  0
   -2.6723   -2.2956    0.7524 H   0  0  0  0  0  0  0  0  0  0  0  0
   -1.8140    1.4155    0.5596 H   0  0  0  0  0  0  0  0  0  0  0  0
   -2.6583    1.6755   -0.9639 H   0  0  0  0  0  0  0  0  0  0  0  0
   -3.9146    0.9197    1.7847 H   0  0  0  0  0  0  0  0  0  0  0  0
   -4.8690    1.1661    0.2579 H   0  0  0  0  0  0  0  0  0  0  0  0
   -4.9015    3.0714    1.6970 H   0  0  0  0  0  0  0  0  0  0  0  0
   -4.1212    3.4666    0.1437 H   0  0  0  0  0  0  0  0  0  0  0  0
   -3.1419    4.2028    2.2412 H   0  0  0  0  0  0  0  0  0  0  0  0
   -4.7161   -2.1335    0.2369 H   0  0  0  0  0  0  0  0  0  0  0  0
   -6.6787   -2.5724   -1.1915 H   0  0  0  0  0  0  0  0  0  0  0  0
   -5.2380    0.2339   -4.0751 H   0  0  0  0  0  0  0  0  0  0  0  0
   -3.3157    0.6934   -2.7233 H   0  0  0  0  0  0  0  0  0  0  0  0
  1  2  1  0
  2  3  1  0
  3  4  2  0
  4  5  1  0
  5  6  2  0
  6  7  1  0
  7  8  2  0
  8  9  1  0
  9 10  2  0
 10 11  1  0
 10 12  1  0
 12 13  2  0
 13 14  1  0
  6 15  1  0
 15 16  2  0
  2 17  1  0
 17 18  1  0
 18 19  1  0
 19 20  1  0
 20 21  1  1
 21 22  1  0
 22 23  1  0
 23 24  1  0
 20 25  1  0
 25 26  2  0
 26 27  1  0
 27 28  2  0
 28 29  1  0
 28 30  1  0
 30 31  2  0
 20 32  1  0
 32 33  1  0
 33 34  2  0
 16  3  1  0
 33 17  1  0
 13  7  1  0
 31 25  1  0
  1 35  1  0
  1 36  1  0
  1 37  1  0
  2 38  1  1
  4 39  1  0
  5 40  1  0
  8 41  1  0
  9 42  1  0
 12 43  1  0
 15 44  1  0
 16 45  1  0
 18 46  1  0
 18 47  1  0
 19 48  1  0
 19 49  1  0
 21 50  1  0
 21 51  1  0
 22 52  1  0
 22 53  1  0
 23 54  1  0
 23 55  1  0
 24 56  1  0
 26 57  1  0
 27 58  1  0
 30 59  1  0
 31 60  1  0
M  END
$$$$
