@<TRIPOS>MOLECULE
*****
 60 63 0 0 0
SMALL
GASTEIGER

@<TRIPOS>ATOM
      1 C           1.1881   -3.3048    1.1194 C.3     1  UNL1       -0.0421
      2 C           0.9365   -1.8399    1.4069 C.3     1  UNL1        0.0515
      3 C           2.1142   -1.0763    0.8785 C.ar    1  UNL1       -0.0271
      4 C           3.2738   -1.7202    0.5026 C.ar    1  UNL1       -0.0562
      5 C           4.3633   -1.0180    0.0165 C.ar    1  UNL1       -0.0536
      6 C           4.3335    0.3543   -0.1117 C.ar    1  UNL1       -0.0151
      7 C           5.5005    1.0891   -0.6298 C.ar    1  UNL1        0.0175
      8 C           5.9333    2.2293   -0.0123 C.ar    1  UNL1       -0.0486
      9 C           7.0082    2.9157   -0.4796 C.ar    1  UNL1       -0.0257
     10 C           7.6708    2.4512   -1.5953 C.ar    1  UNL1        0.1262
     11 F           8.7507    3.1581   -2.0485 F       1  UNL1       -0.2054
     12 C           7.2622    1.3062   -2.2422 C.ar    1  UNL1        0.0094
     13 C           6.1665    0.6318   -1.7425 C.ar    1  UNL1        0.1338
     14 F           5.7506   -0.5067   -2.3760 F       1  UNL1       -0.2048
     15 C           3.1729    0.9963    0.2647 C.ar    1  UNL1       -0.0536
     16 C           2.0830    0.2960    0.7507 C.ar    1  UNL1       -0.0562
     17 N          -0.2906   -1.3988    0.8154 N.am    1  UNL1       -0.2605
     18 C          -1.3534   -0.9298    1.6569 C.3     1  UNL1        0.0224
     19 C          -2.6716   -1.1848    0.9430 C.3     1  UNL1        0.0075
     20 C          -2.6959   -0.4001   -0.3213 C.3     1  UNL1        0.1415
     21 C          -2.7002    1.0712   -0.0256 C.3     1  UNL1       -0.0064
     22 C          -3.9270    1.4121    0.7869 C.3     1  UNL1       -0.0258
     23 C          -3.9761    2.9047    1.0905 C.3     1  UNL1        0.0443
     24 O          -2.8818    3.3362    1.8061 O.3     1  UNL1       -0.3950
     25 C          -3.8928   -0.6902   -1.1575 C.ar    1  UNL1       -0.0040
     26 C          -4.8240   -1.6024   -0.7208 C.ar    1  UNL1       -0.0521
     27 C          -5.9217   -1.8532   -1.5110 C.ar    1  UNL1       -0.0261
     28 C          -6.0880   -1.2012   -2.7230 C.ar    1  UNL1        0.1234
     29 F          -7.1906   -1.4664   -3.4951 F       1  UNL1       -0.2055
     30 C          -5.1374   -0.2910   -3.1356 C.ar    1  UNL1       -0.0261
     31 C          -4.0320   -0.0286   -2.3554 C.ar    1  UNL1       -0.0521
     32 O          -1.5669   -0.7623   -1.1239 O.3     1  UNL1       -0.4388
     33 C          -0.4700   -1.4191   -0.5926 C.2     1  UNL1        0.4042
     34 O           0.3642   -2.0303   -1.3442 O.2     1  UNL1       -0.2262
     35 H           1.9187   -3.6738    1.8680 H       1  UNL1        0.0251
     36 H           1.4653   -3.5124    0.0869 H       1  UNL1        0.0251
     37 H           0.2224   -3.8337    1.3608 H       1  UNL1        0.0251
     38 H           0.8623   -1.7433    2.5065 H       1  UNL1        0.0549
     39 H           3.3106   -2.8110    0.5995 H       1  UNL1        0.0621
     40 H           5.2707   -1.5549   -0.2743 H       1  UNL1        0.0624
     41 H           5.4171    2.5983    0.8639 H       1  UNL1        0.0625
     42 H           7.3312    3.8288    0.0392 H       1  UNL1        0.0646
     43 H           7.8047    0.9529   -3.1307 H       1  UNL1        0.0675
     44 H           3.1499    2.0896    0.1621 H       1  UNL1        0.0624
     45 H           1.1723    0.8059    1.0455 H       1  UNL1        0.0621
     46 H          -1.4322   -1.5199    2.6061 H       1  UNL1        0.0467
     47 H          -1.2017    0.1059    1.9633 H       1  UNL1        0.0467
     48 H          -3.5025   -1.0040    1.6181 H       1  UNL1        0.0322
     49 H          -2.6723   -2.2956    0.7524 H       1  UNL1        0.0322
     50 H          -1.8140    1.4155    0.5596 H       1  UNL1        0.0308
     51 H          -2.6583    1.6755   -0.9639 H       1  UNL1        0.0308
     52 H          -3.9146    0.9197    1.7847 H       1  UNL1        0.0289
     53 H          -4.8690    1.1661    0.2579 H       1  UNL1        0.0289
     54 H          -4.9015    3.0714    1.6970 H       1  UNL1        0.0557
     55 H          -4.1212    3.4666    0.1437 H       1  UNL1        0.0557
     56 H          -3.1419    4.2028    2.2412 H       1  UNL1        0.2094
     57 H          -4.7161   -2.1335    0.2369 H       1  UNL1        0.0622
     58 H          -6.6787   -2.5724   -1.1915 H       1  UNL1        0.0646
     59 H          -5.2380    0.2339   -4.0751 H       1  UNL1        0.0646
     60 H          -3.3157    0.6934   -2.7233 H       1  UNL1        0.0622
@<TRIPOS>BOND
     1     1     2    1
     2     2     3    1
     3     3     4   ar
     4     4     5   ar
     5     5     6   ar
     6     6     7    1
     7     7     8   ar
     8     8     9   ar
     9     9    10   ar
    10    10    11    1
    11    10    12   ar
    12    12    13   ar
    13    13    14    1
    14     6    15   ar
    15    15    16   ar
    16     2    17    1
    17    17    18    1
    18    18    19    1
    19    19    20    1
    20    20    21    1
    21    21    22    1
    22    22    23    1
    23    23    24    1
    24    20    25    1
    25    25    26   ar
    26    26    27   ar
    27    27    28   ar
    28    28    29    1
    29    28    30   ar
    30    30    31   ar
    31    20    32    1
    32    32    33    1
    33    33    34    2
    34    16     3   ar
    35    33    17   am
    36    13     7   ar
    37    31    25   ar
    38     1    35    1
    39     1    36    1
    40     1    37    1
    41     2    38    1
    42     4    39    1
    43     5    40    1
    44     8    41    1
    45     9    42    1
    46    12    43    1
    47    15    44    1
    48    16    45    1
    49    18    46    1
    50    18    47    1
    51    19    48    1
    52    19    49    1
    53    21    50    1
    54    21    51    1
    55    22    52    1
    56    22    53    1
    57    23    54    1
    58    23    55    1
    59    24    56    1
    60    26    57    1
    61    27    58    1
    62    30    59    1
    63    31    60    1
