
     RDKit          3D

 15 15  0  0  0  0  0  0  0  0999 V2000
    0.1821   -0.0445   -0.2194 C   0  0  2  0  0  0  0  0  0  0  0  0
    0.0507    1.3561    0.3584 C   0  0  0  0  0  0  0  0  0  0  0  0
   -1.7666    1.4919    0.1658 S   0  0  0  0  0  0  0  0  0  0  0  0
   -2.0940   -0.3137    0.1746 C   0  0  0  0  0  0  0  0  0  0  0  0
   -0.7927   -0.8333    0.4712 N   0  0  0  0  0  0  0  0  0  0  0  0
    1.5204   -0.5933    0.0084 C   0  0  0  0  0  0  0  0  0  0  0  0
    2.6293    0.0381   -0.5860 O   0  0  0  0  0  0  0  0  0  0  0  0
    1.8679   -1.6113    0.6987 O   0  0  0  0  0  0  0  0  0  0  0  0
   -0.0587    0.0252   -1.3014 H   0  0  0  0  0  0  0  0  0  0  0  0
    0.2886    1.3462    1.4230 H   0  0  0  0  0  0  0  0  0  0  0  0
    0.5892    2.1023   -0.2293 H   0  0  0  0  0  0  0  0  0  0  0  0
   -2.7947   -0.4598    1.0331 H   0  0  0  0  0  0  0  0  0  0  0  0
   -2.5417   -0.6662   -0.7604 H   0  0  0  0  0  0  0  0  0  0  0  0
   -0.6478   -1.8329    0.2790 H   0  0  0  0  0  0  0  0  0  0  0  0
    3.5679   -0.0048   -0.1706 H   0  0  0  0  0  0  0  0  0  0  0  0
  1  2  1  0
  2  3  1  0
  3  4  1  0
  4  5  1  0
  1  6  1  0
  6  7  1  0
  6  8  2  0
  5  1  1  0
  1  9  1  6
  2 10  1  0
  2 11  1  0
  4 12  1  0
  4 13  1  0
  5 14  1  0
  7 15  1  0
M  END
$$$$
