@<TRIPOS>MOLECULE
*****
 75 78 0 0 0
SMALL
GASTEIGER

@<TRIPOS>ATOM
      1 C           0.0726    2.4717   -0.5086 C.3     1  UNL1       -0.0233
      2 C          -0.8271    1.3284   -0.3390 C.ar    1  UNL1        0.0336
      3 C          -0.3757    0.0468   -0.6720 C.ar    1  UNL1        0.0660
      4 C           0.9706   -0.1569   -1.1816 C.ar    1  UNL1       -0.0076
      5 C           1.3022   -0.1218   -2.5188 C.ar    1  UNL1       -0.0536
      6 C           2.6011   -0.3235   -2.9324 C.ar    1  UNL1       -0.0577
      7 C           3.6278   -0.5700   -2.0203 C.ar    1  UNL1       -0.0199
      8 C           3.3217   -0.6088   -0.6810 C.ar    1  UNL1        0.1211
      9 O           4.2746   -0.8411    0.2788 O.3     1  UNL1       -0.4919
     10 C           5.6366   -1.0415    0.1736 C.3     1  UNL1        0.0896
     11 C           6.4207    0.1155   -0.3504 C.3     1  UNL1       -0.0181
     12 C           7.8985   -0.1663   -0.4627 C.3     1  UNL1       -0.0399
     13 C           8.4615   -0.5071    0.8938 C.3     1  UNL1        0.0449
     14 C           9.9248   -0.7727    0.7544 C.2     1  UNL1        0.3047
     15 O          10.4759   -0.6942   -0.3519 O.2     1  UNL1       -0.2510
     16 O          10.6891   -1.1101    1.8544 O.3     1  UNL1       -0.4806
     17 C           1.9867   -0.3989   -0.3002 C.ar    1  UNL1       -0.0120
     18 C          -1.2836   -0.9864   -0.4846 C.ar    1  UNL1        0.2646
     19 O          -0.9253   -2.1655   -0.7705 O.2     1  UNL1       -0.2668
     20 N          -2.5234   -0.7804   -0.0129 N.ar    1  UNL1       -0.2585
     21 C          -3.4365   -1.9097    0.1632 C.3     1  UNL1        0.0503
     22 C          -3.3411   -2.5257    1.5044 C.3     1  UNL1        0.0488
     23 N          -1.9827   -3.0107    1.7560 N.3     1  UNL1       -0.3222
     24 C          -4.3157   -3.6314    1.6269 C.ar    1  UNL1       -0.0290
     25 C          -5.2694   -3.8857    0.6746 C.ar    1  UNL1       -0.0570
     26 C          -6.1843   -4.9056    0.7814 C.ar    1  UNL1       -0.0615
     27 C          -6.1576   -5.7151    1.8812 C.ar    1  UNL1       -0.0617
     28 C          -5.2070   -5.4802    2.8543 C.ar    1  UNL1       -0.0615
     29 C          -4.2945   -4.4574    2.7407 C.ar    1  UNL1       -0.0570
     30 C          -2.8885    0.4696    0.2850 C.ar    1  UNL1        0.3325
     31 O          -4.0424    0.7217    0.7321 O.2     1  UNL1       -0.2462
     32 N          -2.0686    1.5295    0.1327 N.ar    1  UNL1       -0.2927
     33 C          -2.4742    2.8713    0.4621 C.3     1  UNL1        0.0560
     34 C          -3.1040    3.6047   -0.6474 C.ar    1  UNL1        0.0191
     35 C          -3.2714    3.0444   -1.8965 C.ar    1  UNL1        0.1288
     36 F          -2.8352    1.7825   -2.0915 F       1  UNL1       -0.2051
     37 C          -3.8728    3.7973   -2.8727 C.ar    1  UNL1       -0.0261
     38 C          -4.3240    5.0865   -2.6858 C.ar    1  UNL1       -0.0585
     39 C          -4.1534    5.6376   -1.4380 C.ar    1  UNL1       -0.0496
     40 C          -3.5424    4.8910   -0.4232 C.ar    1  UNL1        0.0624
     41 C          -3.3890    5.5507    0.8985 C.3     1  UNL1        0.4178
     42 F          -2.0715    5.6577    1.2749 F       1  UNL1       -0.1659
     43 F          -3.9069    6.8264    0.8848 F       1  UNL1       -0.1659
     44 F          -4.1215    4.8304    1.8258 F       1  UNL1       -0.1659
     45 H          -0.4644    3.3618   -0.9154 H       1  UNL1        0.0292
     46 H           0.8380    2.2102   -1.2681 H       1  UNL1        0.0292
     47 H           0.6117    2.7082    0.4276 H       1  UNL1        0.0292
     48 H           0.4890    0.0715   -3.2145 H       1  UNL1        0.0624
     49 H           2.8450   -0.2928   -3.9845 H       1  UNL1        0.0619
     50 H           4.6334   -0.7412   -2.4211 H       1  UNL1        0.0654
     51 H           5.8004   -1.9724   -0.4397 H       1  UNL1        0.0696
     52 H           6.0019   -1.3286    1.2004 H       1  UNL1        0.0696
     53 H           6.3282    0.9518    0.4183 H       1  UNL1        0.0298
     54 H           6.1015    0.5533   -1.2944 H       1  UNL1        0.0298
     55 H           8.1055   -0.9592   -1.2129 H       1  UNL1        0.0271
     56 H           8.4149    0.7477   -0.8059 H       1  UNL1        0.0271
     57 H           8.3093    0.3381    1.5686 H       1  UNL1        0.0377
     58 H           8.0101   -1.4574    1.2556 H       1  UNL1        0.0377
     59 H          11.6778   -0.9070    1.9294 H       1  UNL1        0.2951
     60 H           1.7834   -0.4385    0.7758 H       1  UNL1        0.0660
     61 H          -4.4946   -1.5414    0.0128 H       1  UNL1        0.0513
     62 H          -3.2638   -2.6725   -0.6103 H       1  UNL1        0.0513
     63 H          -3.5553   -1.8327    2.3440 H       1  UNL1        0.0526
     64 H          -1.8465   -3.9724    1.3655 H       1  UNL1        0.1188
     65 H          -1.7374   -2.9478    2.7622 H       1  UNL1        0.1188
     66 H          -5.3399   -3.2870   -0.2203 H       1  UNL1        0.0621
     67 H          -6.9068   -5.0618    0.0124 H       1  UNL1        0.0618
     68 H          -6.8787   -6.5279    1.9770 H       1  UNL1        0.0618
     69 H          -5.2069   -6.1311    3.7098 H       1  UNL1        0.0618
     70 H          -3.5344   -4.2590    3.5049 H       1  UNL1        0.0621
     71 H          -1.6599    3.4516    0.9425 H       1  UNL1        0.0544
     72 H          -3.2622    2.7678    1.2650 H       1  UNL1        0.0544
     73 H          -3.9986    3.3513   -3.8435 H       1  UNL1        0.0646
     74 H          -4.7935    5.6826   -3.4376 H       1  UNL1        0.0619
     75 H          -4.4819    6.6379   -1.2236 H       1  UNL1        0.0623
@<TRIPOS>BOND
     1     1     2    1
     2     2     3   ar
     3     3     4    1
     4     4     5   ar
     5     5     6   ar
     6     6     7   ar
     7     7     8   ar
     8     8     9    1
     9     9    10    1
    10    10    11    1
    11    11    12    1
    12    12    13    1
    13    13    14    1
    14    14    15    2
    15    14    16    1
    16     8    17   ar
    17     3    18   ar
    18    18    19    2
    19    18    20   ar
    20    20    21    1
    21    21    22    1
    22    22    23    1
    23    22    24    1
    24    24    25   ar
    25    25    26   ar
    26    26    27   ar
    27    27    28   ar
    28    28    29   ar
    29    20    30   ar
    30    30    31    2
    31    30    32   ar
    32    32    33    1
    33    33    34    1
    34    34    35   ar
    35    35    36    1
    36    35    37   ar
    37    37    38   ar
    38    38    39   ar
    39    39    40   ar
    40    40    41    1
    41    41    42    1
    42    41    43    1
    43    41    44    1
    44    32     2   ar
    45    40    34   ar
    46    17     4   ar
    47    29    24   ar
    48     1    45    1
    49     1    46    1
    50     1    47    1
    51     5    48    1
    52     6    49    1
    53     7    50    1
    54    10    51    1
    55    10    52    1
    56    11    53    1
    57    11    54    1
    58    12    55    1
    59    12    56    1
    60    13    57    1
    61    13    58    1
    62    16    59    1
    63    17    60    1
    64    21    61    1
    65    21    62    1
    66    22    63    1
    67    23    64    1
    68    23    65    1
    69    25    66    1
    70    26    67    1
    71    27    68    1
    72    28    69    1
    73    29    70    1
    74    33    71    1
    75    33    72    1
    76    37    73    1
    77    38    74    1
    78    39    75    1
