
     RDKit          3D

 75 78  0  0  0  0  0  0  0  0999 V2000
    0.0726    2.4717   -0.5086 C   0  0  0  0  0  0  0  0  0  0  0  0
   -0.8271    1.3284   -0.3390 C   0  0  0  0  0  0  0  0  0  0  0  0
   -0.3757    0.0468   -0.6720 C   0  0  0  0  0  0  0  0  0  0  0  0
    0.9706   -0.1569   -1.1816 C   0  0  0  0  0  0  0  0  0  0  0  0
    1.3022   -0.1218   -2.5188 C   0  0  0  0  0  0  0  0  0  0  0  0
    2.6011   -0.3235   -2.9324 C   0  0  0  0  0  0  0  0  0  0  0  0
    3.6278   -0.5700   -2.0203 C   0  0  0  0  0  0  0  0  0  0  0  0
    3.3217   -0.6088   -0.6810 C   0  0  0  0  0  0  0  0  0  0  0  0
    4.2746   -0.8411    0.2788 O   0  0  0  0  0  0  0  0  0  0  0  0
    5.6366   -1.0415    0.1736 C   0  0  0  0  0  0  0  0  0  0  0  0
    6.4207    0.1155   -0.3504 C   0  0  0  0  0  0  0  0  0  0  0  0
    7.8985   -0.1663   -0.4627 C   0  0  0  0  0  0  0  0  0  0  0  0
    8.4615   -0.5071    0.8938 C   0  0  0  0  0  0  0  0  0  0  0  0
    9.9248   -0.7727    0.7544 C   0  0  0  0  0  0  0  0  0  0  0  0
   10.4759   -0.6942   -0.3519 O   0  0  0  0  0  0  0  0  0  0  0  0
   10.6891   -1.1101    1.8544 O   0  0  0  0  0  0  0  0  0  0  0  0
    1.9867   -0.3989   -0.3002 C   0  0  0  0  0  0  0  0  0  0  0  0
   -1.2836   -0.9864   -0.4846 C   0  0  0  0  0  0  0  0  0  0  0  0
   -0.9253   -2.1655   -0.7705 O   0  0  0  0  0  0  0  0  0  0  0  0
   -2.5234   -0.7804   -0.0129 N   0  0  0  0  0  0  0  0  0  0  0  0
   -3.4365   -1.9097    0.1632 C   0  0  0  0  0  0  0  0  0  0  0  0
   -3.3411   -2.5257    1.5044 C   0  0  2  0  0  0  0  0  0  0  0  0
   -1.9827   -3.0107    1.7560 N   0  0  0  0  0  0  0  0  0  0  0  0
   -4.3157   -3.6314    1.6269 C   0  0  0  0  0  0  0  0  0  0  0  0
   -5.2694   -3.8857    0.6746 C   0  0  0  0  0  0  0  0  0  0  0  0
   -6.1843   -4.9056    0.7814 C   0  0  0  0  0  0  0  0  0  0  0  0
   -6.1576   -5.7151    1.8812 C   0  0  0  0  0  0  0  0  0  0  0  0
   -5.2070   -5.4802    2.8543 C   0  0  0  0  0  0  0  0  0  0  0  0
   -4.2945   -4.4574    2.7407 C   0  0  0  0  0  0  0  0  0  0  0  0
   -2.8885    0.4696    0.2850 C   0  0  0  0  0  0  0  0  0  0  0  0
   -4.0424    0.7217    0.7321 O   0  0  0  0  0  0  0  0  0  0  0  0
   -2.0686    1.5295    0.1327 N   0  0  0  0  0  0  0  0  0  0  0  0
   -2.4742    2.8713    0.4621 C   0  0  0  0  0  0  0  0  0  0  0  0
   -3.1040    3.6047   -0.6474 C   0  0  0  0  0  0  0  0  0  0  0  0
   -3.2714    3.0444   -1.8965 C   0  0  0  0  0  0  0  0  0  0  0  0
   -2.8352    1.7825   -2.0915 F   0  0  0  0  0  0  0  0  0  0  0  0
   -3.8728    3.7973   -2.8727 C   0  0  0  0  0  0  0  0  0  0  0  0
   -4.3240    5.0865   -2.6858 C   0  0  0  0  0  0  0  0  0  0  0  0
   -4.1534    5.6376   -1.4380 C   0  0  0  0  0  0  0  0  0  0  0  0
   -3.5424    4.8910   -0.4232 C   0  0  0  0  0  0  0  0  0  0  0  0
   -3.3890    5.5507    0.8985 C   0  0  0  0  0  0  0  0  0  0  0  0
   -2.0715    5.6577    1.2749 F   0  0  0  0  0  0  0  0  0  0  0  0
   -3.9069    6.8264    0.8848 F   0  0  0  0  0  0  0  0  0  0  0  0
   -4.1215    4.8304    1.8258 F   0  0  0  0  0  0  0  0  0  0  0  0
   -0.4644    3.3618   -0.9154 H   0  0  0  0  0  0  0  0  0  0  0  0
    0.8380    2.2102   -1.2681 H   0  0  0  0  0  0  0  0  0  0  0  0
    0.6117    2.7082    0.4276 H   0  0  0  0  0  0  0  0  0  0  0  0
    0.4890    0.0715   -3.2145 H   0  0  0  0  0  0  0  0  0  0  0  0
    2.8450   -0.2928   -3.9845 H   0  0  0  0  0  0  0  0  0  0  0  0
    4.6334   -0.7412   -2.4211 H   0  0  0  0  0  0  0  0  0  0  0  0
    5.8004   -1.9724   -0.4397 H   0  0  0  0  0  0  0  0  0  0  0  0
    6.0019   -1.3286    1.2004 H   0  0  0  0  0  0  0  0  0  0  0  0
    6.3282    0.9518    0.4183 H   0  0  0  0  0  0  0  0  0  0  0  0
    6.1015    0.5533   -1.2944 H   0  0  0  0  0  0  0  0  0  0  0  0
    8.1055   -0.9592   -1.2129 H   0  0  0  0  0  0  0  0  0  0  0  0
    8.4149    0.7477   -0.8059 H   0  0  0  0  0  0  0  0  0  0  0  0
    8.3093    0.3381    1.5686 H   0  0  0  0  0  0  0  0  0  0  0  0
    8.0101   -1.4574    1.2556 H   0  0  0  0  0  0  0  0  0  0  0  0
   11.6778   -0.9070    1.9294 H   0  0  0  0  0  0  0  0  0  0  0  0
    1.7834   -0.4385    0.7758 H   0  0  0  0  0  0  0  0  0  0  0  0
   -4.4946   -1.5414    0.0128 H   0  0  0  0  0  0  0  0  0  0  0  0
   -3.2638   -2.6725   -0.6103 H   0  0  0  0  0  0  0  0  0  0  0  0
   -3.5553   -1.8327    2.3440 H   0  0  0  0  0  0  0  0  0  0  0  0
   -1.8465   -3.9724    1.3655 H   0  0  0  0  0  0  0  0  0  0  0  0
   -1.7374   -2.9478    2.7622 H   0  0  0  0  0  0  0  0  0  0  0  0
   -5.3399   -3.2870   -0.2203 H   0  0  0  0  0  0  0  0  0  0  0  0
   -6.9068   -5.0618    0.0124 H   0  0  0  0  0  0  0  0  0  0  0  0
   -6.8787   -6.5279    1.9770 H   0  0  0  0  0  0  0  0  0  0  0  0
   -5.2069   -6.1311    3.7098 H   0  0  0  0  0  0  0  0  0  0  0  0
   -3.5344   -4.2590    3.5049 H   0  0  0  0  0  0  0  0  0  0  0  0
   -1.6599    3.4516    0.9425 H   0  0  0  0  0  0  0  0  0  0  0  0
   -3.2622    2.7678    1.2650 H   0  0  0  0  0  0  0  0  0  0  0  0
   -3.9986    3.3513   -3.8435 H   0  0  0  0  0  0  0  0  0  0  0  0
   -4.7935    5.6826   -3.4376 H   0  0  0  0  0  0  0  0  0  0  0  0
   -4.4819    6.6379   -1.2236 H   0  0  0  0  0  0  0  0  0  0  0  0
  1  2  1  0
  2  3  2  0
  3  4  1  0
  4  5  2  0
  5  6  1  0
  6  7  2  0
  7  8  1  0
  8  9  1  0
  9 10  1  0
 10 11  1  0
 11 12  1  0
 12 13  1  0
 13 14  1  0
 14 15  2  0
 14 16  1  0
  8 17  2  0
  3 18  1  0
 18 19  2  0
 18 20  1  0
 20 21  1  0
 21 22  1  0
 22 23  1  0
 22 24  1  0
 24 25  2  0
 25 26  1  0
 26 27  2  0
 27 28  1  0
 28 29  2  0
 20 30  1  0
 30 31  2  0
 30 32  1  0
 32 33  1  0
 33 34  1  0
 34 35  2  0
 35 36  1  0
 35 37  1  0
 37 38  2  0
 38 39  1  0
 39 40  2  0
 40 41  1  0
 41 42  1  0
 41 43  1  0
 41 44  1  0
 32  2  1  0
 40 34  1  0
 17  4  1  0
 29 24  1  0
  1 45  1  0
  1 46  1  0
  1 47  1  0
  5 48  1  0
  6 49  1  0
  7 50  1  0
 10 51  1  0
 10 52  1  0
 11 53  1  0
 11 54  1  0
 12 55  1  0
 12 56  1  0
 13 57  1  0
 13 58  1  0
 16 59  1  0
 17 60  1  0
 21 61  1  0
 21 62  1  0
 22 63  1  1
 23 64  1  0
 23 65  1  0
 25 66  1  0
 26 67  1  0
 27 68  1  0
 28 69  1  0
 29 70  1  0
 33 71  1  0
 33 72  1  0
 37 73  1  0
 38 74  1  0
 39 75  1  0
M  END
$$$$
