
     RDKit          3D

 47 48  0  0  0  0  0  0  0  0999 V2000
   -0.0942    1.8566    0.8639 C   0  0  2  0  0  0  0  0  0  0  0  0
    0.5259    0.8966    1.8186 C   0  0  0  0  0  0  0  0  0  0  0  0
    1.5607    0.0358    1.2551 C   0  0  0  0  0  0  0  0  0  0  0  0
    2.8592    0.5466    1.3205 C   0  0  0  0  0  0  0  0  0  0  0  0
    3.9303   -0.1667    0.8236 C   0  0  0  0  0  0  0  0  0  0  0  0
    3.7906   -1.4039    0.2430 C   0  0  0  0  0  0  0  0  0  0  0  0
    4.8191   -2.2242   -0.2854 N   0  0  0  0  0  0  0  0  0  0  0  0
    6.1867   -1.9114   -0.0699 C   0  0  0  0  0  0  0  0  0  0  0  0
    7.0931   -1.9611   -1.1912 N   0  0  0  0  0  0  0  0  0  0  0  0
    6.6040   -1.6007    1.1022 N   0  0  0  0  0  0  0  0  0  0  0  0
    2.4732   -1.8643    0.2045 C   0  0  0  0  0  0  0  0  0  0  0  0
    1.3722   -1.1908    0.6861 C   0  0  0  0  0  0  0  0  0  0  0  0
   -0.7497    1.2560   -0.2667 N   0  0  0  0  0  0  0  0  0  0  0  0
   -2.1174    1.3406   -0.6476 C   0  0  0  0  0  0  0  0  0  0  0  0
   -2.7314    2.0705    0.2036 O   0  0  0  0  0  0  0  0  0  0  0  0
   -2.4046    0.5827   -1.8738 C   0  0  0  0  0  0  0  0  0  0  0  0
   -4.1640    0.7583   -2.2698 S   0  0  0  0  0  0  0  0  0  0  0  0
   -5.2022   -0.0106   -1.0581 C   0  0  0  0  0  0  0  0  0  0  0  0
   -5.6996    0.6043    0.0562 C   0  0  0  0  0  0  0  0  0  0  0  0
   -6.4991   -0.0152    0.9739 C   0  0  0  0  0  0  0  0  0  0  0  0
   -6.7925   -1.3448    0.7122 C   0  0  0  0  0  0  0  0  0  0  0  0
   -7.8117   -2.2262    1.8317 Cl  0  0  0  0  0  0  0  0  0  0  0  0
   -6.3285   -2.0366   -0.3912 C   0  0  0  0  0  0  0  0  0  0  0  0
   -5.5173   -1.3355   -1.2832 C   0  0  0  0  0  0  0  0  0  0  0  0
    0.8636    2.9399    0.4479 C   0  0  0  0  0  0  0  0  0  0  0  0
    1.7812    3.9729    0.0932 N   0  0  0  0  0  0  0  0  0  0  0  0
    0.4325    2.5988   -0.7049 O   0  0  0  0  0  0  0  0  0  0  0  0
   -0.8909    2.4101    1.4175 H   0  0  0  0  0  0  0  0  0  0  0  0
    0.9010    1.4587    2.6773 H   0  0  0  0  0  0  0  0  0  0  0  0
   -0.2940    0.2483    2.1965 H   0  0  0  0  0  0  0  0  0  0  0  0
    3.0763    1.5171    1.7607 H   0  0  0  0  0  0  0  0  0  0  0  0
    4.9141    0.2516    0.8781 H   0  0  0  0  0  0  0  0  0  0  0  0
    4.5649   -3.0750   -0.8555 H   0  0  0  0  0  0  0  0  0  0  0  0
    7.4157   -2.7282   -1.8282 H   0  0  0  0  0  0  0  0  0  0  0  0
    7.5353   -1.0353   -1.4370 H   0  0  0  0  0  0  0  0  0  0  0  0
    5.9701   -1.5681    1.9194 H   0  0  0  0  0  0  0  0  0  0  0  0
    2.2722   -2.8424   -0.2418 H   0  0  0  0  0  0  0  0  0  0  0  0
    0.3791   -1.5816    0.6357 H   0  0  0  0  0  0  0  0  0  0  0  0
    0.0013    0.7279   -0.7685 H   0  0  0  0  0  0  0  0  0  0  0  0
   -2.1347   -0.4955   -1.7063 H   0  0  0  0  0  0  0  0  0  0  0  0
   -1.8112    0.9593   -2.7333 H   0  0  0  0  0  0  0  0  0  0  0  0
   -5.4465    1.6379    0.2203 H   0  0  0  0  0  0  0  0  0  0  0  0
   -6.8918    0.4841    1.8613 H   0  0  0  0  0  0  0  0  0  0  0  0
   -6.5933   -3.0835   -0.5446 H   0  0  0  0  0  0  0  0  0  0  0  0
   -5.1723   -1.9104   -2.1363 H   0  0  0  0  0  0  0  0  0  0  0  0
    1.2870    4.9081    0.0599 H   0  0  0  0  0  0  0  0  0  0  0  0
    2.7376    3.5494   -0.0508 H   0  0  0  0  0  0  0  0  0  0  0  0
  1  2  1  0
  2  3  1  0
  3  4  2  0
  4  5  1  0
  5  6  2  0
  6  7  1  0
  7  8  1  0
  8  9  1  0
  8 10  2  3
  6 11  1  0
 11 12  2  0
  1 13  1  0
 13 14  1  0
 14 15  2  0
 14 16  1  0
 16 17  1  0
 17 18  1  0
 18 19  2  0
 19 20  1  0
 20 21  2  0
 21 22  1  0
 21 23  1  0
 23 24  2  0
  1 25  1  0
 25 26  1  0
 25 27  2  0
 12  3  1  0
 24 18  1  0
  1 28  1  1
  2 29  1  0
  2 30  1  0
  4 31  1  0
  5 32  1  0
  7 33  1  0
  9 34  1  0
  9 35  1  0
 10 36  1  0
 11 37  1  0
 12 38  1  0
 13 39  1  0
 16 40  1  0
 16 41  1  0
 19 42  1  0
 20 43  1  0
 23 44  1  0
 24 45  1  0
 26 46  1  0
 26 47  1  0
M  END
$$$$
