@<TRIPOS>MOLECULE
*****
 47 48 0 0 0
SMALL
GASTEIGER

@<TRIPOS>ATOM
      1 C          -0.0942    1.8566    0.8639 C.3     1  UNL1        0.1031
      2 C           0.5259    0.8966    1.8186 C.3     1  UNL1       -0.0007
      3 C           1.5607    0.0358    1.2551 C.ar    1  UNL1       -0.0449
      4 C           2.8592    0.5466    1.3205 C.ar    1  UNL1       -0.0553
      5 C           3.9303   -0.1667    0.8236 C.ar    1  UNL1       -0.0229
      6 C           3.7906   -1.4039    0.2430 C.ar    1  UNL1        0.1000
      7 N           4.8191   -2.2242   -0.2854 N.pl3   1  UNL1       -0.2438
      8 C           6.1867   -1.9114   -0.0699 C.cat   1  UNL1        0.3810
      9 N           7.0931   -1.9611   -1.1912 N.pl3   1  UNL1       -0.2889
     10 N           6.6040   -1.6007    1.1022 N.pl3   1  UNL1       -0.1295
     11 C           2.4732   -1.8643    0.2045 C.ar    1  UNL1       -0.0229
     12 C           1.3722   -1.1908    0.6861 C.ar    1  UNL1       -0.0553
     13 N          -0.7497    1.2560   -0.2667 N.am    1  UNL1       -0.3030
     14 C          -2.1174    1.3406   -0.6476 C.2     1  UNL1        0.2238
     15 O          -2.7314    2.0705    0.2036 O.2     1  UNL1       -0.2749
     16 C          -2.4046    0.5827   -1.8738 C.3     1  UNL1        0.0748
     17 S          -4.1640    0.7583   -2.2698 S.3     1  UNL1       -0.1159
     18 C          -5.2022   -0.0106   -1.0581 C.ar    1  UNL1        0.0084
     19 C          -5.6996    0.6043    0.0562 C.ar    1  UNL1       -0.0469
     20 C          -6.4991   -0.0152    0.9739 C.ar    1  UNL1       -0.0423
     21 C          -6.7925   -1.3448    0.7122 C.ar    1  UNL1        0.0410
     22 CL         -7.8117   -2.2262    1.8317 Cl      1  UNL1       -0.0835
     23 C          -6.3285   -2.0366   -0.3912 C.ar    1  UNL1       -0.0423
     24 C          -5.5173   -1.3355   -1.2832 C.ar    1  UNL1       -0.0469
     25 C           0.8636    2.9399    0.4479 C.2     1  UNL1        0.2311
     26 N           1.7812    3.9729    0.0932 N.am    1  UNL1       -0.3278
     27 O           0.4325    2.5988   -0.7049 O.2     1  UNL1       -0.2740
     28 H          -0.8909    2.4101    1.4175 H       1  UNL1        0.0598
     29 H           0.9010    1.4587    2.6773 H       1  UNL1        0.0336
     30 H          -0.2940    0.2483    2.1965 H       1  UNL1        0.0336
     31 H           3.0763    1.5171    1.7607 H       1  UNL1        0.0621
     32 H           4.9141    0.2516    0.8781 H       1  UNL1        0.0652
     33 H           4.5649   -3.0750   -0.8555 H       1  UNL1        0.2648
     34 H           7.4157   -2.7282   -1.8282 H       1  UNL1        0.2547
     35 H           7.5353   -1.0353   -1.4370 H       1  UNL1        0.2547
     36 H           5.9701   -1.5681    1.9194 H       1  UNL1        0.3062
     37 H           2.2722   -2.8424   -0.2418 H       1  UNL1        0.0652
     38 H           0.3791   -1.5816    0.6357 H       1  UNL1        0.0621
     39 H           0.0013    0.7279   -0.7685 H       1  UNL1        0.1495
     40 H          -2.1347   -0.4955   -1.7063 H       1  UNL1        0.0474
     41 H          -1.8112    0.9593   -2.7333 H       1  UNL1        0.0474
     42 H          -5.4465    1.6379    0.2203 H       1  UNL1        0.0629
     43 H          -6.8918    0.4841    1.8613 H       1  UNL1        0.0632
     44 H          -6.5933   -3.0835   -0.5446 H       1  UNL1        0.0632
     45 H          -5.1723   -1.9104   -2.1363 H       1  UNL1        0.0629
     46 H           1.2870    4.9081    0.0599 H       1  UNL1        0.1450
     47 H           2.7376    3.5494   -0.0508 H       1  UNL1        0.1450
@<TRIPOS>BOND
     1     1     2    1
     2     2     3    1
     3     3     4   ar
     4     4     5   ar
     5     5     6   ar
     6     6     7    1
     7     7     8    1
     8     8     9    1
     9     8    10    2
    10     6    11   ar
    11    11    12   ar
    12     1    13    1
    13    13    14   am
    14    14    15    2
    15    14    16    1
    16    16    17    1
    17    17    18    1
    18    18    19   ar
    19    19    20   ar
    20    20    21   ar
    21    21    22    1
    22    21    23   ar
    23    23    24   ar
    24     1    25    1
    25    25    26   am
    26    25    27    2
    27    12     3   ar
    28    24    18   ar
    29     1    28    1
    30     2    29    1
    31     2    30    1
    32     4    31    1
    33     5    32    1
    34     7    33    1
    35     9    34    1
    36     9    35    1
    37    10    36    1
    38    11    37    1
    39    12    38    1
    40    13    39    1
    41    16    40    1
    42    16    41    1
    43    19    42    1
    44    20    43    1
    45    23    44    1
    46    24    45    1
    47    26    46    1
    48    26    47    1
