@<TRIPOS>MOLECULE
*****
 44 47 0 0 0
SMALL
GASTEIGER

@<TRIPOS>ATOM
      1 N           1.9128   -2.3644   -0.0782 N.3     1  UNL1       -0.3243
      2 C           1.0261   -1.2006   -0.2381 C.3     1  UNL1        0.0233
      3 C           1.7736   -0.2139   -1.1069 C.3     1  UNL1       -0.0094
      4 C           3.0480    0.2299   -0.5226 C.ar    1  UNL1       -0.0455
      5 C           4.1975   -0.4980   -0.7885 C.ar    1  UNL1       -0.0571
      6 C           5.4326   -0.1551   -0.2896 C.ar    1  UNL1       -0.0431
      7 C           5.5790    0.9550    0.5152 C.ar    1  UNL1        0.0410
      8 CL          7.1455    1.4206    1.1695 Cl      1  UNL1       -0.0835
      9 C           4.4380    1.6817    0.7820 C.ar    1  UNL1       -0.0431
     10 C           3.1993    1.3390    0.2825 C.ar    1  UNL1       -0.0571
     11 C          -0.2410   -1.6768   -0.8524 C.3     1  UNL1       -0.0187
     12 C          -1.4321   -1.5533    0.1115 C.3     1  UNL1        0.0152
     13 N          -1.5160   -0.2388    0.6643 N.pl3   1  UNL1       -0.3145
     14 C          -2.7581    0.3789    0.8916 C.ar    1  UNL1        0.1337
     15 N          -3.1729    0.7154    2.1430 N.ar    1  UNL1       -0.2200
     16 C          -4.3561    1.2982    2.3734 C.ar    1  UNL1        0.1204
     17 N          -5.1851    1.5728    1.3505 N.ar    1  UNL1       -0.2178
     18 C          -4.8667    1.2792    0.0759 C.ar    1  UNL1        0.1432
     19 N          -5.5100    1.4506   -1.1096 N.ar    1  UNL1       -0.3457
     20 C          -4.7054    0.9656   -2.0698 C.ar    1  UNL1        0.0042
     21 C          -3.5349    0.4780   -1.4983 C.ar    1  UNL1       -0.0318
     22 C          -3.6463    0.6811   -0.1351 C.ar    1  UNL1        0.0585
     23 C          -0.3061    0.4563    0.9862 C.3     1  UNL1        0.0152
     24 C           0.7893   -0.5786    1.1069 C.3     1  UNL1       -0.0187
     25 H           1.6268   -2.9497    0.7311 H       1  UNL1        0.1187
     26 H           1.9940   -2.8604   -0.9734 H       1  UNL1        0.1187
     27 H           1.9794   -0.7230   -2.1007 H       1  UNL1        0.0331
     28 H           1.1636    0.6660   -1.3903 H       1  UNL1        0.0331
     29 H           4.1340   -1.3715   -1.4110 H       1  UNL1        0.0621
     30 H           6.3296   -0.7381   -0.5075 H       1  UNL1        0.0632
     31 H           4.5783    2.5580    1.4226 H       1  UNL1        0.0632
     32 H           2.3351    1.9309    0.5116 H       1  UNL1        0.0621
     33 H          -0.1858   -2.7526   -1.1108 H       1  UNL1        0.0298
     34 H          -0.5129   -1.1491   -1.7903 H       1  UNL1        0.0298
     35 H          -1.3298   -2.3236    0.9103 H       1  UNL1        0.0465
     36 H          -2.3325   -1.7619   -0.4698 H       1  UNL1        0.0465
     37 H          -4.6671    1.5606    3.4017 H       1  UNL1        0.1048
     38 H          -6.4666    1.8895   -1.2111 H       1  UNL1        0.1668
     39 H          -4.9237    0.9514   -3.1254 H       1  UNL1        0.0807
     40 H          -2.6905    0.0272   -2.0005 H       1  UNL1        0.0640
     41 H          -0.0675    1.1346    0.1213 H       1  UNL1        0.0465
     42 H          -0.4093    1.0548    1.9227 H       1  UNL1        0.0465
     43 H           1.6919   -0.1262    1.5482 H       1  UNL1        0.0298
     44 H           0.4422   -1.4396    1.7579 H       1  UNL1        0.0298
@<TRIPOS>BOND
     1     1     2    1
     2     2     3    1
     3     3     4    1
     4     4     5   ar
     5     5     6   ar
     6     6     7   ar
     7     7     8    1
     8     7     9   ar
     9     9    10   ar
    10     2    11    1
    11    11    12    1
    12    12    13    1
    13    13    14    1
    14    14    15   ar
    15    15    16   ar
    16    16    17   ar
    17    17    18   ar
    18    18    19   ar
    19    19    20   ar
    20    20    21   ar
    21    21    22   ar
    22    13    23    1
    23    23    24    1
    24    24     2    1
    25    10     4   ar
    26    22    14   ar
    27    22    18   ar
    28     1    25    1
    29     1    26    1
    30     3    27    1
    31     3    28    1
    32     5    29    1
    33     6    30    1
    34     9    31    1
    35    10    32    1
    36    11    33    1
    37    11    34    1
    38    12    35    1
    39    12    36    1
    40    16    37    1
    41    19    38    1
    42    20    39    1
    43    21    40    1
    44    23    41    1
    45    23    42    1
    46    24    43    1
    47    24    44    1
