@<TRIPOS>MOLECULE
*****
 59 62 0 0 0
SMALL
GASTEIGER

@<TRIPOS>ATOM
      1 C           8.3245   -2.7247    0.8388 C.3     1  UNL1       -0.0306
      2 C           7.6064   -2.8319   -0.4991 C.3     1  UNL1        0.0900
      3 O           6.3142   -2.2646   -0.4317 O.3     1  UNL1       -0.4611
      4 C           6.0950   -0.9465   -0.1136 C.2     1  UNL1        0.3462
      5 O           7.1128   -0.2333    0.1243 O.2     1  UNL1       -0.2444
      6 C           4.7751   -0.3830   -0.0495 C.ar    1  UNL1        0.1018
      7 S           4.4268    1.3350    0.3514 S.2     1  UNL1       -0.0617
      8 C           2.6637    1.1915    0.2084 C.ar    1  UNL1        0.1168
      9 N           1.6748    2.1057    0.3676 N.ar    1  UNL1       -0.2207
     10 C           0.3915    1.7272    0.1902 C.ar    1  UNL1        0.1550
     11 C          -0.6047    2.6603    0.3525 C.ar    1  UNL1        0.0515
     12 S          -0.1587    4.3121    0.7872 S.3     1  UNL1       -0.1211
     13 C           0.1289    5.3693   -0.6447 C.3     1  UNL1        0.0085
     14 C          -1.1509    5.5919   -1.4274 C.3     1  UNL1        0.0541
     15 C          -2.1669    6.2431   -0.5623 C.2     1  UNL1        0.3055
     16 O          -1.9025    6.5279    0.6315 O.2     1  UNL1       -0.2510
     17 O          -3.4341    6.5605   -1.0282 O.3     1  UNL1       -0.4806
     18 C          -1.9395    2.2806    0.1705 C.ar    1  UNL1       -0.0325
     19 C          -2.2289    0.9572   -0.1732 C.ar    1  UNL1        0.0401
     20 C          -3.6320    0.5940   -0.3978 C.2     1  UNL1        0.1982
     21 O          -4.3778    1.5080   -0.9222 O.2     1  UNL1       -0.2865
     22 C          -4.2501   -0.6601   -0.0960 C.ar    1  UNL1        0.0671
     23 C          -3.6854   -1.6537    0.6697 C.ar    1  UNL1       -0.0056
     24 C          -4.3533   -2.8311    0.9537 C.ar    1  UNL1        0.1210
     25 O          -3.7336   -3.7938    1.7277 O.3     1  UNL1       -0.4951
     26 C          -4.3662   -5.0140    2.0492 C.3     1  UNL1        0.0788
     27 C          -5.6263   -3.0523    0.4736 C.ar    1  UNL1       -0.0165
     28 C          -6.2111   -2.0805   -0.2891 C.ar    1  UNL1       -0.0160
     29 C          -5.5334   -0.9194   -0.5610 C.ar    1  UNL1        0.1279
     30 O          -6.1632    0.0674   -1.3523 O.3     1  UNL1       -0.5061
     31 C          -1.1842    0.0971   -0.3153 C.ar    1  UNL1        0.0255
     32 N           0.1201    0.4593   -0.1390 N.ar    1  UNL1       -0.2661
     33 C           1.0940   -0.4383   -0.2948 C.ar    1  UNL1        0.2669
     34 O           0.7279   -1.6008   -0.6056 O.2     1  UNL1       -0.2665
     35 C           2.4642   -0.1200   -0.1259 C.ar    1  UNL1        0.0762
     36 C           3.5405   -0.9253   -0.2573 C.ar    1  UNL1       -0.0149
     37 C           3.4735   -2.4087   -0.6131 C.3     1  UNL1       -0.0376
     38 H           9.1579   -3.4431    0.8664 H       1  UNL1        0.0262
     39 H           7.6140   -2.9854    1.6455 H       1  UNL1        0.0262
     40 H           8.7192   -1.6929    0.9856 H       1  UNL1        0.0262
     41 H           7.4612   -3.9189   -0.7056 H       1  UNL1        0.0695
     42 H           8.2347   -2.3789   -1.2987 H       1  UNL1        0.0695
     43 H           0.9578    5.0479   -1.2740 H       1  UNL1        0.0385
     44 H           0.4116    6.3783   -0.2407 H       1  UNL1        0.0385
     45 H          -1.5326    4.5850   -1.7375 H       1  UNL1        0.0386
     46 H          -0.9670    6.2399   -2.2822 H       1  UNL1        0.0386
     47 H          -4.0795    7.0774   -0.4488 H       1  UNL1        0.2951
     48 H          -2.7259    2.9988    0.2941 H       1  UNL1        0.0637
     49 H          -2.7045   -1.5389    1.0966 H       1  UNL1        0.0662
     50 H          -3.7060   -5.6043    2.7157 H       1  UNL1        0.0660
     51 H          -4.4665   -5.5852    1.0985 H       1  UNL1        0.0660
     52 H          -5.3925   -4.8822    2.4431 H       1  UNL1        0.0660
     53 H          -6.1262   -3.9955    0.7173 H       1  UNL1        0.0655
     54 H          -7.2002   -2.2369   -0.6696 H       1  UNL1        0.0655
     55 H          -7.0184    0.4693   -0.9636 H       1  UNL1        0.2922
     56 H          -1.3710   -0.9258   -0.6074 H       1  UNL1        0.0821
     57 H           3.7925   -2.5311   -1.6624 H       1  UNL1        0.0278
     58 H           4.1960   -2.9247    0.0949 H       1  UNL1        0.0278
     59 H           2.5143   -2.8589   -0.3905 H       1  UNL1        0.0278
@<TRIPOS>BOND
     1     1     2    1
     2     2     3    1
     3     3     4    1
     4     4     5    2
     5     4     6    1
     6     6     7   ar
     7     7     8   ar
     8     8     9   ar
     9     9    10   ar
    10    10    11   ar
    11    11    12    1
    12    12    13    1
    13    13    14    1
    14    14    15    1
    15    15    16    2
    16    15    17    1
    17    11    18   ar
    18    18    19   ar
    19    19    20    1
    20    20    21    2
    21    20    22    1
    22    22    23   ar
    23    23    24   ar
    24    24    25    1
    25    25    26    1
    26    24    27   ar
    27    27    28   ar
    28    28    29   ar
    29    29    30    1
    30    19    31   ar
    31    31    32   ar
    32    32    33   ar
    33    33    34    2
    34    33    35   ar
    35    35    36   ar
    36    36    37    1
    37    36     6   ar
    38    35     8   ar
    39    32    10   ar
    40    29    22   ar
    41     1    38    1
    42     1    39    1
    43     1    40    1
    44     2    41    1
    45     2    42    1
    46    13    43    1
    47    13    44    1
    48    14    45    1
    49    14    46    1
    50    17    47    1
    51    18    48    1
    52    23    49    1
    53    26    50    1
    54    26    51    1
    55    26    52    1
    56    27    53    1
    57    28    54    1
    58    30    55    1
    59    31    56    1
    60    37    57    1
    61    37    58    1
    62    37    59    1
