@<TRIPOS>MOLECULE
*****
 73 77 0 0 0
SMALL
GASTEIGER

@<TRIPOS>ATOM
      1 C           8.7540   -1.0963   -2.7150 C.3     1  UNL1       -0.0306
      2 C           9.4431   -0.0836   -1.8044 C.3     1  UNL1        0.0885
      3 O           8.4265    0.5768   -1.0766 O.3     1  UNL1       -0.4744
      4 C           7.6081   -0.2108   -0.2636 C.ar    1  UNL1        0.2555
      5 N           7.6708   -1.5401   -0.0860 N.ar    1  UNL1       -0.1317
      6 N           6.7454   -1.9672    0.7536 N.ar    1  UNL1       -0.2692
      7 C           6.5294   -3.3602    1.1719 C.3     1  UNL1        0.0304
      8 C           6.0346   -0.8835    1.1548 C.ar    1  UNL1        0.0503
      9 C           6.5594    0.2234    0.5295 C.ar    1  UNL1        0.1152
     10 N           6.0966    1.5458    0.6813 N.pl3   1  UNL1       -0.2782
     11 C           5.0141    1.8380    1.5326 C.ar    1  UNL1        0.2203
     12 N           5.2883    2.1517    2.8059 N.ar    1  UNL1       -0.2198
     13 C           4.3314    2.4473    3.6969 C.ar    1  UNL1        0.0685
     14 C           3.0002    2.4206    3.2573 C.ar    1  UNL1        0.1674
     15 F           2.0137    2.7126    4.1258 F       1  UNL1       -0.2016
     16 C           2.6893    2.1011    1.9532 C.ar    1  UNL1        0.1132
     17 C           1.3296    2.0513    1.4333 C.ar    1  UNL1        0.0284
     18 C           0.1420    2.2971    2.0554 C.ar    1  UNL1        0.0121
     19 N          -0.8782    2.1256    1.1667 N.ar    1  UNL1       -0.3586
     20 C          -0.3852    1.7684   -0.0403 C.ar    1  UNL1        0.0686
     21 C          -1.0102    1.4857   -1.2377 C.ar    1  UNL1        0.0576
     22 N          -2.4208    1.5372   -1.4025 N.am    1  UNL1       -0.2825
     23 C          -3.2802    0.4334   -1.1759 C.2     1  UNL1        0.2342
     24 O          -2.7580   -0.6449   -0.8096 O.2     1  UNL1       -0.2738
     25 C          -4.7248    0.5172   -1.3534 C.3     1  UNL1        0.0848
     26 C          -5.0154    0.8438   -2.8019 C.3     1  UNL1       -0.0409
     27 N          -5.4490   -0.6704   -1.0113 N.3     1  UNL1       -0.2890
     28 C          -6.8654   -0.5377   -1.2464 C.3     1  UNL1        0.0124
     29 C          -7.4699    0.0949   -0.0116 C.3     1  UNL1        0.0117
     30 N          -7.4133   -0.8635    1.0383 N.3     1  UNL1       -0.3002
     31 C          -8.6378   -1.5553    1.2636 C.3     1  UNL1       -0.0124
     32 C          -6.2166   -1.6061    1.1600 C.3     1  UNL1        0.0201
     33 C          -6.5482   -3.0885    1.0925 C.3     1  UNL1       -0.0483
     34 C          -5.1102   -1.2432    0.2451 C.3     1  UNL1        0.0150
     35 C          -0.2170    1.1437   -2.3080 C.ar    1  UNL1       -0.0384
     36 C           1.1472    1.0802   -2.2101 C.ar    1  UNL1       -0.0593
     37 C           1.7374    1.3703   -0.9933 C.ar    1  UNL1       -0.0518
     38 C           0.9936    1.7204    0.1200 C.ar    1  UNL1        0.0107
     39 N           3.7342    1.8246    1.1572 N.ar    1  UNL1       -0.2113
     40 H           8.9264   -2.1438   -2.3528 H       1  UNL1        0.0262
     41 H           9.2202   -1.0412   -3.7197 H       1  UNL1        0.0262
     42 H           7.6675   -0.9455   -2.7353 H       1  UNL1        0.0262
     43 H           9.9944    0.6830   -2.3767 H       1  UNL1        0.0694
     44 H          10.1743   -0.5879   -1.1365 H       1  UNL1        0.0694
     45 H           7.0395   -3.5334    2.1387 H       1  UNL1        0.0473
     46 H           5.4341   -3.4859    1.3925 H       1  UNL1        0.0473
     47 H           6.8873   -4.0148    0.3759 H       1  UNL1        0.0473
     48 H           5.2097   -0.9572    1.8504 H       1  UNL1        0.0846
     49 H           6.5711    2.3062    0.1507 H       1  UNL1        0.1552
     50 H           4.5507    2.7020    4.7281 H       1  UNL1        0.0861
     51 H           0.0377    2.5831    3.0951 H       1  UNL1        0.0814
     52 H          -1.8772    2.2517    1.3882 H       1  UNL1        0.1654
     53 H          -2.8650    2.4421   -1.7104 H       1  UNL1        0.1549
     54 H          -5.1878    1.3554   -0.7550 H       1  UNL1        0.0556
     55 H          -5.7889    1.6407   -2.9081 H       1  UNL1        0.0249
     56 H          -5.3123   -0.1029   -3.3012 H       1  UNL1        0.0249
     57 H          -4.0655    1.1489   -3.3326 H       1  UNL1        0.0249
     58 H          -6.9618    0.1657   -2.1254 H       1  UNL1        0.0439
     59 H          -7.2840   -1.5193   -1.4580 H       1  UNL1        0.0439
     60 H          -6.9387    1.0275    0.2438 H       1  UNL1        0.0439
     61 H          -8.5359    0.2929   -0.2448 H       1  UNL1        0.0439
     62 H          -9.4642   -0.7993    1.1202 H       1  UNL1        0.0391
     63 H          -8.7333   -1.8486    2.3486 H       1  UNL1        0.0391
     64 H          -8.8606   -2.3742    0.5760 H       1  UNL1        0.0391
     65 H          -5.8578   -1.4582    2.2245 H       1  UNL1        0.0472
     66 H          -7.1703   -3.4178    1.9377 H       1  UNL1        0.0245
     67 H          -7.0853   -3.2813    0.1434 H       1  UNL1        0.0245
     68 H          -5.6183   -3.7084    1.0509 H       1  UNL1        0.0245
     69 H          -4.4486   -0.4910    0.7707 H       1  UNL1        0.0442
     70 H          -4.4642   -2.1286    0.0727 H       1  UNL1        0.0442
     71 H          -0.6609    0.9067   -3.2922 H       1  UNL1        0.0637
     72 H           1.7581    0.8044   -3.0839 H       1  UNL1        0.0618
     73 H           2.8210    1.3173   -0.9230 H       1  UNL1        0.0624
@<TRIPOS>BOND
     1     1     2    1
     2     2     3    1
     3     3     4    1
     4     4     5   ar
     5     5     6   ar
     6     6     7    1
     7     6     8   ar
     8     8     9   ar
     9     9    10    1
    10    10    11    1
    11    11    12   ar
    12    12    13   ar
    13    13    14   ar
    14    14    15    1
    15    14    16   ar
    16    16    17    1
    17    17    18   ar
    18    18    19   ar
    19    19    20   ar
    20    20    21   ar
    21    21    22    1
    22    22    23   am
    23    23    24    2
    24    23    25    1
    25    25    26    1
    26    25    27    1
    27    27    28    1
    28    28    29    1
    29    29    30    1
    30    30    31    1
    31    30    32    1
    32    32    33    1
    33    32    34    1
    34    21    35   ar
    35    35    36   ar
    36    36    37   ar
    37    37    38   ar
    38    16    39   ar
    39     9     4   ar
    40    39    11   ar
    41    38    17   ar
    42    38    20   ar
    43    34    27    1
    44     1    40    1
    45     1    41    1
    46     1    42    1
    47     2    43    1
    48     2    44    1
    49     7    45    1
    50     7    46    1
    51     7    47    1
    52     8    48    1
    53    10    49    1
    54    13    50    1
    55    18    51    1
    56    19    52    1
    57    22    53    1
    58    25    54    1
    59    26    55    1
    60    26    56    1
    61    26    57    1
    62    28    58    1
    63    28    59    1
    64    29    60    1
    65    29    61    1
    66    31    62    1
    67    31    63    1
    68    31    64    1
    69    32    65    1
    70    33    66    1
    71    33    67    1
    72    33    68    1
    73    34    69    1
    74    34    70    1
    75    35    71    1
    76    36    72    1
    77    37    73    1
