@<TRIPOS>MOLECULE
*****
 31 32 0 0 0
SMALL
GASTEIGER

@<TRIPOS>ATOM
      1 C          -1.3038   -1.6930   -0.5377 C.3     1  UNL1        0.0067
      2 C          -1.3349   -0.1573   -0.4294 C.3     1  UNL1        0.2351
      3 C          -1.1290    0.3559   -1.8434 C.3     1  UNL1        0.0067
      4 N          -2.6159    0.1779    0.0864 N.2     1  UNL1       -0.0704
      5 C          -2.7866    0.7481    1.2166 C.cat   1  UNL1        0.4197
      6 N          -4.1120    1.0616    1.6829 N.pl3   1  UNL1       -0.2468
      7 N          -1.7091    1.1023    2.0671 N.2     1  UNL1       -0.0088
      8 C          -0.5311    0.8422    1.6897 C.cat   1  UNL1        0.3829
      9 N           0.6180    1.1748    2.5059 N.pl3   1  UNL1       -0.2507
     10 N          -0.2741    0.2104    0.4461 N.pl3   1  UNL1       -0.1537
     11 C           1.1023   -0.0495    0.0939 C.ar    1  UNL1        0.0981
     12 C           1.8083    0.8904   -0.5952 C.ar    1  UNL1       -0.0235
     13 C           3.1470    0.6442   -0.9409 C.ar    1  UNL1       -0.0403
     14 C           3.7416   -0.5582   -0.5766 C.ar    1  UNL1        0.0412
     15 CL          5.4288   -0.8285   -1.0313 Cl      1  UNL1       -0.0835
     16 C           3.0227   -1.4957    0.1159 C.ar    1  UNL1       -0.0403
     17 C           1.7010   -1.2280    0.4456 C.ar    1  UNL1       -0.0235
     18 H          -0.3668   -2.0485   -0.9795 H       1  UNL1        0.0299
     19 H          -1.4962   -2.1239    0.4857 H       1  UNL1        0.0299
     20 H          -2.1384   -2.0507   -1.1762 H       1  UNL1        0.0299
     21 H          -1.7448   -0.2538   -2.5302 H       1  UNL1        0.0299
     22 H          -0.0841    0.2547   -2.1546 H       1  UNL1        0.0299
     23 H          -1.5232    1.3916   -1.9026 H       1  UNL1        0.0299
     24 H          -4.5978    0.3184    2.2477 H       1  UNL1        0.2415
     25 H          -4.5803    1.9580    1.4871 H       1  UNL1        0.2415
     26 H           1.1649    2.0307    2.4153 H       1  UNL1        0.2412
     27 H           0.8773    0.4702    3.2255 H       1  UNL1        0.2412
     28 H           1.4001    1.8507   -0.9092 H       1  UNL1        0.0651
     29 H           3.7297    1.3697   -1.4860 H       1  UNL1        0.0633
     30 H           3.4747   -2.4160    0.3958 H       1  UNL1        0.0633
     31 H           1.1117   -1.9488    0.9906 H       1  UNL1        0.0651
@<TRIPOS>BOND
     1     1     2    1
     2     2     3    1
     3     2     4    1
     4     4     5    2
     5     5     6    1
     6     5     7    1
     7     7     8    2
     8     8     9    1
     9     8    10    1
    10    10    11    1
    11    11    12   ar
    12    12    13   ar
    13    13    14   ar
    14    14    15    1
    15    14    16   ar
    16    16    17   ar
    17    10     2    1
    18    17    11   ar
    19     1    18    1
    20     1    19    1
    21     1    20    1
    22     3    21    1
    23     3    22    1
    24     3    23    1
    25     6    24    1
    26     6    25    1
    27     9    26    1
    28     9    27    1
    29    12    28    1
    30    13    29    1
    31    16    30    1
    32    17    31    1
