
     RDKit          3D

 50 54  0  0  0  0  0  0  0  0999 V2000
    0.1698    5.3376   -0.2081 N   0  0  0  0  0  0  0  0  0  0  0  0
   -1.0945    4.9028    0.2310 C   0  0  0  0  0  0  0  0  0  0  0  0
   -2.0106    5.7494    0.4976 O   0  0  0  0  0  0  0  0  0  0  0  0
   -1.3893    3.5026    0.3911 C   0  0  0  0  0  0  0  0  0  0  0  0
   -2.6399    3.0927    0.8176 C   0  0  0  0  0  0  0  0  0  0  0  0
   -2.9427    1.8111    0.9751 N   0  0  0  0  0  0  0  0  0  0  0  0
   -2.0423    0.8235    0.7270 C   0  0  0  0  0  0  0  0  0  0  0  0
   -2.4183   -0.5133    0.9664 N   0  0  0  0  0  0  0  0  0  0  0  0
   -3.8088   -0.8252    1.3989 C   0  0  2  0  0  0  0  0  0  0  0  0
   -3.8202   -2.2166    1.9979 C   0  0  0  0  0  0  0  0  0  0  0  0
   -5.1408   -2.7461    2.5138 C   0  0  0  0  0  0  0  0  0  0  0  0
   -4.4399   -3.3605    1.3168 C   0  0  0  0  0  0  0  0  0  0  0  0
   -4.6354   -0.7726    0.1426 C   0  0  0  0  0  0  0  0  0  0  0  0
   -4.5533    0.4755   -0.4060 F   0  0  0  0  0  0  0  0  0  0  0  0
   -4.0807   -1.6388   -0.7987 F   0  0  0  0  0  0  0  0  0  0  0  0
   -5.9608   -1.0481    0.3624 F   0  0  0  0  0  0  0  0  0  0  0  0
   -0.7962    1.1827    0.3034 C   0  0  0  0  0  0  0  0  0  0  0  0
   -0.4500    2.5389    0.1286 C   0  0  0  0  0  0  0  0  0  0  0  0
    0.8236    2.5889   -0.2933 N   0  0  0  0  0  0  0  0  0  0  0  0
    1.3069    1.3442   -0.3978 C   0  0  0  0  0  0  0  0  0  0  0  0
    2.5529    0.8567   -0.7909 C   0  0  0  0  0  0  0  0  0  0  0  0
    2.8743   -0.4767   -0.8424 C   0  0  0  0  0  0  0  0  0  0  0  0
    4.1906   -0.9361   -1.2619 C   0  0  0  0  0  0  0  0  0  0  0  0
    4.9504   -0.2584   -2.1915 C   0  0  0  0  0  0  0  0  0  0  0  0
    6.1762   -0.6867   -2.5827 N   0  0  0  0  0  0  0  0  0  0  0  0
    6.6736   -1.8216   -2.0414 C   0  0  0  0  0  0  0  0  0  0  0  0
    7.9549   -2.2845   -2.4400 N   0  0  0  0  0  0  0  0  0  0  0  0
    5.9509   -2.4976   -1.1345 N   0  0  0  0  0  0  0  0  0  0  0  0
    4.7324   -2.0894   -0.7327 C   0  0  0  0  0  0  0  0  0  0  0  0
    1.8767   -1.3461   -0.4757 C   0  0  0  0  0  0  0  0  0  0  0  0
    0.6248   -0.9259   -0.0777 C   0  0  0  0  0  0  0  0  0  0  0  0
    0.3408    0.4146   -0.0384 C   0  0  0  0  0  0  0  0  0  0  0  0
    0.3550    5.4588   -1.2153 H   0  0  0  0  0  0  0  0  0  0  0  0
    0.9074    5.5361    0.4945 H   0  0  0  0  0  0  0  0  0  0  0  0
   -3.3706    3.8909    1.0192 H   0  0  0  0  0  0  0  0  0  0  0  0
   -1.8374   -1.3407    0.8861 H   0  0  0  0  0  0  0  0  0  0  0  0
   -4.0891   -0.0634    2.1154 H   0  0  0  0  0  0  0  0  0  0  0  0
   -2.9613   -2.4427    2.6630 H   0  0  0  0  0  0  0  0  0  0  0  0
   -6.0411   -2.1450    2.3749 H   0  0  0  0  0  0  0  0  0  0  0  0
   -5.1413   -3.3973    3.4121 H   0  0  0  0  0  0  0  0  0  0  0  0
   -3.9577   -4.3733    1.4570 H   0  0  0  0  0  0  0  0  0  0  0  0
   -5.0397   -3.3232    0.4102 H   0  0  0  0  0  0  0  0  0  0  0  0
    1.3926    3.4330   -0.5177 H   0  0  0  0  0  0  0  0  0  0  0  0
    3.3059    1.5886   -1.0712 H   0  0  0  0  0  0  0  0  0  0  0  0
    4.5298    0.6373   -2.6026 H   0  0  0  0  0  0  0  0  0  0  0  0
    8.1480   -3.3078   -2.4740 H   0  0  0  0  0  0  0  0  0  0  0  0
    8.6904   -1.6078   -2.6948 H   0  0  0  0  0  0  0  0  0  0  0  0
    4.1402   -2.6347    0.0040 H   0  0  0  0  0  0  0  0  0  0  0  0
    2.0813   -2.4291   -0.4989 H   0  0  0  0  0  0  0  0  0  0  0  0
   -0.0874   -1.6567    0.1816 H   0  0  0  0  0  0  0  0  0  0  0  0
  1  2  1  0
  2  3  2  0
  2  4  1  0
  4  5  2  0
  5  6  1  0
  6  7  2  0
  7  8  1  0
  8  9  1  0
  9 10  1  0
 10 11  1  0
 11 12  1  0
  9 13  1  0
 13 14  1  0
 13 15  1  0
 13 16  1  0
  7 17  1  0
 17 18  2  0
 18 19  1  0
 19 20  1  0
 20 21  2  0
 21 22  1  0
 22 23  1  0
 23 24  2  0
 24 25  1  0
 25 26  2  0
 26 27  1  0
 26 28  1  0
 28 29  2  0
 22 30  2  0
 30 31  1  0
 31 32  2  0
 18  4  1  0
 32 20  1  0
 12 10  1  0
 32 17  1  0
 29 23  1  0
  1 33  1  0
  1 34  1  0
  5 35  1  0
  8 36  1  0
  9 37  1  1
 10 38  1  0
 11 39  1  0
 11 40  1  0
 12 41  1  0
 12 42  1  0
 19 43  1  0
 21 44  1  0
 24 45  1  0
 27 46  1  0
 27 47  1  0
 29 48  1  0
 30 49  1  0
 31 50  1  0
M  END
$$$$
