@<TRIPOS>MOLECULE
*****
 50 54 0 0 0
SMALL
GASTEIGER

@<TRIPOS>ATOM
      1 N           0.1698    5.3376   -0.2081 N.am    1  UNL1       -0.3252
      2 C          -1.0945    4.9028    0.2310 C.2     1  UNL1        0.2450
      3 O          -2.0106    5.7494    0.4976 O.2     1  UNL1       -0.2703
      4 C          -1.3893    3.5026    0.3911 C.ar    1  UNL1        0.0785
      5 C          -2.6399    3.0927    0.8176 C.ar    1  UNL1        0.0438
      6 N          -2.9427    1.8111    0.9751 N.ar    1  UNL1       -0.2390
      7 C          -2.0423    0.8235    0.7270 C.ar    1  UNL1        0.1290
      8 N          -2.4183   -0.5133    0.9664 N.pl3   1  UNL1       -0.3174
      9 C          -3.8088   -0.8252    1.3989 C.3     1  UNL1        0.1201
     10 C          -3.8202   -2.2166    1.9979 C.3     1  UNL1       -0.0142
     11 C          -5.1408   -2.7461    2.5138 C.3     1  UNL1       -0.0479
     12 C          -4.4399   -3.3605    1.3168 C.3     1  UNL1       -0.0479
     13 C          -4.6354   -0.7726    0.1426 C.3     1  UNL1        0.4080
     14 F          -4.5533    0.4755   -0.4060 F       1  UNL1       -0.1686
     15 F          -4.0807   -1.6388   -0.7987 F       1  UNL1       -0.1686
     16 F          -5.9608   -1.0481    0.3624 F       1  UNL1       -0.1686
     17 C          -0.7962    1.1827    0.3034 C.ar    1  UNL1        0.0478
     18 C          -0.4500    2.5389    0.1286 C.ar    1  UNL1        0.0645
     19 N           0.8236    2.5889   -0.2933 N.ar    1  UNL1       -0.3534
     20 C           1.3069    1.3442   -0.3978 C.ar    1  UNL1        0.0482
     21 C           2.5529    0.8567   -0.7909 C.ar    1  UNL1       -0.0300
     22 C           2.8743   -0.4767   -0.8424 C.ar    1  UNL1       -0.0130
     23 C           4.1906   -0.9361   -1.2619 C.ar    1  UNL1        0.0185
     24 C           4.9504   -0.2584   -2.1915 C.ar    1  UNL1        0.0403
     25 N           6.1762   -0.6867   -2.5827 N.ar    1  UNL1       -0.2225
     26 C           6.6736   -1.8216   -2.0414 C.ar    1  UNL1        0.2125
     27 N           7.9549   -2.2845   -2.4400 N.pl3   1  UNL1       -0.3275
     28 N           5.9509   -2.4976   -1.1345 N.ar    1  UNL1       -0.2225
     29 C           4.7324   -2.0894   -0.7327 C.ar    1  UNL1        0.0403
     30 C           1.8767   -1.3461   -0.4757 C.ar    1  UNL1       -0.0532
     31 C           0.6248   -0.9259   -0.0777 C.ar    1  UNL1       -0.0513
     32 C           0.3408    0.4146   -0.0384 C.ar    1  UNL1        0.0107
     33 H           0.3550    5.4588   -1.2153 H       1  UNL1        0.1453
     34 H           0.9074    5.5361    0.4945 H       1  UNL1        0.1453
     35 H          -3.3706    3.8909    1.0192 H       1  UNL1        0.0838
     36 H          -1.8374   -1.3407    0.8861 H       1  UNL1        0.1481
     37 H          -4.0891   -0.0634    2.1154 H       1  UNL1        0.0590
     38 H          -2.9613   -2.4427    2.6630 H       1  UNL1        0.0321
     39 H          -6.0411   -2.1450    2.3749 H       1  UNL1        0.0269
     40 H          -5.1413   -3.3973    3.4121 H       1  UNL1        0.0269
     41 H          -3.9577   -4.3733    1.4570 H       1  UNL1        0.0269
     42 H          -5.0397   -3.3232    0.4102 H       1  UNL1        0.0269
     43 H           1.3926    3.4330   -0.5177 H       1  UNL1        0.1659
     44 H           3.3059    1.5886   -1.0712 H       1  UNL1        0.0644
     45 H           4.5298    0.6373   -2.6026 H       1  UNL1        0.0837
     46 H           8.1480   -3.3078   -2.4740 H       1  UNL1        0.1452
     47 H           8.6904   -1.6078   -2.6948 H       1  UNL1        0.1452
     48 H           4.1402   -2.6347    0.0040 H       1  UNL1        0.0837
     49 H           2.0813   -2.4291   -0.4989 H       1  UNL1        0.0624
     50 H          -0.0874   -1.6567    0.1816 H       1  UNL1        0.0624
@<TRIPOS>BOND
     1     1     2   am
     2     2     3    2
     3     2     4    1
     4     4     5   ar
     5     5     6   ar
     6     6     7   ar
     7     7     8    1
     8     8     9    1
     9     9    10    1
    10    10    11    1
    11    11    12    1
    12     9    13    1
    13    13    14    1
    14    13    15    1
    15    13    16    1
    16     7    17   ar
    17    17    18   ar
    18    18    19   ar
    19    19    20   ar
    20    20    21   ar
    21    21    22   ar
    22    22    23    1
    23    23    24   ar
    24    24    25   ar
    25    25    26   ar
    26    26    27    1
    27    26    28   ar
    28    28    29   ar
    29    22    30   ar
    30    30    31   ar
    31    31    32   ar
    32    18     4   ar
    33    32    20   ar
    34    12    10    1
    35    32    17   ar
    36    29    23   ar
    37     1    33    1
    38     1    34    1
    39     5    35    1
    40     8    36    1
    41     9    37    1
    42    10    38    1
    43    11    39    1
    44    11    40    1
    45    12    41    1
    46    12    42    1
    47    19    43    1
    48    21    44    1
    49    24    45    1
    50    27    46    1
    51    27    47    1
    52    29    48    1
    53    30    49    1
    54    31    50    1
