@<TRIPOS>MOLECULE
*****
 60 63 0 0 0
SMALL
GASTEIGER

@<TRIPOS>ATOM
      1 C          -2.8888    2.4482   -0.4613 C.3     1  UNL1        0.0699
      2 N          -3.7550    1.2941   -0.3589 N.pl3   1  UNL1       -0.2192
      3 C          -3.5921    0.0468   -1.0233 C.3     1  UNL1        0.1056
      4 C          -2.3056   -0.6441   -0.7423 C.ar    1  UNL1       -0.0081
      5 C          -2.1352   -1.4673    0.3502 C.ar    1  UNL1       -0.0543
      6 C          -0.9303   -2.1188    0.5807 C.ar    1  UNL1       -0.0492
      7 C           0.1491   -1.9720   -0.2747 C.ar    1  UNL1        0.0370
      8 C           1.3714   -2.6959    0.0479 C.2     1  UNL1        0.2483
      9 O           1.4838   -3.3508    1.1247 O.2     1  UNL1       -0.2699
     10 N           2.5139   -2.7290   -0.8008 N.am    1  UNL1       -0.2808
     11 C           3.6953   -3.4195   -0.5078 C.ar    1  UNL1        0.0459
     12 C           3.8857   -4.7261   -0.8435 C.ar    1  UNL1       -0.0384
     13 C           5.0706   -5.3954   -0.5503 C.ar    1  UNL1       -0.0416
     14 C           6.1027   -4.7544    0.0950 C.ar    1  UNL1        0.0418
     15 CL          7.6143   -5.5433    0.4884 Cl      1  UNL1       -0.0835
     16 C           5.9053   -3.4199    0.4367 C.ar    1  UNL1       -0.0295
     17 C           4.7354   -2.7499    0.1508 C.ar    1  UNL1        0.0596
     18 C           4.4884   -1.3581    0.4851 C.2     1  UNL1        0.2511
     19 O           3.4129   -0.7701    0.2102 O.2     1  UNL1       -0.2697
     20 N           5.5031   -0.6144    1.1537 N.am    1  UNL1       -0.2663
     21 C           5.2734    0.7650    1.4873 C.ar    1  UNL1        0.1252
     22 C           6.2453    1.4857    2.1373 C.ar    1  UNL1       -0.0201
     23 C           6.0627    2.8248    2.4706 C.ar    1  UNL1       -0.0387
     24 C           4.8552    3.3832    2.1124 C.ar    1  UNL1        0.0592
     25 CL          4.4555    5.0615    2.4534 Cl      1  UNL1       -0.0820
     26 C           3.9066    2.6411    1.4661 C.ar    1  UNL1        0.0480
     27 N           4.1250    1.3481    1.1628 N.ar    1  UNL1       -0.2387
     28 C          -0.0138   -1.1589   -1.3569 C.ar    1  UNL1       -0.0492
     29 C          -1.2238   -0.5000   -1.5932 C.ar    1  UNL1       -0.0543
     30 C          -4.8894    1.4586    0.5133 C.2     1  UNL1        0.3123
     31 N          -4.8316    0.9491    1.6772 N.2     1  UNL1       -0.0992
     32 C          -6.0434    2.1799    0.0328 C.ar    1  UNL1        0.0650
     33 C          -6.9651    2.6986    0.9125 C.ar    1  UNL1       -0.0469
     34 C          -8.0641    3.3925    0.4334 C.ar    1  UNL1       -0.0610
     35 C          -8.2361    3.5645   -0.9298 C.ar    1  UNL1       -0.0617
     36 C          -7.3161    3.0480   -1.8257 C.ar    1  UNL1       -0.0610
     37 C          -6.2198    2.3547   -1.3303 C.ar    1  UNL1       -0.0469
     38 H          -3.4963    3.3316   -0.6927 H       1  UNL1        0.0689
     39 H          -2.0971    2.3029   -1.1947 H       1  UNL1        0.0689
     40 H          -2.4465    2.6028    0.5484 H       1  UNL1        0.0689
     41 H          -4.4658   -0.5981   -0.8075 H       1  UNL1        0.0778
     42 H          -3.6584    0.2422   -2.1244 H       1  UNL1        0.0778
     43 H          -2.9832   -1.5743    1.0140 H       1  UNL1        0.0622
     44 H          -0.8314   -2.7487    1.4346 H       1  UNL1        0.0625
     45 H           2.4333   -2.1936   -1.6962 H       1  UNL1        0.1552
     46 H           3.0607   -5.2270   -1.3576 H       1  UNL1        0.0637
     47 H           5.1734   -6.4282   -0.8362 H       1  UNL1        0.0633
     48 H           6.7105   -2.9207    0.9377 H       1  UNL1        0.0640
     49 H           6.4195   -1.0215    1.4174 H       1  UNL1        0.1566
     50 H           7.1979    1.0624    2.4244 H       1  UNL1        0.0652
     51 H           6.7823    3.4214    2.9717 H       1  UNL1        0.0634
     52 H           2.9665    3.0580    1.1823 H       1  UNL1        0.0845
     53 H           0.8048   -1.0289   -2.0368 H       1  UNL1        0.0625
     54 H          -1.3510    0.1381   -2.4439 H       1  UNL1        0.0622
     55 H          -4.0050    0.4236    2.0220 H       1  UNL1        0.3633
     56 H          -6.7884    2.5392    1.9846 H       1  UNL1        0.0626
     57 H          -8.7714    3.7889    1.1249 H       1  UNL1        0.0618
     58 H          -9.1186    4.1180   -1.2468 H       1  UNL1        0.0618
     59 H          -7.4644    3.1947   -2.8975 H       1  UNL1        0.0618
     60 H          -5.5167    1.9608   -2.0467 H       1  UNL1        0.0626
@<TRIPOS>BOND
     1     1     2    1
     2     2     3    1
     3     3     4    1
     4     4     5   ar
     5     5     6   ar
     6     6     7   ar
     7     7     8    1
     8     8     9    2
     9     8    10   am
    10    10    11    1
    11    11    12   ar
    12    12    13   ar
    13    13    14   ar
    14    14    15    1
    15    14    16   ar
    16    16    17   ar
    17    17    18    1
    18    18    19    2
    19    18    20   am
    20    20    21    1
    21    21    22   ar
    22    22    23   ar
    23    23    24   ar
    24    24    25    1
    25    24    26   ar
    26    26    27   ar
    27     7    28   ar
    28    28    29   ar
    29     2    30    1
    30    30    31    2
    31    30    32    1
    32    32    33   ar
    33    33    34   ar
    34    34    35   ar
    35    35    36   ar
    36    36    37   ar
    37    29     4   ar
    38    37    32   ar
    39    17    11   ar
    40    27    21   ar
    41     1    38    1
    42     1    39    1
    43     1    40    1
    44     3    41    1
    45     3    42    1
    46     5    43    1
    47     6    44    1
    48    10    45    1
    49    12    46    1
    50    13    47    1
    51    16    48    1
    52    20    49    1
    53    22    50    1
    54    23    51    1
    55    26    52    1
    56    28    53    1
    57    29    54    1
    58    31    55    1
    59    33    56    1
    60    34    57    1
    61    35    58    1
    62    36    59    1
    63    37    60    1
