
     RDKit          3D

 60 63  0  0  0  0  0  0  0  0999 V2000
   -2.8888    2.4482   -0.4613 C   0  0  0  0  0  0  0  0  0  0  0  0
   -3.7550    1.2941   -0.3589 N   0  0  0  0  0  0  0  0  0  0  0  0
   -3.5921    0.0468   -1.0233 C   0  0  0  0  0  0  0  0  0  0  0  0
   -2.3056   -0.6441   -0.7423 C   0  0  0  0  0  0  0  0  0  0  0  0
   -2.1352   -1.4673    0.3502 C   0  0  0  0  0  0  0  0  0  0  0  0
   -0.9303   -2.1188    0.5807 C   0  0  0  0  0  0  0  0  0  0  0  0
    0.1491   -1.9720   -0.2747 C   0  0  0  0  0  0  0  0  0  0  0  0
    1.3714   -2.6959    0.0479 C   0  0  0  0  0  0  0  0  0  0  0  0
    1.4838   -3.3508    1.1247 O   0  0  0  0  0  0  0  0  0  0  0  0
    2.5139   -2.7290   -0.8008 N   0  0  0  0  0  0  0  0  0  0  0  0
    3.6953   -3.4195   -0.5078 C   0  0  0  0  0  0  0  0  0  0  0  0
    3.8857   -4.7261   -0.8435 C   0  0  0  0  0  0  0  0  0  0  0  0
    5.0706   -5.3954   -0.5503 C   0  0  0  0  0  0  0  0  0  0  0  0
    6.1027   -4.7544    0.0950 C   0  0  0  0  0  0  0  0  0  0  0  0
    7.6143   -5.5433    0.4884 Cl  0  0  0  0  0  0  0  0  0  0  0  0
    5.9053   -3.4199    0.4367 C   0  0  0  0  0  0  0  0  0  0  0  0
    4.7354   -2.7499    0.1508 C   0  0  0  0  0  0  0  0  0  0  0  0
    4.4884   -1.3581    0.4851 C   0  0  0  0  0  0  0  0  0  0  0  0
    3.4129   -0.7701    0.2102 O   0  0  0  0  0  0  0  0  0  0  0  0
    5.5031   -0.6144    1.1537 N   0  0  0  0  0  0  0  0  0  0  0  0
    5.2734    0.7650    1.4873 C   0  0  0  0  0  0  0  0  0  0  0  0
    6.2453    1.4857    2.1373 C   0  0  0  0  0  0  0  0  0  0  0  0
    6.0627    2.8248    2.4706 C   0  0  0  0  0  0  0  0  0  0  0  0
    4.8552    3.3832    2.1124 C   0  0  0  0  0  0  0  0  0  0  0  0
    4.4555    5.0615    2.4534 Cl  0  0  0  0  0  0  0  0  0  0  0  0
    3.9066    2.6411    1.4661 C   0  0  0  0  0  0  0  0  0  0  0  0
    4.1250    1.3481    1.1628 N   0  0  0  0  0  0  0  0  0  0  0  0
   -0.0138   -1.1589   -1.3569 C   0  0  0  0  0  0  0  0  0  0  0  0
   -1.2238   -0.5000   -1.5932 C   0  0  0  0  0  0  0  0  0  0  0  0
   -4.8894    1.4586    0.5133 C   0  0  0  0  0  0  0  0  0  0  0  0
   -4.8316    0.9491    1.6772 N   0  0  0  0  0  0  0  0  0  0  0  0
   -6.0434    2.1799    0.0328 C   0  0  0  0  0  0  0  0  0  0  0  0
   -6.9651    2.6986    0.9125 C   0  0  0  0  0  0  0  0  0  0  0  0
   -8.0641    3.3925    0.4334 C   0  0  0  0  0  0  0  0  0  0  0  0
   -8.2361    3.5645   -0.9298 C   0  0  0  0  0  0  0  0  0  0  0  0
   -7.3161    3.0480   -1.8257 C   0  0  0  0  0  0  0  0  0  0  0  0
   -6.2198    2.3547   -1.3303 C   0  0  0  0  0  0  0  0  0  0  0  0
   -3.4963    3.3316   -0.6927 H   0  0  0  0  0  0  0  0  0  0  0  0
   -2.0971    2.3029   -1.1947 H   0  0  0  0  0  0  0  0  0  0  0  0
   -2.4465    2.6028    0.5484 H   0  0  0  0  0  0  0  0  0  0  0  0
   -4.4658   -0.5981   -0.8075 H   0  0  0  0  0  0  0  0  0  0  0  0
   -3.6584    0.2422   -2.1244 H   0  0  0  0  0  0  0  0  0  0  0  0
   -2.9832   -1.5743    1.0140 H   0  0  0  0  0  0  0  0  0  0  0  0
   -0.8314   -2.7487    1.4346 H   0  0  0  0  0  0  0  0  0  0  0  0
    2.4333   -2.1936   -1.6962 H   0  0  0  0  0  0  0  0  0  0  0  0
    3.0607   -5.2270   -1.3576 H   0  0  0  0  0  0  0  0  0  0  0  0
    5.1734   -6.4282   -0.8362 H   0  0  0  0  0  0  0  0  0  0  0  0
    6.7105   -2.9207    0.9377 H   0  0  0  0  0  0  0  0  0  0  0  0
    6.4195   -1.0215    1.4174 H   0  0  0  0  0  0  0  0  0  0  0  0
    7.1979    1.0624    2.4244 H   0  0  0  0  0  0  0  0  0  0  0  0
    6.7823    3.4214    2.9717 H   0  0  0  0  0  0  0  0  0  0  0  0
    2.9665    3.0580    1.1823 H   0  0  0  0  0  0  0  0  0  0  0  0
    0.8048   -1.0289   -2.0368 H   0  0  0  0  0  0  0  0  0  0  0  0
   -1.3510    0.1381   -2.4439 H   0  0  0  0  0  0  0  0  0  0  0  0
   -4.0050    0.4236    2.0220 H   0  0  0  0  0  0  0  0  0  0  0  0
   -6.7884    2.5392    1.9846 H   0  0  0  0  0  0  0  0  0  0  0  0
   -8.7714    3.7889    1.1249 H   0  0  0  0  0  0  0  0  0  0  0  0
   -9.1186    4.1180   -1.2468 H   0  0  0  0  0  0  0  0  0  0  0  0
   -7.4644    3.1947   -2.8975 H   0  0  0  0  0  0  0  0  0  0  0  0
   -5.5167    1.9608   -2.0467 H   0  0  0  0  0  0  0  0  0  0  0  0
  1  2  1  0
  2  3  1  0
  3  4  1  0
  4  5  2  0
  5  6  1  0
  6  7  2  0
  7  8  1  0
  8  9  2  0
  8 10  1  0
 10 11  1  0
 11 12  2  0
 12 13  1  0
 13 14  2  0
 14 15  1  0
 14 16  1  0
 16 17  2  0
 17 18  1  0
 18 19  2  0
 18 20  1  0
 20 21  1  0
 21 22  2  0
 22 23  1  0
 23 24  2  0
 24 25  1  0
 24 26  1  0
 26 27  2  0
  7 28  1  0
 28 29  2  0
  2 30  1  0
 30 31  2  3
 30 32  1  0
 32 33  2  0
 33 34  1  0
 34 35  2  0
 35 36  1  0
 36 37  2  0
 29  4  1  0
 37 32  1  0
 17 11  1  0
 27 21  1  0
  1 38  1  0
  1 39  1  0
  1 40  1  0
  3 41  1  0
  3 42  1  0
  5 43  1  0
  6 44  1  0
 10 45  1  0
 12 46  1  0
 13 47  1  0
 16 48  1  0
 20 49  1  0
 22 50  1  0
 23 51  1  0
 26 52  1  0
 28 53  1  0
 29 54  1  0
 31 55  1  0
 33 56  1  0
 34 57  1  0
 35 58  1  0
 36 59  1  0
 37 60  1  0
M  END
$$$$
