@<TRIPOS>MOLECULE
*****
 47 49 0 0 0
SMALL
GASTEIGER

@<TRIPOS>ATOM
      1 C          -2.1242   -1.9407   -0.5041 C.3     1  UNL1       -0.0005
      2 C          -1.8427   -2.6820    0.7962 C.3     1  UNL1       -0.0476
      3 C          -1.5420   -4.1112    0.4403 C.3     1  UNL1       -0.0647
      4 C          -0.9675   -1.9803   -1.4342 C.3     1  UNL1        0.0187
      5 N           0.2717   -1.4317   -1.0164 N.am    1  UNL1       -0.3108
      6 C           0.7655   -0.1658   -0.6476 C.2     1  UNL1        0.2441
      7 O          -0.0586    0.7817   -0.6836 O.2     1  UNL1       -0.2702
      8 C           2.1128    0.1813   -0.2296 C.ar    1  UNL1        0.0368
      9 C           2.3640    1.4993    0.0856 C.ar    1  UNL1       -0.0478
     10 C           3.6515    1.8769    0.4938 C.ar    1  UNL1       -0.0346
     11 C           4.6951    0.9808    0.5971 C.ar    1  UNL1        0.1050
     12 C           4.4402   -0.3228    0.2838 C.ar    1  UNL1       -0.0346
     13 C           3.1769   -0.6879   -0.1157 C.ar    1  UNL1       -0.0478
     14 S           6.2921    1.4763    1.1086 S.O2    1  UNL1        0.0559
     15 N           7.2876    1.9497   -0.2230 N.3     1  UNL1       -0.2035
     16 O           6.9446    0.3883    1.9090 O.2     1  UNL1       -0.1533
     17 O           6.1483    2.6759    2.0025 O.2     1  UNL1       -0.1533
     18 C          -2.8274   -0.6782   -0.3301 C.ar    1  UNL1       -0.0421
     19 C          -2.7872    0.2308    0.7348 C.ar    1  UNL1       -0.0491
     20 C          -3.5178    1.3980    0.7527 C.ar    1  UNL1       -0.0001
     21 C          -4.3471    1.7520   -0.2900 C.ar    1  UNL1        0.0465
     22 N          -4.8944    2.9253    0.0508 N.ar    1  UNL1       -0.3606
     23 C          -4.4500    3.3125    1.2414 C.ar    1  UNL1        0.0027
     24 C          -3.5638    2.3756    1.7440 C.ar    1  UNL1       -0.0367
     25 C          -4.4287    0.8974   -1.3667 C.ar    1  UNL1       -0.0375
     26 C          -3.6863   -0.2629   -1.3567 C.ar    1  UNL1       -0.0563
     27 H          -2.8920   -2.6362   -1.0207 H       1  UNL1        0.0364
     28 H          -1.0146   -2.1911    1.3511 H       1  UNL1        0.0269
     29 H          -2.8038   -2.6653    1.3795 H       1  UNL1        0.0269
     30 H          -1.9678   -4.4007   -0.5458 H       1  UNL1        0.0230
     31 H          -1.9672   -4.8283    1.1843 H       1  UNL1        0.0230
     32 H          -0.4329   -4.2264    0.3263 H       1  UNL1        0.0230
     33 H          -1.3093   -1.5722   -2.4247 H       1  UNL1        0.0468
     34 H          -0.7855   -3.0659   -1.6637 H       1  UNL1        0.0468
     35 H           1.1033   -2.1007   -0.9355 H       1  UNL1        0.1490
     36 H           1.6295    2.3030    0.0456 H       1  UNL1        0.0626
     37 H           3.8455    2.9123    0.7404 H       1  UNL1        0.0637
     38 H           5.2152   -1.0943    0.3405 H       1  UNL1        0.0637
     39 H           3.0056   -1.7269   -0.3571 H       1  UNL1        0.0626
     40 H           7.2988    3.0059   -0.3222 H       1  UNL1        0.1442
     41 H           8.2778    1.6869    0.0514 H       1  UNL1        0.1442
     42 H          -2.1205   -0.0897    1.5338 H       1  UNL1        0.0627
     43 H          -5.5797    3.4077   -0.6028 H       1  UNL1        0.1653
     44 H          -4.7308    4.2250    1.7564 H       1  UNL1        0.0807
     45 H          -3.0223    2.3751    2.6776 H       1  UNL1        0.0638
     46 H          -5.0672    1.1380   -2.2045 H       1  UNL1        0.0638
     47 H          -3.7948   -0.8948   -2.2358 H       1  UNL1        0.0621
@<TRIPOS>BOND
     1     1     2    1
     2     2     3    1
     3     1     4    1
     4     4     5    1
     5     5     6   am
     6     6     7    2
     7     6     8    1
     8     8     9   ar
     9     9    10   ar
    10    10    11   ar
    11    11    12   ar
    12    12    13   ar
    13    11    14    1
    14    14    15    1
    15    14    16    2
    16    14    17    2
    17     1    18    1
    18    18    19   ar
    19    19    20   ar
    20    20    21   ar
    21    21    22   ar
    22    22    23   ar
    23    23    24   ar
    24    21    25   ar
    25    25    26   ar
    26    13     8   ar
    27    26    18   ar
    28    24    20   ar
    29     1    27    1
    30     2    28    1
    31     2    29    1
    32     3    30    1
    33     3    31    1
    34     3    32    1
    35     4    33    1
    36     4    34    1
    37     5    35    1
    38     9    36    1
    39    10    37    1
    40    12    38    1
    41    13    39    1
    42    15    40    1
    43    15    41    1
    44    19    42    1
    45    22    43    1
    46    23    44    1
    47    24    45    1
    48    25    46    1
    49    26    47    1
