@<TRIPOS>MOLECULE
*****
 43 44 0 0 0
SMALL
GASTEIGER

@<TRIPOS>ATOM
      1 C          -0.8107   -0.7560    3.0077 C.3     1  UNL1       -0.0259
      2 C          -0.5487    0.4760    2.2101 C.3     1  UNL1        0.1583
      3 O          -1.0089    1.5953    2.9754 O.3     1  UNL1       -0.3780
      4 C           0.9010    0.7688    1.9912 C.3     1  UNL1        0.1078
      5 S           1.8375   -0.4237    1.1367 S.O2    1  UNL1        0.0001
      6 O           1.8152   -1.7741    1.7213 O.2     1  UNL1       -0.1693
      7 O           1.3966   -0.4143   -0.3293 O.2     1  UNL1       -0.1693
      8 C           3.5187    0.1661    1.0776 C.ar    1  UNL1        0.0885
      9 C           3.9889    0.9374    0.0582 C.ar    1  UNL1       -0.0342
     10 C           5.2941    1.3985    0.0140 C.ar    1  UNL1       -0.0247
     11 C           6.1614    1.0779    1.0241 C.ar    1  UNL1        0.1235
     12 F           7.4475    1.4992    1.0354 F       1  UNL1       -0.2055
     13 C           5.7072    0.2985    2.0657 C.ar    1  UNL1       -0.0247
     14 C           4.3929   -0.1677    2.1132 C.ar    1  UNL1       -0.0342
     15 C          -1.3720    0.4817    0.9706 C.2     1  UNL1        0.2503
     16 O          -2.0178    1.5144    0.6876 O.2     1  UNL1       -0.2723
     17 N          -1.4558   -0.6348    0.1022 N.am    1  UNL1       -0.2831
     18 C          -2.2008   -0.7205   -1.0922 C.ar    1  UNL1        0.0341
     19 C          -2.1174   -1.9360   -1.7838 C.ar    1  UNL1       -0.0392
     20 C          -2.8001   -2.1469   -2.9631 C.ar    1  UNL1       -0.0421
     21 C          -3.5962   -1.1578   -3.5069 C.ar    1  UNL1        0.0635
     22 C          -4.3028   -1.3932   -4.7381 C.1     1  UNL1        0.0997
     23 N          -4.8661   -1.5989   -5.7502 N.1     1  UNL1       -0.1909
     24 C          -3.6874    0.0416   -2.8385 C.ar    1  UNL1        0.0739
     25 C          -4.5434    1.1009   -3.4213 C.3     1  UNL1        0.4187
     26 F          -4.1084    1.4446   -4.6895 F       1  UNL1       -0.1659
     27 F          -4.5056    2.2524   -2.6529 F       1  UNL1       -0.1659
     28 F          -5.8410    0.6300   -3.4641 F       1  UNL1       -0.1659
     29 C          -2.9895    0.2245   -1.6549 C.ar    1  UNL1       -0.0276
     30 H          -1.3849   -1.4692    2.4126 H       1  UNL1        0.0263
     31 H           0.1672   -1.2084    3.2727 H       1  UNL1        0.0263
     32 H          -1.3228   -0.5032    3.9590 H       1  UNL1        0.0263
     33 H          -0.7293    1.3544    3.9135 H       1  UNL1        0.2109
     34 H           0.9847    1.7887    1.5522 H       1  UNL1        0.0538
     35 H           1.3428    0.8821    3.0268 H       1  UNL1        0.0538
     36 H           3.3448    1.2088   -0.7477 H       1  UNL1        0.0637
     37 H           5.6485    2.0125   -0.8088 H       1  UNL1        0.0647
     38 H           6.4109    0.0560    2.8563 H       1  UNL1        0.0647
     39 H           4.0981   -0.7696    2.9485 H       1  UNL1        0.0637
     40 H          -0.8899   -1.4762    0.4491 H       1  UNL1        0.1549
     41 H          -1.5128   -2.7529   -1.4156 H       1  UNL1        0.0636
     42 H          -2.7387   -3.0889   -3.5044 H       1  UNL1        0.0631
     43 H          -3.1072    1.1819   -1.1893 H       1  UNL1        0.0642
@<TRIPOS>BOND
     1     1     2    1
     2     2     3    1
     3     2     4    1
     4     4     5    1
     5     5     6    2
     6     5     7    2
     7     5     8    1
     8     8     9   ar
     9     9    10   ar
    10    10    11   ar
    11    11    12    1
    12    11    13   ar
    13    13    14   ar
    14     2    15    1
    15    15    16    2
    16    15    17   am
    17    17    18    1
    18    18    19   ar
    19    19    20   ar
    20    20    21   ar
    21    21    22    1
    22    22    23    3
    23    21    24   ar
    24    24    25    1
    25    25    26    1
    26    25    27    1
    27    25    28    1
    28    24    29   ar
    29    14     8   ar
    30    29    18   ar
    31     1    30    1
    32     1    31    1
    33     1    32    1
    34     3    33    1
    35     4    34    1
    36     4    35    1
    37     9    36    1
    38    10    37    1
    39    13    38    1
    40    14    39    1
    41    17    40    1
    42    19    41    1
    43    20    42    1
    44    29    43    1
