@<TRIPOS>MOLECULE
*****
 82 85 0 0 0
SMALL
GASTEIGER

@<TRIPOS>ATOM
      1 C           2.8420    2.2164    2.1498 C.3     1  UNL1       -0.0381
      2 C           2.4102    1.0463    1.2500 C.3     1  UNL1        0.0966
      3 N           3.3112    0.9742    0.1010 N.am    1  UNL1       -0.3027
      4 C           4.3700    0.0354    0.0381 C.2     1  UNL1        0.2362
      5 O           4.5361   -0.7445    1.0053 O.2     1  UNL1       -0.2737
      6 CA          5.2941   -0.0608   -1.1281 C.3     1  UNL1        0.1228
      7 C           5.8142    1.2758   -1.5875 C.3     1  UNL1        0.0711
      8 O           6.6547    1.7835   -0.5979 O.3     1  UNL1       -0.3927
      9 N           6.3716   -0.9654   -0.8991 N.am    1  UNL1       -0.2976
     10 C           6.5556   -2.2395   -1.4720 C.2     1  UNL1        0.2513
     11 O           5.6873   -2.6601   -2.2768 O.2     1  UNL1       -0.2696
     12 C           7.7285   -3.0687   -1.1486 C.ar    1  UNL1        0.0738
     13 C           8.7650   -2.7696   -0.3064 C.ar    1  UNL1       -0.0425
     14 C           9.7422   -3.6688   -0.1562 C.ar    1  UNL1       -0.0540
     15 C           9.6783   -4.8473   -0.8396 C.ar    1  UNL1       -0.0236
     16 S           8.1263   -4.6442   -1.7461 S.2     1  UNL1       -0.0921
     17 C           1.0325    1.2699    0.7649 C.2     1  UNL1        0.2338
     18 O           0.8259    1.4534   -0.4462 O.2     1  UNL1       -0.2738
     19 N          -0.0487    1.2748    1.6961 N.am    1  UNL1       -0.2981
     20 C          -1.4245    1.5139    1.2793 C.3     1  UNL1        0.1520
     21 C          -2.2010    2.2586    2.2907 C.3     1  UNL1        0.0043
     22 C          -3.5844    2.5322    1.8468 C.ar    1  UNL1       -0.0447
     23 C          -3.8603    3.7309    1.1581 C.ar    1  UNL1       -0.0551
     24 C          -5.1239    4.0693    0.7380 C.ar    1  UNL1       -0.0194
     25 C          -6.1826    3.2197    0.9869 C.ar    1  UNL1        0.1420
     26 N          -7.4592    3.6243    0.5330 N.pl3   1  UNL1       -0.0734
     27 C          -7.7051    4.0504   -0.6373 C.cat   1  UNL1        0.3821
     28 N          -6.6572    4.1414   -1.5816 N.pl3   1  UNL1       -0.2889
     29 N          -9.0096    4.4420   -1.0225 N.pl3   1  UNL1       -0.2889
     30 C          -5.9507    2.0469    1.6523 C.ar    1  UNL1       -0.0194
     31 C          -4.6668    1.7137    2.0736 C.ar    1  UNL1       -0.0551
     32 P          -2.1373   -0.1874    1.1253 P.3     1  UNL1        0.4539
     33 O          -2.3169   -0.8239    2.4629 O.2     1  UNL1       -0.2304
     34 O          -3.5759   -0.0940    0.2146 O.3     1  UNL1       -0.4144
     35 C          -3.6545   -0.7354   -1.0077 C.ar    1  UNL1        0.1309
     36 C          -2.6827   -0.6496   -1.9808 C.ar    1  UNL1       -0.0194
     37 C          -2.7916   -1.3069   -3.1995 C.ar    1  UNL1       -0.0583
     38 C          -3.8947   -2.0816   -3.4841 C.ar    1  UNL1       -0.0615
     39 C          -4.8770   -2.1748   -2.5140 C.ar    1  UNL1       -0.0583
     40 C          -4.7739   -1.5225   -1.2980 C.ar    1  UNL1       -0.0194
     41 O          -1.0049   -1.1144    0.2078 O.3     1  UNL1       -0.4144
     42 C          -0.6332   -2.3939    0.4808 C.ar    1  UNL1        0.1309
     43 C          -1.5905   -3.3535    0.7108 C.ar    1  UNL1       -0.0194
     44 C          -1.2193   -4.6549    0.9875 C.ar    1  UNL1       -0.0583
     45 C           0.1154   -5.0353    1.0423 C.ar    1  UNL1       -0.0615
     46 C           1.0750   -4.0697    0.8108 C.ar    1  UNL1       -0.0583
     47 C           0.6922   -2.7659    0.5343 C.ar    1  UNL1       -0.0194
     48 H           2.1764    2.1907    3.0424 H       1  UNL1        0.0252
     49 H           2.8454    3.1715    1.6145 H       1  UNL1        0.0252
     50 H           3.8706    2.0289    2.5149 H       1  UNL1        0.0252
     51 H           2.4741    0.1663    1.9074 H       1  UNL1        0.0592
     52 H           3.1909    1.6201   -0.7049 H       1  UNL1        0.1495
     53 HA          4.6625   -0.4658   -1.9877 H       1  UNL1        0.0618
     54 H1          6.3719    1.1507   -2.5136 H       1  UNL1        0.0580
     55 H2          4.9562    1.9864   -1.7575 H       1  UNL1        0.0580
     56 H           6.2061    1.8659    0.2814 H       1  UNL1        0.2095
     57 H           7.1260   -0.6489   -0.2210 H       1  UNL1        0.1499
     58 H           8.7611   -1.7920    0.2275 H       1  UNL1        0.0630
     59 H          10.6400   -3.5055    0.5149 H       1  UNL1        0.0623
     60 H          10.3070   -5.6915   -0.8863 H       1  UNL1        0.0693
     61 H           0.1540    1.1035    2.7029 H       1  UNL1        0.1497
     62 H          -1.4455    1.9414    0.2684 H       1  UNL1        0.0651
     63 H          -2.3040    1.6435    3.2368 H       1  UNL1        0.0338
     64 H          -1.6936    3.1862    2.6540 H       1  UNL1        0.0338
     65 H          -3.0667    4.4256    0.9411 H       1  UNL1        0.0621
     66 H          -5.2898    5.0014    0.2149 H       1  UNL1        0.0653
     67 H          -6.3850    5.0784   -1.9809 H       1  UNL1        0.2547
     68 H          -6.1145    3.3171   -1.9211 H       1  UNL1        0.2547
     69 H          -9.6223    3.8783   -1.6653 H       1  UNL1        0.2547
     70 H          -9.3903    5.3410   -0.6490 H       1  UNL1        0.2547
     71 H          -6.7972    1.3918    1.8380 H       1  UNL1        0.0653
     72 H          -4.5430    0.7827    2.5950 H       1  UNL1        0.0621
     73 H          -1.8106   -0.0300   -1.7409 H       1  UNL1        0.0654
     74 H          -1.9875   -1.2043   -3.9379 H       1  UNL1        0.0619
     75 H          -3.9584   -2.5849   -4.4405 H       1  UNL1        0.0618
     76 H          -5.7352   -2.7777   -2.7376 H       1  UNL1        0.0619
     77 H          -5.5444   -1.6021   -0.5464 H       1  UNL1        0.0654
     78 H          -2.6547   -3.1346    0.6856 H       1  UNL1        0.0654
     79 H          -1.9996   -5.3941    1.1643 H       1  UNL1        0.0619
     80 H           0.3949   -6.0519    1.2583 H       1  UNL1        0.0618
     81 H           2.1092   -4.3727    0.8545 H       1  UNL1        0.0619
     82 H           1.4942   -2.0561    0.3626 H       1  UNL1        0.0654
@<TRIPOS>BOND
     1     1     2    1
     2     2     3    1
     3     3     4   am
     4     4     5    2
     5     4     6    1
     6     6     7    1
     7     7     8    1
     8     6     9    1
     9     9    10   am
    10    10    11    2
    11    10    12    1
    12    12    13   ar
    13    13    14   ar
    14    14    15   ar
    15    15    16   ar
    16     2    17    1
    17    17    18    2
    18    17    19   am
    19    19    20    1
    20    20    21    1
    21    21    22    1
    22    22    23   ar
    23    23    24   ar
    24    24    25   ar
    25    25    26    1
    26    26    27    2
    27    27    28    1
    28    27    29    1
    29    25    30   ar
    30    30    31   ar
    31    20    32    1
    32    32    33    2
    33    32    34    1
    34    34    35    1
    35    35    36   ar
    36    36    37   ar
    37    37    38   ar
    38    38    39   ar
    39    39    40   ar
    40    32    41    1
    41    41    42    1
    42    42    43   ar
    43    43    44   ar
    44    44    45   ar
    45    45    46   ar
    46    46    47   ar
    47    16    12   ar
    48    31    22   ar
    49    40    35   ar
    50    47    42   ar
    51     1    48    1
    52     1    49    1
    53     1    50    1
    54     2    51    1
    55     3    52    1
    56     6    53    1
    57     7    54    1
    58     7    55    1
    59     8    56    1
    60     9    57    1
    61    13    58    1
    62    14    59    1
    63    15    60    1
    64    19    61    1
    65    20    62    1
    66    21    63    1
    67    21    64    1
    68    23    65    1
    69    24    66    1
    70    28    67    1
    71    28    68    1
    72    29    69    1
    73    29    70    1
    74    30    71    1
    75    31    72    1
    76    36    73    1
    77    37    74    1
    78    38    75    1
    79    39    76    1
    80    40    77    1
    81    43    78    1
    82    44    79    1
    83    45    80    1
    84    46    81    1
    85    47    82    1
