@<TRIPOS>MOLECULE
*****
 39 41 0 0 0
SMALL
GASTEIGER

@<TRIPOS>ATOM
      1 C           3.2227    0.4796   -1.7428 C.3     1  UNL1       -0.0420
      2 C           2.7402   -0.6509   -0.8504 C.3     1  UNL1        0.0520
      3 N           1.5799   -0.2076   -0.1509 N.am    1  UNL1       -0.3041
      4 C           1.6100   -0.0359    1.2444 C.2     1  UNL1        0.2497
      5 O           2.7337   -0.3013    1.8312 O.2     1  UNL1       -0.2700
      6 C           0.5531    0.3972    2.1102 C.ar    1  UNL1        0.0985
      7 C           0.7669    0.5103    3.4875 C.ar    1  UNL1       -0.0430
      8 C          -0.2249    0.9230    4.3509 C.ar    1  UNL1       -0.0426
      9 C          -1.4735    1.2392    3.8637 C.ar    1  UNL1        0.0314
     10 N          -1.6987    1.1387    2.5565 N.ar    1  UNL1       -0.2204
     11 C          -0.7068    0.7275    1.7056 C.ar    1  UNL1        0.2327
     12 O          -1.0275    0.6475    0.3330 O.3     1  UNL1       -0.4373
     13 C          -2.2719    0.9634   -0.1483 C.ar    1  UNL1        0.1306
     14 C          -3.2819    0.0171   -0.2604 C.ar    1  UNL1       -0.0166
     15 C          -4.5298    0.3231   -0.7406 C.ar    1  UNL1       -0.0230
     16 C          -4.7817    1.6214   -1.1240 C.ar    1  UNL1        0.1236
     17 F          -5.9837    1.9912   -1.6040 F       1  UNL1       -0.2055
     18 C          -3.7909    2.5621   -1.0170 C.ar    1  UNL1       -0.0230
     19 C          -2.5591    2.2351   -0.5372 C.ar    1  UNL1       -0.0166
     20 C           2.4897   -1.8158   -1.6817 C.ar    1  UNL1        0.0097
     21 C           2.9194   -2.0143   -2.9711 C.ar    1  UNL1       -0.0498
     22 C           2.6014   -3.1436   -3.5967 C.ar    1  UNL1       -0.0544
     23 C           1.8490   -4.1196   -2.9775 C.ar    1  UNL1       -0.0240
     24 S           1.6116   -3.2624   -1.3398 S.2     1  UNL1       -0.0998
     25 H           2.6636    0.5270   -2.7006 H       1  UNL1        0.0251
     26 H           3.0794    1.4135   -1.1634 H       1  UNL1        0.0251
     27 H           4.3062    0.3401   -1.8997 H       1  UNL1        0.0251
     28 H           3.5675   -0.8094   -0.1083 H       1  UNL1        0.0551
     29 H           0.7228   -0.0150   -0.6756 H       1  UNL1        0.1496
     30 H           1.7533    0.2578    3.8512 H       1  UNL1        0.0627
     31 H          -0.0277    1.0007    5.4170 H       1  UNL1        0.0633
     32 H          -2.2502    1.5663    4.5714 H       1  UNL1        0.0831
     33 H          -3.0527   -1.0088    0.0525 H       1  UNL1        0.0655
     34 H          -5.2934   -0.4400   -0.8142 H       1  UNL1        0.0647
     35 H          -3.9752    3.6009   -1.3181 H       1  UNL1        0.0647
     36 H          -1.7752    2.9987   -0.4569 H       1  UNL1        0.0655
     37 H           3.5430   -1.2254   -3.5077 H       1  UNL1        0.0626
     38 H           2.9172   -3.3854   -4.6631 H       1  UNL1        0.0623
     39 H           1.4739   -5.0459   -3.2130 H       1  UNL1        0.0693
@<TRIPOS>BOND
     1     1     2    1
     2     2     3    1
     3     3     4   am
     4     4     5    2
     5     4     6    1
     6     6     7   ar
     7     7     8   ar
     8     8     9   ar
     9     9    10   ar
    10    10    11   ar
    11    11    12    1
    12    12    13    1
    13    13    14   ar
    14    14    15   ar
    15    15    16   ar
    16    16    17    1
    17    16    18   ar
    18    18    19   ar
    19     2    20    1
    20    20    21   ar
    21    21    22   ar
    22    22    23   ar
    23    23    24   ar
    24    11     6   ar
    25    19    13   ar
    26    24    20   ar
    27     1    25    1
    28     1    26    1
    29     1    27    1
    30     2    28    1
    31     3    29    1
    32     7    30    1
    33     8    31    1
    34     9    32    1
    35    14    33    1
    36    15    34    1
    37    18    35    1
    38    19    36    1
    39    21    37    1
    40    22    38    1
    41    23    39    1
