
     RDKit          3D

 39 41  0  0  0  0  0  0  0  0999 V2000
    3.2227    0.4796   -1.7428 C   0  0  0  0  0  0  0  0  0  0  0  0
    2.7402   -0.6509   -0.8504 C   0  0  1  0  0  0  0  0  0  0  0  0
    1.5799   -0.2076   -0.1509 N   0  0  0  0  0  0  0  0  0  0  0  0
    1.6100   -0.0359    1.2444 C   0  0  0  0  0  0  0  0  0  0  0  0
    2.7337   -0.3013    1.8312 O   0  0  0  0  0  0  0  0  0  0  0  0
    0.5531    0.3972    2.1102 C   0  0  0  0  0  0  0  0  0  0  0  0
    0.7669    0.5103    3.4875 C   0  0  0  0  0  0  0  0  0  0  0  0
   -0.2249    0.9230    4.3509 C   0  0  0  0  0  0  0  0  0  0  0  0
   -1.4735    1.2392    3.8637 C   0  0  0  0  0  0  0  0  0  0  0  0
   -1.6987    1.1387    2.5565 N   0  0  0  0  0  0  0  0  0  0  0  0
   -0.7068    0.7275    1.7056 C   0  0  0  0  0  0  0  0  0  0  0  0
   -1.0275    0.6475    0.3330 O   0  0  0  0  0  0  0  0  0  0  0  0
   -2.2719    0.9634   -0.1483 C   0  0  0  0  0  0  0  0  0  0  0  0
   -3.2819    0.0171   -0.2604 C   0  0  0  0  0  0  0  0  0  0  0  0
   -4.5298    0.3231   -0.7406 C   0  0  0  0  0  0  0  0  0  0  0  0
   -4.7817    1.6214   -1.1240 C   0  0  0  0  0  0  0  0  0  0  0  0
   -5.9837    1.9912   -1.6040 F   0  0  0  0  0  0  0  0  0  0  0  0
   -3.7909    2.5621   -1.0170 C   0  0  0  0  0  0  0  0  0  0  0  0
   -2.5591    2.2351   -0.5372 C   0  0  0  0  0  0  0  0  0  0  0  0
    2.4897   -1.8158   -1.6817 C   0  0  0  0  0  0  0  0  0  0  0  0
    2.9194   -2.0143   -2.9711 C   0  0  0  0  0  0  0  0  0  0  0  0
    2.6014   -3.1436   -3.5967 C   0  0  0  0  0  0  0  0  0  0  0  0
    1.8490   -4.1196   -2.9775 C   0  0  0  0  0  0  0  0  0  0  0  0
    1.6116   -3.2624   -1.3398 S   0  0  0  0  0  0  0  0  0  0  0  0
    2.6636    0.5270   -2.7006 H   0  0  0  0  0  0  0  0  0  0  0  0
    3.0794    1.4135   -1.1634 H   0  0  0  0  0  0  0  0  0  0  0  0
    4.3062    0.3401   -1.8997 H   0  0  0  0  0  0  0  0  0  0  0  0
    3.5675   -0.8094   -0.1083 H   0  0  0  0  0  0  0  0  0  0  0  0
    0.7228   -0.0150   -0.6756 H   0  0  0  0  0  0  0  0  0  0  0  0
    1.7533    0.2578    3.8512 H   0  0  0  0  0  0  0  0  0  0  0  0
   -0.0277    1.0007    5.4170 H   0  0  0  0  0  0  0  0  0  0  0  0
   -2.2502    1.5663    4.5714 H   0  0  0  0  0  0  0  0  0  0  0  0
   -3.0527   -1.0088    0.0525 H   0  0  0  0  0  0  0  0  0  0  0  0
   -5.2934   -0.4400   -0.8142 H   0  0  0  0  0  0  0  0  0  0  0  0
   -3.9752    3.6009   -1.3181 H   0  0  0  0  0  0  0  0  0  0  0  0
   -1.7752    2.9987   -0.4569 H   0  0  0  0  0  0  0  0  0  0  0  0
    3.5430   -1.2254   -3.5077 H   0  0  0  0  0  0  0  0  0  0  0  0
    2.9172   -3.3854   -4.6631 H   0  0  0  0  0  0  0  0  0  0  0  0
    1.4739   -5.0459   -3.2130 H   0  0  0  0  0  0  0  0  0  0  0  0
  1  2  1  0
  2  3  1  0
  3  4  1  0
  4  5  2  0
  4  6  1  0
  6  7  2  0
  7  8  1  0
  8  9  2  0
  9 10  1  0
 10 11  2  0
 11 12  1  0
 12 13  1  0
 13 14  2  0
 14 15  1  0
 15 16  2  0
 16 17  1  0
 16 18  1  0
 18 19  2  0
  2 20  1  0
 20 21  2  0
 21 22  1  0
 22 23  2  0
 23 24  1  0
 11  6  1  0
 19 13  1  0
 24 20  1  0
  1 25  1  0
  1 26  1  0
  1 27  1  0
  2 28  1  1
  3 29  1  0
  7 30  1  0
  8 31  1  0
  9 32  1  0
 14 33  1  0
 15 34  1  0
 18 35  1  0
 19 36  1  0
 21 37  1  0
 22 38  1  0
 23 39  1  0
M  END
$$$$
