@<TRIPOS>MOLECULE
*****
 50 52 0 0 0
SMALL
GASTEIGER

@<TRIPOS>ATOM
      1 C          -5.6239    2.7330   -2.4844 C.3     1  UNL1       -0.0370
      2 C          -5.8560    1.4321   -1.8079 C.ar    1  UNL1       -0.0150
      3 C          -5.0149    0.3359   -2.0261 C.ar    1  UNL1       -0.0514
      4 C          -5.1971   -0.8758   -1.4210 C.ar    1  UNL1       -0.0299
      5 C          -4.3338   -2.0662   -1.6054 C.3     1  UNL1        0.0372
      6 N          -3.3311   -2.0833   -0.5762 N.am    1  UNL1       -0.3060
      7 C          -2.1663   -1.2711   -0.5599 C.2     1  UNL1        0.2628
      8 O          -1.9695   -0.4725   -1.5008 O.2     1  UNL1       -0.2685
      9 C          -1.2036   -1.3519    0.5277 C.ar    1  UNL1        0.1292
     10 C          -0.0986   -0.5316    0.4900 C.ar    1  UNL1       -0.0006
     11 C           0.8606   -0.5316    1.4671 C.ar    1  UNL1        0.1292
     12 C           2.0094    0.3688    1.3689 C.2     1  UNL1        0.2628
     13 O           2.0874    1.1216    0.3770 O.2     1  UNL1       -0.2685
     14 N           3.0017    0.3828    2.3724 N.am    1  UNL1       -0.3060
     15 C           4.1460    1.2368    2.3328 C.3     1  UNL1        0.0372
     16 C           5.1414    0.6784    1.3862 C.ar    1  UNL1       -0.0299
     17 C           6.0573   -0.2854    1.8069 C.ar    1  UNL1       -0.0543
     18 C           7.0106   -0.8341    1.0048 C.ar    1  UNL1       -0.0259
     19 C           7.0642   -0.3953   -0.3222 C.ar    1  UNL1        0.1263
     20 F           7.9860   -0.9018   -1.1628 F       1  UNL1       -0.2052
     21 C           6.1927    0.5492   -0.7967 C.ar    1  UNL1       -0.0150
     22 C           6.2710    0.9982   -2.2047 C.3     1  UNL1       -0.0370
     23 C           5.2359    1.0743    0.0789 C.ar    1  UNL1       -0.0514
     24 N           0.6998   -1.3738    2.4977 N.ar    1  UNL1       -0.2308
     25 C          -0.3734   -2.1880    2.5589 C.ar    1  UNL1        0.1176
     26 N          -1.3180   -2.1751    1.5785 N.ar    1  UNL1       -0.2308
     27 C          -6.2865   -0.9843   -0.5508 C.ar    1  UNL1       -0.0543
     28 C          -7.1181    0.0928   -0.3326 C.ar    1  UNL1       -0.0259
     29 C          -6.9253    1.3123   -0.9483 C.ar    1  UNL1        0.1263
     30 F          -7.7540    2.3594   -0.7205 F       1  UNL1       -0.2052
     31 H          -4.5261    2.8592   -2.6892 H       1  UNL1        0.0278
     32 H          -6.1143    2.7133   -3.4960 H       1  UNL1        0.0278
     33 H          -5.9409    3.5920   -1.8960 H       1  UNL1        0.0278
     34 H          -4.2008    0.4649   -2.7043 H       1  UNL1        0.0624
     35 H          -3.8606   -2.0291   -2.6311 H       1  UNL1        0.0512
     36 H          -4.9250   -3.0105   -1.6231 H       1  UNL1        0.0512
     37 H          -3.4132   -2.7362    0.2669 H       1  UNL1        0.1494
     38 H           0.0244    0.1500   -0.3517 H       1  UNL1        0.0663
     39 H           2.9099   -0.2635    3.1999 H       1  UNL1        0.1494
     40 H           4.5822    1.4314    3.3354 H       1  UNL1        0.0512
     41 H           3.8934    2.2622    1.9300 H       1  UNL1        0.0512
     42 H           5.9835   -0.5976    2.8384 H       1  UNL1        0.0622
     43 H           7.7245   -1.5793    1.3161 H       1  UNL1        0.0646
     44 H           5.3233    1.4425   -2.5604 H       1  UNL1        0.0278
     45 H           7.0620    1.7672   -2.3326 H       1  UNL1        0.0278
     46 H           6.5519    0.1523   -2.8766 H       1  UNL1        0.0278
     47 H           4.5836    1.8184   -0.3453 H       1  UNL1        0.0624
     48 H          -0.4511   -2.8449    3.4118 H       1  UNL1        0.1047
     49 H          -6.4360   -1.9450   -0.0675 H       1  UNL1        0.0622
     50 H          -7.9647   -0.0010    0.3474 H       1  UNL1        0.0646
@<TRIPOS>BOND
     1     1     2    1
     2     2     3   ar
     3     3     4   ar
     4     4     5    1
     5     5     6    1
     6     6     7   am
     7     7     8    2
     8     7     9    1
     9     9    10   ar
    10    10    11   ar
    11    11    12    1
    12    12    13    2
    13    12    14   am
    14    14    15    1
    15    15    16    1
    16    16    17   ar
    17    17    18   ar
    18    18    19   ar
    19    19    20    1
    20    19    21   ar
    21    21    22    1
    22    21    23   ar
    23    11    24   ar
    24    24    25   ar
    25    25    26   ar
    26     4    27   ar
    27    27    28   ar
    28    28    29   ar
    29    29    30    1
    30    29     2   ar
    31    26     9   ar
    32    23    16   ar
    33     1    31    1
    34     1    32    1
    35     1    33    1
    36     3    34    1
    37     5    35    1
    38     5    36    1
    39     6    37    1
    40    10    38    1
    41    14    39    1
    42    15    40    1
    43    15    41    1
    44    17    42    1
    45    18    43    1
    46    22    44    1
    47    22    45    1
    48    22    46    1
    49    23    47    1
    50    25    48    1
    51    27    49    1
    52    28    50    1
