
     RDKit          3D

 61 63  0  0  0  0  0  0  0  0999 V2000
    6.9866   -0.6112    0.4466 C   0  0  0  0  0  0  0  0  0  0  0  0
    6.0544   -1.6921   -0.0320 C   0  0  0  0  0  0  0  0  0  0  0  0
    4.6065   -1.3967    0.2807 C   0  0  0  0  0  0  0  0  0  0  0  0
    4.1126    0.1160   -0.5048 S   0  0  0  0  0  6  0  0  0  0  0  0
    4.2813    0.0303   -1.9940 O   0  0  0  0  0  0  0  0  0  0  0  0
    4.9747    1.2332   -0.0141 O   0  0  0  0  0  0  0  0  0  0  0  0
    2.4702    0.4991   -0.1790 N   0  0  0  0  0  0  0  0  0  0  0  0
    1.5617   -0.5103   -0.6761 C   0  0  0  0  0  0  0  0  0  0  0  0
    0.2033    0.1613   -0.7898 C   0  0  0  0  0  0  0  0  0  0  0  0
   -0.2191    0.7017    0.5216 C   0  0  0  0  0  0  0  0  0  0  0  0
   -0.6311   -0.5228    1.3691 C   0  0  0  0  0  0  0  0  0  0  0  0
   -1.7330   -1.1898    0.7314 N   0  0  0  0  0  0  0  0  0  0  0  0
   -2.3024   -2.3842    1.2913 C   0  0  0  0  0  0  0  0  0  0  0  0
   -1.7727   -2.7956    2.3652 O   0  0  0  0  0  0  0  0  0  0  0  0
   -3.4033   -3.0760    0.6792 C   0  0  0  0  0  0  0  0  0  0  0  0
   -4.6427   -2.4919    0.5271 C   0  0  0  0  0  0  0  0  0  0  0  0
   -5.6448   -3.2275   -0.0688 C   0  0  0  0  0  0  0  0  0  0  0  0
   -5.4331   -4.5161   -0.5083 C   0  0  0  0  0  0  0  0  0  0  0  0
   -6.7298   -5.4136   -1.2575 Cl  0  0  0  0  0  0  0  0  0  0  0  0
   -4.1984   -5.0954   -0.3556 C   0  0  0  0  0  0  0  0  0  0  0  0
   -3.1793   -4.3833    0.2363 C   0  0  0  0  0  0  0  0  0  0  0  0
   -1.5919   -5.1273    0.4329 Cl  0  0  0  0  0  0  0  0  0  0  0  0
   -1.3834    1.6100    0.4648 C   0  0  0  0  0  0  0  0  0  0  0  0
   -2.3403    1.2909    1.2725 O   0  0  0  0  0  0  0  0  0  0  0  0
   -1.5959    2.7282   -0.3100 N   0  0  0  0  0  0  0  0  0  0  0  0
   -0.6942    3.2489   -1.2857 C   0  0  0  0  0  0  0  0  0  0  0  0
   -0.9790    4.7569   -1.3795 C   0  0  0  0  0  0  0  0  0  0  0  0
   -2.2346    5.0097   -1.9090 O   0  0  0  0  0  0  0  0  0  0  0  0
   -3.2077    4.1607   -1.4494 C   0  0  0  0  0  0  0  0  0  0  0  0
   -2.8435    3.4817   -0.1501 C   0  0  0  0  0  0  0  0  0  0  0  0
    0.8545    1.4011    1.3259 C   0  0  0  0  0  0  0  0  0  0  0  0
    2.2154    0.7662    1.1994 C   0  0  0  0  0  0  0  0  0  0  0  0
    7.2580    0.0848   -0.3751 H   0  0  0  0  0  0  0  0  0  0  0  0
    7.9553   -1.0543    0.8220 H   0  0  0  0  0  0  0  0  0  0  0  0
    6.5153   -0.1098    1.3116 H   0  0  0  0  0  0  0  0  0  0  0  0
    6.1556   -1.7337   -1.1518 H   0  0  0  0  0  0  0  0  0  0  0  0
    6.3695   -2.6833    0.3268 H   0  0  0  0  0  0  0  0  0  0  0  0
    4.0178   -2.2203   -0.2189 H   0  0  0  0  0  0  0  0  0  0  0  0
    4.3960   -1.4104    1.3486 H   0  0  0  0  0  0  0  0  0  0  0  0
    1.5169   -1.4215   -0.0764 H   0  0  0  0  0  0  0  0  0  0  0  0
    1.8808   -0.7477   -1.7134 H   0  0  0  0  0  0  0  0  0  0  0  0
   -0.5180   -0.5796   -1.1551 H   0  0  0  0  0  0  0  0  0  0  0  0
    0.3166    0.8935   -1.6142 H   0  0  0  0  0  0  0  0  0  0  0  0
    0.2316   -1.2191    1.4881 H   0  0  0  0  0  0  0  0  0  0  0  0
   -0.9784   -0.1307    2.3463 H   0  0  0  0  0  0  0  0  0  0  0  0
   -2.1380   -0.8011   -0.1365 H   0  0  0  0  0  0  0  0  0  0  0  0
   -4.7799   -1.4852    0.8791 H   0  0  0  0  0  0  0  0  0  0  0  0
   -6.6320   -2.7632   -0.1899 H   0  0  0  0  0  0  0  0  0  0  0  0
   -3.9823   -6.1173   -0.6892 H   0  0  0  0  0  0  0  0  0  0  0  0
   -0.9810    2.7664   -2.2614 H   0  0  0  0  0  0  0  0  0  0  0  0
    0.3708    3.1853   -1.0827 H   0  0  0  0  0  0  0  0  0  0  0  0
   -0.8429    5.1527   -0.3530 H   0  0  0  0  0  0  0  0  0  0  0  0
   -0.1633    5.1709   -2.0035 H   0  0  0  0  0  0  0  0  0  0  0  0
   -3.4779    3.3931   -2.1762 H   0  0  0  0  0  0  0  0  0  0  0  0
   -4.1115    4.7979   -1.2223 H   0  0  0  0  0  0  0  0  0  0  0  0
   -2.7285    4.2832    0.6200 H   0  0  0  0  0  0  0  0  0  0  0  0
   -3.6903    2.8248    0.1179 H   0  0  0  0  0  0  0  0  0  0  0  0
    0.4864    1.3553    2.3882 H   0  0  0  0  0  0  0  0  0  0  0  0
    0.8426    2.4717    1.0523 H   0  0  0  0  0  0  0  0  0  0  0  0
    2.1987   -0.1500    1.8328 H   0  0  0  0  0  0  0  0  0  0  0  0
    2.9508    1.4854    1.6057 H   0  0  0  0  0  0  0  0  0  0  0  0
  1  2  1  0
  2  3  1  0
  3  4  1  0
  4  5  2  0
  4  6  2  0
  4  7  1  0
  7  8  1  0
  8  9  1  0
  9 10  1  0
 10 11  1  0
 11 12  1  0
 12 13  1  0
 13 14  2  0
 13 15  1  0
 15 16  2  0
 16 17  1  0
 17 18  2  0
 18 19  1  0
 18 20  1  0
 20 21  2  0
 21 22  1  0
 10 23  1  0
 23 24  2  0
 23 25  1  0
 25 26  1  0
 26 27  1  0
 27 28  1  0
 28 29  1  0
 29 30  1  0
 10 31  1  0
 31 32  1  0
 32  7  1  0
 21 15  1  0
 30 25  1  0
  1 33  1  0
  1 34  1  0
  1 35  1  0
  2 36  1  0
  2 37  1  0
  3 38  1  0
  3 39  1  0
  8 40  1  0
  8 41  1  0
  9 42  1  0
  9 43  1  0
 11 44  1  0
 11 45  1  0
 12 46  1  0
 16 47  1  0
 17 48  1  0
 20 49  1  0
 26 50  1  0
 26 51  1  0
 27 52  1  0
 27 53  1  0
 29 54  1  0
 29 55  1  0
 30 56  1  0
 30 57  1  0
 31 58  1  0
 31 59  1  0
 32 60  1  0
 32 61  1  0
M  END
$$$$
