@<TRIPOS>MOLECULE
*****
 61 63 0 0 0
SMALL
GASTEIGER

@<TRIPOS>ATOM
      1 C           6.9866   -0.6112    0.4466 C.3     1  UNL1       -0.0638
      2 C           6.0544   -1.6921   -0.0320 C.3     1  UNL1       -0.0350
      3 C           4.6065   -1.3967    0.2807 C.3     1  UNL1        0.0817
      4 S           4.1126    0.1160   -0.5048 S.O2    1  UNL1        0.0318
      5 O           4.2813    0.0303   -1.9940 O.2     1  UNL1       -0.1580
      6 O           4.9747    1.2332   -0.0141 O.2     1  UNL1       -0.1580
      7 N           2.4702    0.4991   -0.1790 N.3     1  UNL1       -0.1811
      8 C           1.5617   -0.5103   -0.6761 C.3     1  UNL1        0.0211
      9 C           0.2033    0.1613   -0.7898 C.3     1  UNL1       -0.0231
     10 C          -0.2191    0.7017    0.5216 C.3     1  UNL1        0.0650
     11 C          -0.6311   -0.5228    1.3691 C.3     1  UNL1        0.0259
     12 N          -1.7330   -1.1898    0.7314 N.am    1  UNL1       -0.3103
     13 C          -2.3024   -2.3842    1.2913 C.2     1  UNL1        0.2455
     14 O          -1.7727   -2.7956    2.3652 O.2     1  UNL1       -0.2702
     15 C          -3.4033   -3.0760    0.6792 C.ar    1  UNL1        0.0550
     16 C          -4.6427   -2.4919    0.5271 C.ar    1  UNL1       -0.0468
     17 C          -5.6448   -3.2275   -0.0688 C.ar    1  UNL1       -0.0426
     18 C          -5.4331   -4.5161   -0.5083 C.ar    1  UNL1        0.0424
     19 CL         -6.7298   -5.4136   -1.2575 Cl      1  UNL1       -0.0835
     20 C          -4.1984   -5.0954   -0.3556 C.ar    1  UNL1       -0.0243
     21 C          -3.1793   -4.3833    0.2363 C.ar    1  UNL1        0.0544
     22 CL         -1.5919   -5.1273    0.4329 Cl      1  UNL1       -0.0827
     23 C          -1.3834    1.6100    0.4648 C.2     1  UNL1        0.2235
     24 O          -2.3403    1.2909    1.2725 O.2     1  UNL1       -0.2749
     25 N          -1.5959    2.7282   -0.3100 N.am    1  UNL1       -0.2966
     26 C          -0.6942    3.2489   -1.2857 C.3     1  UNL1        0.0382
     27 C          -0.9790    4.7569   -1.3795 C.3     1  UNL1        0.0635
     28 O          -2.2346    5.0097   -1.9090 O.3     1  UNL1       -0.3767
     29 C          -3.2077    4.1607   -1.4494 C.3     1  UNL1        0.0635
     30 C          -2.8435    3.4817   -0.1501 C.3     1  UNL1        0.0382
     31 C           0.8545    1.4011    1.3259 C.3     1  UNL1       -0.0231
     32 C           2.2154    0.7662    1.1994 C.3     1  UNL1        0.0211
     33 H           7.2580    0.0848   -0.3751 H       1  UNL1        0.0230
     34 H           7.9553   -1.0543    0.8220 H       1  UNL1        0.0230
     35 H           6.5153   -0.1098    1.3116 H       1  UNL1        0.0230
     36 H           6.1556   -1.7337   -1.1518 H       1  UNL1        0.0279
     37 H           6.3695   -2.6833    0.3268 H       1  UNL1        0.0279
     38 H           4.0178   -2.2203   -0.2189 H       1  UNL1        0.0515
     39 H           4.3960   -1.4104    1.3486 H       1  UNL1        0.0515
     40 H           1.5169   -1.4215   -0.0764 H       1  UNL1        0.0444
     41 H           1.8808   -0.7477   -1.7134 H       1  UNL1        0.0444
     42 H          -0.5180   -0.5796   -1.1551 H       1  UNL1        0.0289
     43 H           0.3166    0.8935   -1.6142 H       1  UNL1        0.0289
     44 H           0.2316   -1.2191    1.4881 H       1  UNL1        0.0472
     45 H          -0.9784   -0.1307    2.3463 H       1  UNL1        0.0472
     46 H          -2.1380   -0.8011   -0.1365 H       1  UNL1        0.1490
     47 H          -4.7799   -1.4852    0.8791 H       1  UNL1        0.0626
     48 H          -6.6320   -2.7632   -0.1899 H       1  UNL1        0.0632
     49 H          -3.9823   -6.1173   -0.6892 H       1  UNL1        0.0647
     50 H          -0.9810    2.7664   -2.2614 H       1  UNL1        0.0487
     51 H           0.3708    3.1853   -1.0827 H       1  UNL1        0.0487
     52 H          -0.8429    5.1527   -0.3530 H       1  UNL1        0.0575
     53 H          -0.1633    5.1709   -2.0035 H       1  UNL1        0.0575
     54 H          -3.4779    3.3931   -2.1762 H       1  UNL1        0.0575
     55 H          -4.1115    4.7979   -1.2223 H       1  UNL1        0.0575
     56 H          -2.7285    4.2832    0.6200 H       1  UNL1        0.0487
     57 H          -3.6903    2.8248    0.1179 H       1  UNL1        0.0487
     58 H           0.4864    1.3553    2.3882 H       1  UNL1        0.0289
     59 H           0.8426    2.4717    1.0523 H       1  UNL1        0.0289
     60 H           2.1987   -0.1500    1.8328 H       1  UNL1        0.0444
     61 H           2.9508    1.4854    1.6057 H       1  UNL1        0.0444
@<TRIPOS>BOND
     1     1     2    1
     2     2     3    1
     3     3     4    1
     4     4     5    2
     5     4     6    2
     6     4     7    1
     7     7     8    1
     8     8     9    1
     9     9    10    1
    10    10    11    1
    11    11    12    1
    12    12    13   am
    13    13    14    2
    14    13    15    1
    15    15    16   ar
    16    16    17   ar
    17    17    18   ar
    18    18    19    1
    19    18    20   ar
    20    20    21   ar
    21    21    22    1
    22    10    23    1
    23    23    24    2
    24    23    25   am
    25    25    26    1
    26    26    27    1
    27    27    28    1
    28    28    29    1
    29    29    30    1
    30    10    31    1
    31    31    32    1
    32    32     7    1
    33    21    15   ar
    34    30    25    1
    35     1    33    1
    36     1    34    1
    37     1    35    1
    38     2    36    1
    39     2    37    1
    40     3    38    1
    41     3    39    1
    42     8    40    1
    43     8    41    1
    44     9    42    1
    45     9    43    1
    46    11    44    1
    47    11    45    1
    48    12    46    1
    49    16    47    1
    50    17    48    1
    51    20    49    1
    52    26    50    1
    53    26    51    1
    54    27    52    1
    55    27    53    1
    56    29    54    1
    57    29    55    1
    58    30    56    1
    59    30    57    1
    60    31    58    1
    61    31    59    1
    62    32    60    1
    63    32    61    1
