
     RDKit          3D

 25 26  0  0  0  0  0  0  0  0999 V2000
   -4.7336    0.7880   -0.3023 O   0  0  0  0  0  0  0  0  0  0  0  0
   -3.3942    0.4264   -0.2147 C   0  0  0  0  0  0  0  0  0  0  0  0
   -3.0312   -0.8514   -0.5445 C   0  0  0  0  0  0  0  0  0  0  0  0
   -1.6916   -1.2161   -0.4588 C   0  0  0  0  0  0  0  0  0  0  0  0
   -1.4602   -2.5437   -0.8224 O   0  0  0  0  0  0  0  0  0  0  0  0
   -0.6761   -0.3448   -0.0505 C   0  0  0  0  0  0  0  0  0  0  0  0
    0.6737   -0.8297    0.0292 C   0  0  0  0  0  0  0  0  0  0  0  0
    0.5673   -2.0864    0.2771 O   0  0  0  0  0  0  0  0  0  0  0  0
    1.9454   -0.2483   -0.1022 N   0  0  0  0  0  0  0  0  0  0  0  0
    2.4668    0.9542   -0.3721 C   0  0  0  0  0  0  0  0  0  0  0  0
    3.8392    1.0214   -0.3520 C   0  0  0  0  0  0  0  0  0  0  0  0
    4.1675   -0.2779   -0.0383 C   0  0  0  0  0  0  0  0  0  0  0  0
    3.0393   -1.0399    0.1116 C   0  0  0  0  0  0  0  0  0  0  0  0
   -1.1521    0.9052    0.2564 C   0  0  0  0  0  0  0  0  0  0  0  0
   -0.2980    1.9031    0.6882 O   0  0  0  0  0  0  0  0  0  0  0  0
   -2.4516    1.3373    0.1962 C   0  0  0  0  0  0  0  0  0  0  0  0
   -5.1545    1.1745    0.5327 H   0  0  0  0  0  0  0  0  0  0  0  0
   -3.7988   -1.5271   -0.8587 H   0  0  0  0  0  0  0  0  0  0  0  0
   -0.7741   -2.7329   -1.5295 H   0  0  0  0  0  0  0  0  0  0  0  0
    1.8829    1.8188   -0.6111 H   0  0  0  0  0  0  0  0  0  0  0  0
    4.4638    1.8626   -0.5333 H   0  0  0  0  0  0  0  0  0  0  0  0
    5.2109   -0.6169    0.0685 H   0  0  0  0  0  0  0  0  0  0  0  0
    3.1617   -2.1079    0.3654 H   0  0  0  0  0  0  0  0  0  0  0  0
   -0.0051    1.9136    1.6633 H   0  0  0  0  0  0  0  0  0  0  0  0
   -2.7971    2.3178    0.4399 H   0  0  0  0  0  0  0  0  0  0  0  0
  1  2  1  0
  2  3  2  0
  3  4  1  0
  4  5  1  0
  4  6  2  0
  6  7  1  0
  7  8  2  0
  7  9  1  0
  9 10  1  0
 10 11  2  0
 11 12  1  0
 12 13  2  0
  6 14  1  0
 14 15  1  0
 14 16  2  0
 16  2  1  0
 13  9  1  0
  1 17  1  0
  3 18  1  0
  5 19  1  0
 10 20  1  0
 11 21  1  0
 12 22  1  0
 13 23  1  0
 15 24  1  0
 16 25  1  0
M  END
$$$$
