@<TRIPOS>MOLECULE
*****
 25 26 0 0 0
SMALL
GASTEIGER

@<TRIPOS>ATOM
      1 O          -4.7336    0.7880   -0.3023 O.3     1  UNL1       -0.5065
      2 C          -3.3942    0.4264   -0.2147 C.ar    1  UNL1        0.1238
      3 C          -3.0312   -0.8514   -0.5445 C.ar    1  UNL1        0.0223
      4 C          -1.6916   -1.2161   -0.4588 C.ar    1  UNL1        0.1362
      5 O          -1.4602   -2.5437   -0.8224 O.3     1  UNL1       -0.5058
      6 C          -0.6761   -0.3448   -0.0505 C.ar    1  UNL1        0.1226
      7 C           0.6737   -0.8297    0.0292 C.2     1  UNL1        0.2695
      8 O           0.5673   -2.0864    0.2771 O.2     1  UNL1       -0.2664
      9 N           1.9454   -0.2483   -0.1022 N.ar    1  UNL1       -0.2902
     10 C           2.4668    0.9542   -0.3721 C.ar    1  UNL1        0.0127
     11 C           3.8392    1.0214   -0.3520 C.ar    1  UNL1       -0.0437
     12 C           4.1675   -0.2779   -0.0383 C.ar    1  UNL1       -0.0437
     13 C           3.0393   -1.0399    0.1116 C.ar    1  UNL1        0.0127
     14 C          -1.1521    0.9052    0.2564 C.ar    1  UNL1        0.1362
     15 O          -0.2980    1.9031    0.6882 O.3     1  UNL1       -0.5058
     16 C          -2.4516    1.3373    0.1962 C.ar    1  UNL1        0.0223
     17 H          -5.1545    1.1745    0.5327 H       1  UNL1        0.2921
     18 H          -3.7988   -1.5271   -0.8587 H       1  UNL1        0.0691
     19 H          -0.7741   -2.7329   -1.5295 H       1  UNL1        0.2922
     20 H           1.8829    1.8188   -0.6111 H       1  UNL1        0.0814
     21 H           4.4638    1.8626   -0.5333 H       1  UNL1        0.0633
     22 H           5.2109   -0.6169    0.0685 H       1  UNL1        0.0633
     23 H           3.1617   -2.1079    0.3654 H       1  UNL1        0.0814
     24 H          -0.0051    1.9136    1.6633 H       1  UNL1        0.2922
     25 H          -2.7971    2.3178    0.4399 H       1  UNL1        0.0691
@<TRIPOS>BOND
     1     1     2    1
     2     2     3   ar
     3     3     4   ar
     4     4     5    1
     5     4     6   ar
     6     6     7    1
     7     7     8    2
     8     7     9   am
     9     9    10   ar
    10    10    11   ar
    11    11    12   ar
    12    12    13   ar
    13     6    14   ar
    14    14    15    1
    15    14    16   ar
    16    16     2   ar
    17    13     9   ar
    18     1    17    1
    19     3    18    1
    20     5    19    1
    21    10    20    1
    22    11    21    1
    23    12    22    1
    24    13    23    1
    25    15    24    1
    26    16    25    1
