
     RDKit          3D

 52 51  0  0  0  0  0  0  0  0999 V2000
   -6.9208   -0.8374    1.2158 C   0  0  0  0  0  0  0  0  0  0  0  0
   -7.2045   -0.0414   -0.0013 C   0  0  0  0  0  0  0  0  0  0  0  0
   -8.6041    0.3351   -0.3819 C   0  0  0  0  0  0  0  0  0  0  0  0
   -6.1898    0.3604   -0.7944 C   0  0  0  0  0  0  0  0  0  0  0  0
   -4.8001    0.0038   -0.4437 C   0  0  0  0  0  0  0  0  0  0  0  0
   -3.9145    1.2356   -0.2273 C   0  0  0  0  0  0  0  0  0  0  0  0
   -2.5531    0.7372    0.1170 C   0  0  0  0  0  0  0  0  0  0  0  0
   -2.3631   -0.1071    1.3144 C   0  0  0  0  0  0  0  0  0  0  0  0
   -1.5316    1.0594   -0.6574 C   0  0  0  0  0  0  0  0  0  0  0  0
   -0.2024    0.5453   -0.2806 C   0  0  0  0  0  0  0  0  0  0  0  0
    0.7305    1.7090   -0.0377 C   0  0  0  0  0  0  0  0  0  0  0  0
    2.0513    1.1093    0.3381 C   0  0  0  0  0  0  0  0  0  0  0  0
    2.1084    0.2422    1.5477 C   0  0  0  0  0  0  0  0  0  0  0  0
    3.1771    1.2998   -0.3371 C   0  0  0  0  0  0  0  0  0  0  0  0
    4.4898    0.7021    0.0387 C   0  0  0  0  0  0  0  0  0  0  0  0
    4.9003   -0.0902   -1.0371 O   0  0  0  0  0  0  0  0  0  0  0  0
    6.3864   -0.8293   -0.7368 P   0  0  0  0  0  0  0  0  0  0  0  0
    6.1809   -2.0432    0.4311 O   0  0  0  0  0  0  0  0  0  0  0  0
    7.4192    0.1358   -0.2157 O   0  0  0  0  0  0  0  0  0  0  0  0
    6.8767   -1.5833   -2.1702 O   0  0  0  0  0  0  0  0  0  0  0  0
    8.5134   -2.0134   -1.9174 P   0  0  0  0  0  0  0  0  0  0  0  0
    9.4113   -0.5692   -2.0394 O   0  0  0  0  0  0  0  0  0  0  0  0
    8.5869   -2.6033   -0.3269 O   0  0  0  0  0  0  0  0  0  0  0  0
    8.9603   -3.0456   -2.9112 O   0  0  0  0  0  0  0  0  0  0  0  0
   -7.9014   -1.1672    1.6400 H   0  0  0  0  0  0  0  0  0  0  0  0
   -6.3537   -0.2502    1.9926 H   0  0  0  0  0  0  0  0  0  0  0  0
   -6.3596   -1.7861    0.9995 H   0  0  0  0  0  0  0  0  0  0  0  0
   -8.6166    0.8023   -1.3660 H   0  0  0  0  0  0  0  0  0  0  0  0
   -9.0664    1.0432    0.3409 H   0  0  0  0  0  0  0  0  0  0  0  0
   -9.2494   -0.5891   -0.4006 H   0  0  0  0  0  0  0  0  0  0  0  0
   -6.3805    0.9346   -1.6744 H   0  0  0  0  0  0  0  0  0  0  0  0
   -4.7444   -0.6780    0.4298 H   0  0  0  0  0  0  0  0  0  0  0  0
   -4.3728   -0.5582   -1.3047 H   0  0  0  0  0  0  0  0  0  0  0  0
   -3.9232    1.8289   -1.1446 H   0  0  0  0  0  0  0  0  0  0  0  0
   -4.2862    1.7858    0.6603 H   0  0  0  0  0  0  0  0  0  0  0  0
   -2.0147   -1.1305    1.0330 H   0  0  0  0  0  0  0  0  0  0  0  0
   -1.5847    0.3191    1.9969 H   0  0  0  0  0  0  0  0  0  0  0  0
   -3.3000   -0.1610    1.8981 H   0  0  0  0  0  0  0  0  0  0  0  0
   -1.6017    1.6733   -1.5479 H   0  0  0  0  0  0  0  0  0  0  0  0
    0.2304   -0.0105   -1.1593 H   0  0  0  0  0  0  0  0  0  0  0  0
   -0.2303   -0.1839    0.5446 H   0  0  0  0  0  0  0  0  0  0  0  0
    0.7896    2.2762   -0.9658 H   0  0  0  0  0  0  0  0  0  0  0  0
    0.3979    2.3783    0.7669 H   0  0  0  0  0  0  0  0  0  0  0  0
    2.4628   -0.7683    1.2403 H   0  0  0  0  0  0  0  0  0  0  0  0
    2.8426    0.6497    2.3012 H   0  0  0  0  0  0  0  0  0  0  0  0
    1.1394    0.1928    2.0614 H   0  0  0  0  0  0  0  0  0  0  0  0
    3.1466    1.9295   -1.2196 H   0  0  0  0  0  0  0  0  0  0  0  0
    5.2160    1.5360    0.2371 H   0  0  0  0  0  0  0  0  0  0  0  0
    4.4383    0.1425    0.9809 H   0  0  0  0  0  0  0  0  0  0  0  0
    5.7036   -2.8363    0.0811 H   0  0  0  0  0  0  0  0  0  0  0  0
    8.8499    0.2130   -2.2369 H   0  0  0  0  0  0  0  0  0  0  0  0
    9.2602   -3.2970   -0.2375 H   0  0  0  0  0  0  0  0  0  0  0  0
  1  2  1  0
  2  3  1  0
  2  4  2  3
  4  5  1  0
  5  6  1  0
  6  7  1  0
  7  8  1  0
  7  9  2  0
  9 10  1  0
 10 11  1  0
 11 12  1  0
 12 13  1  0
 12 14  2  0
 14 15  1  0
 15 16  1  0
 16 17  1  0
 17 18  1  0
 17 19  2  0
 17 20  1  0
 20 21  1  0
 21 22  1  0
 21 23  1  0
 21 24  2  0
  1 25  1  0
  1 26  1  0
  1 27  1  0
  3 28  1  0
  3 29  1  0
  3 30  1  0
  4 31  1  0
  5 32  1  0
  5 33  1  0
  6 34  1  0
  6 35  1  0
  8 36  1  0
  8 37  1  0
  8 38  1  0
  9 39  1  0
 10 40  1  0
 10 41  1  0
 11 42  1  0
 11 43  1  0
 13 44  1  0
 13 45  1  0
 13 46  1  0
 14 47  1  0
 15 48  1  0
 15 49  1  0
 18 50  1  0
 22 51  1  0
 23 52  1  0
M  END
$$$$
