@<TRIPOS>MOLECULE
*****
 50 52 0 0 0
SMALL
GASTEIGER

@<TRIPOS>ATOM
      1 C           1.8295    2.2615   -2.8276 C.3     1  UNL1        0.0788
      2 O           2.4365    1.3686   -1.9275 O.3     1  UNL1       -0.4947
      3 C           1.6397    0.6374   -1.0252 C.ar    1  UNL1        0.1285
      4 C           0.2582    0.8046   -1.0318 C.ar    1  UNL1       -0.0116
      5 C          -0.5297    0.0878   -0.1465 C.ar    1  UNL1       -0.0090
      6 C          -1.9613    0.3070   -0.1540 C.ar    1  UNL1        0.0064
      7 C          -2.4850    1.5923    0.0526 C.ar    1  UNL1        0.0159
      8 N          -3.8096    1.7825    0.0819 N.ar    1  UNL1       -0.3172
      9 C          -4.3335    3.1165    0.2964 C.3     1  UNL1        0.0147
     10 C          -4.6453    0.7439   -0.0865 C.ar    1  UNL1        0.2588
     11 O          -5.8905    0.9243   -0.0581 O.2     1  UNL1       -0.2670
     12 C          -4.2026   -0.5500   -0.2954 C.ar    1  UNL1        0.0472
     13 C          -5.0588   -1.5926   -0.4744 C.ar    1  UNL1       -0.0488
     14 C          -4.6066   -2.8601   -0.6901 C.ar    1  UNL1       -0.0610
     15 C          -3.2510   -3.0990   -0.7294 C.ar    1  UNL1       -0.0611
     16 C          -2.3758   -2.0176   -0.5436 C.ar    1  UNL1       -0.0532
     17 C          -2.8162   -0.7521   -0.3269 C.ar    1  UNL1       -0.0036
     18 C           0.0720   -0.7829    0.7304 C.ar    1  UNL1       -0.0116
     19 C           1.4447   -0.9619    0.7507 C.ar    1  UNL1        0.1285
     20 O           2.0220   -1.8509    1.6499 O.3     1  UNL1       -0.4947
     21 C           1.1754   -2.5562    2.5304 C.3     1  UNL1        0.0788
     22 C           2.2394   -0.2373   -0.1444 C.ar    1  UNL1        0.0497
     23 C           3.6897   -0.4418   -0.1041 C.3     1  UNL1        0.0304
     24 N           4.4058    0.6302    0.5393 N.3     1  UNL1       -0.3039
     25 C           5.8183    0.2970    0.5092 C.3     1  UNL1       -0.0127
     26 C           4.0306    0.8099    1.9200 C.3     1  UNL1       -0.0127
     27 H           1.3299    3.0445   -2.2149 H       1  UNL1        0.0660
     28 H           2.6750    2.7884   -3.3603 H       1  UNL1        0.0660
     29 H           1.1707    1.7938   -3.5612 H       1  UNL1        0.0660
     30 H          -0.1440    1.5012   -1.7431 H       1  UNL1        0.0660
     31 H          -1.7707    2.3924    0.1824 H       1  UNL1        0.0816
     32 H          -3.5119    3.8071    0.5752 H       1  UNL1        0.0457
     33 H          -4.8617    3.4963   -0.6067 H       1  UNL1        0.0457
     34 H          -5.0482    3.0570    1.1602 H       1  UNL1        0.0457
     35 H          -6.1265   -1.3674   -0.4373 H       1  UNL1        0.0625
     36 H          -5.3072   -3.6724   -0.8294 H       1  UNL1        0.0618
     37 H          -2.8201   -4.0664   -0.8944 H       1  UNL1        0.0618
     38 H          -1.3168   -2.2127   -0.5904 H       1  UNL1        0.0624
     39 H          -0.5189   -1.3655    1.4573 H       1  UNL1        0.0660
     40 H           0.6438   -1.8141    3.1481 H       1  UNL1        0.0660
     41 H           0.3812   -3.1228    1.9632 H       1  UNL1        0.0660
     42 H           1.7134   -3.3196    3.1175 H       1  UNL1        0.0660
     43 H           4.0588   -0.4941   -1.1492 H       1  UNL1        0.0478
     44 H           3.9039   -1.3806    0.4403 H       1  UNL1        0.0478
     45 H           6.1022   -0.2474   -0.4131 H       1  UNL1        0.0391
     46 H           6.0056   -0.4298    1.3469 H       1  UNL1        0.0391
     47 H           6.4546    1.1704    0.7074 H       1  UNL1        0.0391
     48 H           4.2617   -0.0372    2.5684 H       1  UNL1        0.0391
     49 H           2.9780    1.1451    2.0418 H       1  UNL1        0.0391
     50 H           4.6512    1.6729    2.2974 H       1  UNL1        0.0391
@<TRIPOS>BOND
     1     1     2    1
     2     2     3    1
     3     3     4   ar
     4     4     5   ar
     5     5     6    1
     6     6     7   ar
     7     7     8   ar
     8     8     9    1
     9     8    10   ar
    10    10    11    2
    11    10    12   ar
    12    12    13   ar
    13    13    14   ar
    14    14    15   ar
    15    15    16   ar
    16    16    17   ar
    17     5    18   ar
    18    18    19   ar
    19    19    20    1
    20    20    21    1
    21    19    22   ar
    22    22    23    1
    23    23    24    1
    24    24    25    1
    25    24    26    1
    26    22     3   ar
    27    17     6   ar
    28    17    12   ar
    29     1    27    1
    30     1    28    1
    31     1    29    1
    32     4    30    1
    33     7    31    1
    34     9    32    1
    35     9    33    1
    36     9    34    1
    37    13    35    1
    38    14    36    1
    39    15    37    1
    40    16    38    1
    41    18    39    1
    42    21    40    1
    43    21    41    1
    44    21    42    1
    45    23    43    1
    46    23    44    1
    47    25    45    1
    48    25    46    1
    49    25    47    1
    50    26    48    1
    51    26    49    1
    52    26    50    1
