@<TRIPOS>MOLECULE
*****
 61 66 0 0 0
SMALL
GASTEIGER

@<TRIPOS>ATOM
      1 C          10.3722    1.6973    1.0280 C.3     1  UNL1        0.0805
      2 O           9.5572    0.6846    1.5764 O.3     1  UNL1       -0.4786
      3 C           8.3241    0.4412    1.0417 C.ar    1  UNL1        0.2332
      4 C           7.5238   -0.5386    1.5648 C.ar    1  UNL1        0.0899
      5 N           6.2911   -0.7686    1.0161 N.ar    1  UNL1       -0.2435
      6 C           5.8580   -0.0476   -0.0255 C.ar    1  UNL1        0.1439
      7 C           4.5507   -0.3132   -0.5838 C.2     1  UNL1        0.2681
      8 O           4.1108    0.3474   -1.5662 O.2     1  UNL1       -0.2681
      9 N           3.7119   -1.3302   -0.0454 N.am    1  UNL1       -0.2802
     10 C           2.4175   -1.6062   -0.5841 C.ar    1  UNL1        0.0343
     11 C           2.2023   -2.5200   -1.5924 C.ar    1  UNL1       -0.0370
     12 C           0.9376   -2.7323   -2.0587 C.ar    1  UNL1       -0.0172
     13 C          -0.1799   -2.0531   -1.5531 C.ar    1  UNL1        0.1346
     14 C           0.0219   -1.1432   -0.5504 C.ar    1  UNL1        0.0287
     15 C           1.3090   -0.9353   -0.0853 C.ar    1  UNL1       -0.0312
     16 C          -1.1300   -0.4071    0.0240 C.3     1  UNL1        0.1265
     17 C          -1.3177   -0.7329    1.4808 C.3     1  UNL1        0.0155
     18 C          -0.9003    0.3311    2.4496 C.3     1  UNL1        0.0953
     19 O          -1.3198    1.5887    1.9886 O.2     1  UNL1       -0.4658
     20 C          -0.9722    1.9253    0.6687 C.2     1  UNL1        0.2763
     21 N          -0.7174    3.2805    0.3312 N.pl3   1  UNL1       -0.3134
     22 N          -0.8880    0.9966   -0.2264 N.2     1  UNL1       -0.2205
     23 C          -2.4141   -0.7841   -0.6446 C.ar    1  UNL1        0.0334
     24 C          -3.5545   -0.1248   -0.1717 C.ar    1  UNL1       -0.0265
     25 C          -4.7574   -0.4509   -0.7535 C.ar    1  UNL1        0.0705
     26 C          -5.9617    0.2085   -0.2851 C.2     1  UNL1       -0.0215
     27 C          -7.1186   -0.0824   -0.8547 C.2     1  UNL1       -0.0534
     28 C          -8.3280    0.5921   -0.3721 C.3     1  UNL1        0.0665
     29 O          -8.4063    0.8102    0.9705 O.3     1  UNL1       -0.3754
     30 C          -7.2460    0.9935    1.6547 C.3     1  UNL1        0.0521
     31 C          -6.0102    1.2005    0.8080 C.3     1  UNL1       -0.0024
     32 N          -4.8749   -1.3517   -1.7297 N.ar    1  UNL1       -0.2164
     33 C          -3.8021   -1.9909   -2.1950 C.ar    1  UNL1        0.2566
     34 F          -3.9006   -2.9107   -3.1876 F       1  UNL1       -0.1799
     35 C          -2.5537   -1.6985   -1.6400 C.ar    1  UNL1        0.1883
     36 O          -1.4240   -2.3430   -2.1019 O.3     1  UNL1       -0.4508
     37 C           6.6551    0.9363   -0.5550 C.ar    1  UNL1        0.0619
     38 N           7.8729    1.1517   -0.0005 N.ar    1  UNL1       -0.2178
     39 H           9.8157    2.3296    0.2979 H       1  UNL1        0.0660
     40 H          10.6844    2.3726    1.8537 H       1  UNL1        0.0660
     41 H          11.2202    1.2232    0.5128 H       1  UNL1        0.0660
     42 H           7.8584   -1.1299    2.4058 H       1  UNL1        0.0884
     43 H           4.0962   -1.8681    0.7711 H       1  UNL1        0.1552
     44 H           3.0739   -3.0384   -1.9744 H       1  UNL1        0.0637
     45 H           0.7788   -3.4506   -2.8493 H       1  UNL1        0.0655
     46 H           1.4613   -0.2068    0.7060 H       1  UNL1        0.0641
     47 H          -2.3747   -1.0720    1.6936 H       1  UNL1        0.0328
     48 H          -0.6594   -1.6155    1.6827 H       1  UNL1        0.0328
     49 H          -1.3837    0.0723    3.4296 H       1  UNL1        0.0698
     50 H           0.1931    0.2890    2.6114 H       1  UNL1        0.0698
     51 H          -1.5060    3.9532    0.2758 H       1  UNL1        0.1466
     52 H           0.2433    3.5786    0.1460 H       1  UNL1        0.1466
     53 H          -3.4590    0.6069    0.6162 H       1  UNL1        0.0644
     54 H          -7.1550   -0.7989   -1.6519 H       1  UNL1        0.0598
     55 H          -9.2051   -0.0639   -0.6502 H       1  UNL1        0.0604
     56 H          -8.4472    1.5532   -0.9145 H       1  UNL1        0.0604
     57 H          -7.3552    1.9328    2.2717 H       1  UNL1        0.0563
     58 H          -7.0436    0.1746    2.3662 H       1  UNL1        0.0563
     59 H          -5.9339    2.2380    0.4258 H       1  UNL1        0.0336
     60 H          -5.1555    1.0677    1.5010 H       1  UNL1        0.0336
     61 H           6.3144    1.5324   -1.4051 H       1  UNL1        0.0854
@<TRIPOS>BOND
     1     1     2    1
     2     2     3    1
     3     3     4   ar
     4     4     5   ar
     5     5     6   ar
     6     6     7    1
     7     7     8    2
     8     7     9   am
     9     9    10    1
    10    10    11   ar
    11    11    12   ar
    12    12    13   ar
    13    13    14   ar
    14    14    15   ar
    15    14    16    1
    16    16    17    1
    17    17    18    1
    18    18    19    1
    19    19    20    1
    20    20    21    1
    21    20    22    2
    22    16    23    1
    23    23    24   ar
    24    24    25   ar
    25    25    26    1
    26    26    27    2
    27    27    28    1
    28    28    29    1
    29    29    30    1
    30    30    31    1
    31    25    32   ar
    32    32    33   ar
    33    33    34    1
    34    33    35   ar
    35    35    36    1
    36     6    37   ar
    37    37    38   ar
    38    38     3   ar
    39    15    10   ar
    40    22    16    1
    41    35    23   ar
    42    36    13    1
    43    31    26    1
    44     1    39    1
    45     1    40    1
    46     1    41    1
    47     4    42    1
    48     9    43    1
    49    11    44    1
    50    12    45    1
    51    15    46    1
    52    17    47    1
    53    17    48    1
    54    18    49    1
    55    18    50    1
    56    21    51    1
    57    21    52    1
    58    24    53    1
    59    27    54    1
    60    28    55    1
    61    28    56    1
    62    30    57    1
    63    30    58    1
    64    31    59    1
    65    31    60    1
    66    37    61    1
