
     RDKit          3D

 61 66  0  0  0  0  0  0  0  0999 V2000
   10.3722    1.6973    1.0280 C   0  0  0  0  0  0  0  0  0  0  0  0
    9.5572    0.6846    1.5764 O   0  0  0  0  0  0  0  0  0  0  0  0
    8.3241    0.4412    1.0417 C   0  0  0  0  0  0  0  0  0  0  0  0
    7.5238   -0.5386    1.5648 C   0  0  0  0  0  0  0  0  0  0  0  0
    6.2911   -0.7686    1.0161 N   0  0  0  0  0  0  0  0  0  0  0  0
    5.8580   -0.0476   -0.0255 C   0  0  0  0  0  0  0  0  0  0  0  0
    4.5507   -0.3132   -0.5838 C   0  0  0  0  0  0  0  0  0  0  0  0
    4.1108    0.3474   -1.5662 O   0  0  0  0  0  0  0  0  0  0  0  0
    3.7119   -1.3302   -0.0454 N   0  0  0  0  0  0  0  0  0  0  0  0
    2.4175   -1.6062   -0.5841 C   0  0  0  0  0  0  0  0  0  0  0  0
    2.2023   -2.5200   -1.5924 C   0  0  0  0  0  0  0  0  0  0  0  0
    0.9376   -2.7323   -2.0587 C   0  0  0  0  0  0  0  0  0  0  0  0
   -0.1799   -2.0531   -1.5531 C   0  0  0  0  0  0  0  0  0  0  0  0
    0.0219   -1.1432   -0.5504 C   0  0  0  0  0  0  0  0  0  0  0  0
    1.3090   -0.9353   -0.0853 C   0  0  0  0  0  0  0  0  0  0  0  0
   -1.1300   -0.4071    0.0240 C   0  0  0  0  0  0  0  0  0  0  0  0
   -1.3177   -0.7329    1.4808 C   0  0  0  0  0  0  0  0  0  0  0  0
   -0.9003    0.3311    2.4496 C   0  0  0  0  0  0  0  0  0  0  0  0
   -1.3198    1.5887    1.9886 O   0  0  0  0  0  0  0  0  0  0  0  0
   -0.9722    1.9253    0.6687 C   0  0  0  0  0  0  0  0  0  0  0  0
   -0.7174    3.2805    0.3312 N   0  0  0  0  0  0  0  0  0  0  0  0
   -0.8880    0.9966   -0.2264 N   0  0  0  0  0  0  0  0  0  0  0  0
   -2.4141   -0.7841   -0.6446 C   0  0  0  0  0  0  0  0  0  0  0  0
   -3.5545   -0.1248   -0.1717 C   0  0  0  0  0  0  0  0  0  0  0  0
   -4.7574   -0.4509   -0.7535 C   0  0  0  0  0  0  0  0  0  0  0  0
   -5.9617    0.2085   -0.2851 C   0  0  0  0  0  0  0  0  0  0  0  0
   -7.1186   -0.0824   -0.8547 C   0  0  0  0  0  0  0  0  0  0  0  0
   -8.3280    0.5921   -0.3721 C   0  0  0  0  0  0  0  0  0  0  0  0
   -8.4063    0.8102    0.9705 O   0  0  0  0  0  0  0  0  0  0  0  0
   -7.2460    0.9935    1.6547 C   0  0  0  0  0  0  0  0  0  0  0  0
   -6.0102    1.2005    0.8080 C   0  0  0  0  0  0  0  0  0  0  0  0
   -4.8749   -1.3517   -1.7297 N   0  0  0  0  0  0  0  0  0  0  0  0
   -3.8021   -1.9909   -2.1950 C   0  0  0  0  0  0  0  0  0  0  0  0
   -3.9006   -2.9107   -3.1876 F   0  0  0  0  0  0  0  0  0  0  0  0
   -2.5537   -1.6985   -1.6400 C   0  0  0  0  0  0  0  0  0  0  0  0
   -1.4240   -2.3430   -2.1019 O   0  0  0  0  0  0  0  0  0  0  0  0
    6.6551    0.9363   -0.5550 C   0  0  0  0  0  0  0  0  0  0  0  0
    7.8729    1.1517   -0.0005 N   0  0  0  0  0  0  0  0  0  0  0  0
    9.8157    2.3296    0.2979 H   0  0  0  0  0  0  0  0  0  0  0  0
   10.6844    2.3726    1.8537 H   0  0  0  0  0  0  0  0  0  0  0  0
   11.2202    1.2232    0.5128 H   0  0  0  0  0  0  0  0  0  0  0  0
    7.8584   -1.1299    2.4058 H   0  0  0  0  0  0  0  0  0  0  0  0
    4.0962   -1.8681    0.7711 H   0  0  0  0  0  0  0  0  0  0  0  0
    3.0739   -3.0384   -1.9744 H   0  0  0  0  0  0  0  0  0  0  0  0
    0.7788   -3.4506   -2.8493 H   0  0  0  0  0  0  0  0  0  0  0  0
    1.4613   -0.2068    0.7060 H   0  0  0  0  0  0  0  0  0  0  0  0
   -2.3747   -1.0720    1.6936 H   0  0  0  0  0  0  0  0  0  0  0  0
   -0.6594   -1.6155    1.6827 H   0  0  0  0  0  0  0  0  0  0  0  0
   -1.3837    0.0723    3.4296 H   0  0  0  0  0  0  0  0  0  0  0  0
    0.1931    0.2890    2.6114 H   0  0  0  0  0  0  0  0  0  0  0  0
   -1.5060    3.9532    0.2758 H   0  0  0  0  0  0  0  0  0  0  0  0
    0.2433    3.5786    0.1460 H   0  0  0  0  0  0  0  0  0  0  0  0
   -3.4590    0.6069    0.6162 H   0  0  0  0  0  0  0  0  0  0  0  0
   -7.1550   -0.7989   -1.6519 H   0  0  0  0  0  0  0  0  0  0  0  0
   -9.2051   -0.0639   -0.6502 H   0  0  0  0  0  0  0  0  0  0  0  0
   -8.4472    1.5532   -0.9145 H   0  0  0  0  0  0  0  0  0  0  0  0
   -7.3552    1.9328    2.2717 H   0  0  0  0  0  0  0  0  0  0  0  0
   -7.0436    0.1746    2.3662 H   0  0  0  0  0  0  0  0  0  0  0  0
   -5.9339    2.2380    0.4258 H   0  0  0  0  0  0  0  0  0  0  0  0
   -5.1555    1.0677    1.5010 H   0  0  0  0  0  0  0  0  0  0  0  0
    6.3144    1.5324   -1.4051 H   0  0  0  0  0  0  0  0  0  0  0  0
  1  2  1  0
  2  3  1  0
  3  4  2  0
  4  5  1  0
  5  6  2  0
  6  7  1  0
  7  8  2  0
  7  9  1  0
  9 10  1  0
 10 11  2  0
 11 12  1  0
 12 13  2  0
 13 14  1  0
 14 15  2  0
 14 16  1  0
 16 17  1  0
 17 18  1  0
 18 19  1  0
 19 20  1  0
 20 21  1  0
 20 22  2  0
 16 23  1  0
 23 24  2  0
 24 25  1  0
 25 26  1  0
 26 27  2  0
 27 28  1  0
 28 29  1  0
 29 30  1  0
 30 31  1  0
 25 32  2  0
 32 33  1  0
 33 34  1  0
 33 35  2  0
 35 36  1  0
  6 37  1  0
 37 38  2  0
 38  3  1  0
 15 10  1  0
 22 16  1  0
 35 23  1  0
 36 13  1  0
 31 26  1  0
  1 39  1  0
  1 40  1  0
  1 41  1  0
  4 42  1  0
  9 43  1  0
 11 44  1  0
 12 45  1  0
 15 46  1  0
 17 47  1  0
 17 48  1  0
 18 49  1  0
 18 50  1  0
 21 51  1  0
 21 52  1  0
 24 53  1  0
 27 54  1  0
 28 55  1  0
 28 56  1  0
 30 57  1  0
 30 58  1  0
 31 59  1  0
 31 60  1  0
 37 61  1  0
M  END
$$$$
