
     RDKit          3D

 30 32  0  0  0  0  0  0  0  0999 V2000
   -1.8600   -2.6304   -0.4269 O   0  0  0  0  0  0  0  0  0  0  0  0
   -1.1900   -1.5714   -0.2262 C   0  0  0  0  0  0  0  0  0  0  0  0
    0.1905   -1.6129   -0.2313 C   0  0  0  0  0  0  0  0  0  0  0  0
    0.9073   -0.4641   -0.0136 C   0  0  0  0  0  0  0  0  0  0  0  0
    2.3451   -0.4463   -0.0075 C   0  0  0  0  0  0  0  0  0  0  0  0
    3.1015   -1.5614   -0.2160 C   0  0  0  0  0  0  0  0  0  0  0  0
    4.4893   -1.4932   -0.2005 C   0  0  0  0  0  0  0  0  0  0  0  0
    5.1636   -0.3154    0.0226 C   0  0  0  0  0  0  0  0  0  0  0  0
    4.4013    0.8254    0.2359 C   0  0  0  0  0  0  0  0  0  0  0  0
    3.0242    0.7493    0.2190 C   0  0  0  0  0  0  0  0  0  0  0  0
    0.2346    0.6584    0.1966 O   0  0  0  0  0  0  0  0  0  0  0  0
   -1.0564    0.7396    0.2094 C   0  0  0  0  0  0  0  0  0  0  0  0
   -1.7354    1.9389    0.4340 C   0  0  0  0  0  0  0  0  0  0  0  0
   -3.1128    2.0101    0.4447 C   0  0  0  0  0  0  0  0  0  0  0  0
   -3.7768    3.2116    0.6698 O   0  0  0  0  0  0  0  0  0  0  0  0
   -3.8727    0.8790    0.2303 C   0  0  0  0  0  0  0  0  0  0  0  0
   -5.2684    0.9052    0.2325 O   0  0  0  0  0  0  0  0  0  0  0  0
   -3.2197   -0.3256    0.0046 C   0  0  0  0  0  0  0  0  0  0  0  0
   -3.9104   -1.5134   -0.2204 O   0  0  0  0  0  0  0  0  0  0  0  0
   -1.8373   -0.3677   -0.0007 C   0  0  0  0  0  0  0  0  0  0  0  0
    0.6482   -2.5624   -0.4093 H   0  0  0  0  0  0  0  0  0  0  0  0
    2.6700   -2.5286   -0.3990 H   0  0  0  0  0  0  0  0  0  0  0  0
    5.0969   -2.3846   -0.3673 H   0  0  0  0  0  0  0  0  0  0  0  0
    6.2526   -0.2777    0.0317 H   0  0  0  0  0  0  0  0  0  0  0  0
    4.9461    1.7398    0.4092 H   0  0  0  0  0  0  0  0  0  0  0  0
    2.4773    1.6698    0.3913 H   0  0  0  0  0  0  0  0  0  0  0  0
   -1.1543    2.8264    0.6022 H   0  0  0  0  0  0  0  0  0  0  0  0
   -4.2147    3.3801    1.5885 H   0  0  0  0  0  0  0  0  0  0  0  0
   -5.7562    0.3166    0.9061 H   0  0  0  0  0  0  0  0  0  0  0  0
   -3.9833   -1.7951   -1.2073 H   0  0  0  0  0  0  0  0  0  0  0  0
  1  2  2  0
  2  3  1  0
  3  4  2  0
  4  5  1  0
  5  6  2  0
  6  7  1  0
  7  8  2  0
  8  9  1  0
  9 10  2  0
  4 11  1  0
 11 12  1  0
 12 13  2  0
 13 14  1  0
 14 15  1  0
 14 16  2  0
 16 17  1  0
 16 18  1  0
 18 19  1  0
 18 20  2  0
 20  2  1  0
 10  5  1  0
 20 12  1  0
  3 21  1  0
  6 22  1  0
  7 23  1  0
  8 24  1  0
  9 25  1  0
 10 26  1  0
 13 27  1  0
 15 28  1  0
 17 29  1  0
 19 30  1  0
M  END
$$$$
