@<TRIPOS>MOLECULE
*****
 30 32 0 0 0
SMALL
GASTEIGER

@<TRIPOS>ATOM
      1 O          -1.8600   -2.6304   -0.4269 O.2     1  UNL1       -0.2869
      2 C          -1.1900   -1.5714   -0.2262 C.ar    1  UNL1        0.1967
      3 C           0.1905   -1.6129   -0.2313 C.ar    1  UNL1        0.0288
      4 C           0.9073   -0.4641   -0.0136 C.ar    1  UNL1        0.1392
      5 C           2.3451   -0.4463   -0.0075 C.ar    1  UNL1        0.0174
      6 C           3.1015   -1.5614   -0.2160 C.ar    1  UNL1       -0.0511
      7 C           4.4893   -1.4932   -0.2005 C.ar    1  UNL1       -0.0611
      8 C           5.1636   -0.3154    0.0226 C.ar    1  UNL1       -0.0617
      9 C           4.4013    0.8254    0.2359 C.ar    1  UNL1       -0.0611
     10 C           3.0242    0.7493    0.2190 C.ar    1  UNL1       -0.0511
     11 O           0.2346    0.6584    0.1966 O.2     1  UNL1       -0.4544
     12 C          -1.0564    0.7396    0.2094 C.ar    1  UNL1        0.1465
     13 C          -1.7354    1.9389    0.4340 C.ar    1  UNL1        0.0268
     14 C          -3.1128    2.0101    0.4447 C.ar    1  UNL1        0.1655
     15 O          -3.7768    3.2116    0.6698 O.3     1  UNL1       -0.5031
     16 C          -3.8727    0.8790    0.2303 C.ar    1  UNL1        0.2015
     17 O          -5.2684    0.9052    0.2325 O.3     1  UNL1       -0.5009
     18 C          -3.2197   -0.3256    0.0046 C.ar    1  UNL1        0.1766
     19 O          -3.9104   -1.5134   -0.2204 O.3     1  UNL1       -0.5027
     20 C          -1.8373   -0.3677   -0.0007 C.ar    1  UNL1        0.1091
     21 H           0.6482   -2.5624   -0.4093 H       1  UNL1        0.0693
     22 H           2.6700   -2.5286   -0.3990 H       1  UNL1        0.0625
     23 H           5.0969   -2.3846   -0.3673 H       1  UNL1        0.0618
     24 H           6.2526   -0.2777    0.0317 H       1  UNL1        0.0618
     25 H           4.9461    1.7398    0.4092 H       1  UNL1        0.0618
     26 H           2.4773    1.6698    0.3913 H       1  UNL1        0.0625
     27 H          -1.1543    2.8264    0.6022 H       1  UNL1        0.0692
     28 H          -4.2147    3.3801    1.5885 H       1  UNL1        0.2923
     29 H          -5.7562    0.3166    0.9061 H       1  UNL1        0.2924
     30 H          -3.9833   -1.7951   -1.2073 H       1  UNL1        0.2923
@<TRIPOS>BOND
     1     1     2    2
     2     2     3   ar
     3     3     4   ar
     4     4     5    1
     5     5     6   ar
     6     6     7   ar
     7     7     8   ar
     8     8     9   ar
     9     9    10   ar
    10     4    11   ar
    11    11    12   ar
    12    12    13   ar
    13    13    14   ar
    14    14    15    1
    15    14    16   ar
    16    16    17    1
    17    16    18   ar
    18    18    19    1
    19    18    20   ar
    20    20     2   ar
    21    10     5   ar
    22    20    12   ar
    23     3    21    1
    24     6    22    1
    25     7    23    1
    26     8    24    1
    27     9    25    1
    28    10    26    1
    29    13    27    1
    30    15    28    1
    31    17    29    1
    32    19    30    1
