
     RDKit          3D

 44 47  0  0  0  0  0  0  0  0999 V2000
    1.0178    2.2136   -2.2197 N   0  0  0  0  0  0  0  0  0  0  0  0
    1.1907    1.1784   -1.2083 C   0  0  0  0  0  0  0  0  0  0  0  0
    2.6577    0.9831   -1.0078 C   0  0  0  0  0  0  0  0  0  0  0  0
    2.9963   -0.0393   -0.0077 C   0  0  0  0  0  0  0  0  0  0  0  0
    3.1542    0.2891    1.3182 C   0  0  0  0  0  0  0  0  0  0  0  0
    3.4757   -0.6768    2.2725 C   0  0  0  0  0  0  0  0  0  0  0  0
    3.6408   -1.9872    1.8936 C   0  0  0  0  0  0  0  0  0  0  0  0
    4.0430   -3.2167    3.0654 Cl  0  0  0  0  0  0  0  0  0  0  0  0
    3.4858   -2.3363    0.5637 C   0  0  0  0  0  0  0  0  0  0  0  0
    3.1638   -1.3478   -0.3699 C   0  0  0  0  0  0  0  0  0  0  0  0
    0.4921   -0.0663   -1.6880 C   0  0  0  0  0  0  0  0  0  0  0  0
   -0.9832    0.1114   -1.7288 C   0  0  0  0  0  0  0  0  0  0  0  0
   -1.5278    0.9426   -0.7173 N   0  0  0  0  0  0  0  0  0  0  0  0
   -2.7706    0.6197   -0.1293 C   0  0  0  0  0  0  0  0  0  0  0  0
   -3.8445    1.4406   -0.1770 N   0  0  0  0  0  0  0  0  0  0  0  0
   -5.0294    1.1337    0.3831 C   0  0  0  0  0  0  0  0  0  0  0  0
   -5.2233   -0.0104    1.0275 N   0  0  0  0  0  0  0  0  0  0  0  0
   -4.1946   -0.8875    1.1190 C   0  0  0  0  0  0  0  0  0  0  0  0
   -4.1269   -2.1046    1.7109 N   0  0  0  0  0  0  0  0  0  0  0  0
   -2.8831   -2.5859    1.5289 C   0  0  0  0  0  0  0  0  0  0  0  0
   -2.1503   -1.6555    0.8083 C   0  0  0  0  0  0  0  0  0  0  0  0
   -2.9741   -0.5866    0.5498 C   0  0  0  0  0  0  0  0  0  0  0  0
   -0.8299    2.1225   -0.2735 C   0  0  0  0  0  0  0  0  0  0  0  0
    0.5879    1.7169    0.0723 C   0  0  0  0  0  0  0  0  0  0  0  0
    1.3772    1.8378   -3.1343 H   0  0  0  0  0  0  0  0  0  0  0  0
    1.7111    2.9754   -1.9594 H   0  0  0  0  0  0  0  0  0  0  0  0
    3.0928    0.7395   -2.0219 H   0  0  0  0  0  0  0  0  0  0  0  0
    3.0939    1.9837   -0.7605 H   0  0  0  0  0  0  0  0  0  0  0  0
    3.0398    1.3016    1.6928 H   0  0  0  0  0  0  0  0  0  0  0  0
    3.6006   -0.4265    3.3117 H   0  0  0  0  0  0  0  0  0  0  0  0
    3.6241   -3.3756    0.3084 H   0  0  0  0  0  0  0  0  0  0  0  0
    3.0547   -1.6719   -1.3899 H   0  0  0  0  0  0  0  0  0  0  0  0
    0.7748   -0.9693   -1.1188 H   0  0  0  0  0  0  0  0  0  0  0  0
    0.8460   -0.2420   -2.7394 H   0  0  0  0  0  0  0  0  0  0  0  0
   -1.3113    0.5313   -2.7233 H   0  0  0  0  0  0  0  0  0  0  0  0
   -1.4436   -0.9204   -1.7164 H   0  0  0  0  0  0  0  0  0  0  0  0
   -5.8790    1.8180    0.3278 H   0  0  0  0  0  0  0  0  0  0  0  0
   -4.9326   -2.5416    2.2071 H   0  0  0  0  0  0  0  0  0  0  0  0
   -2.5449   -3.5246    1.8876 H   0  0  0  0  0  0  0  0  0  0  0  0
   -1.1167   -1.7599    0.5078 H   0  0  0  0  0  0  0  0  0  0  0  0
   -0.7389    2.7883   -1.1793 H   0  0  0  0  0  0  0  0  0  0  0  0
   -1.3368    2.6754    0.5128 H   0  0  0  0  0  0  0  0  0  0  0  0
    1.1536    2.6085    0.3705 H   0  0  0  0  0  0  0  0  0  0  0  0
    0.5665    0.9211    0.8311 H   0  0  0  0  0  0  0  0  0  0  0  0
  1  2  1  0
  2  3  1  0
  3  4  1  0
  4  5  2  0
  5  6  1  0
  6  7  2  0
  7  8  1  0
  7  9  1  0
  9 10  2  0
  2 11  1  0
 11 12  1  0
 12 13  1  0
 13 14  1  0
 14 15  2  0
 15 16  1  0
 16 17  2  0
 17 18  1  0
 18 19  1  0
 19 20  1  0
 20 21  2  0
 21 22  1  0
 13 23  1  0
 23 24  1  0
 24  2  1  0
 10  4  1  0
 22 14  1  0
 22 18  2  0
  1 25  1  0
  1 26  1  0
  3 27  1  0
  3 28  1  0
  5 29  1  0
  6 30  1  0
  9 31  1  0
 10 32  1  0
 11 33  1  0
 11 34  1  0
 12 35  1  0
 12 36  1  0
 16 37  1  0
 19 38  1  0
 20 39  1  0
 21 40  1  0
 23 41  1  0
 23 42  1  0
 24 43  1  0
 24 44  1  0
M  END
$$$$
