@<TRIPOS>MOLECULE
*****
 44 47 0 0 0
SMALL
GASTEIGER

@<TRIPOS>ATOM
      1 N           1.0178    2.2136   -2.2197 N.3     1  UNL1       -0.3243
      2 C           1.1907    1.1784   -1.2083 C.3     1  UNL1        0.0233
      3 C           2.6577    0.9831   -1.0078 C.3     1  UNL1       -0.0094
      4 C           2.9963   -0.0393   -0.0077 C.ar    1  UNL1       -0.0455
      5 C           3.1542    0.2891    1.3182 C.ar    1  UNL1       -0.0571
      6 C           3.4757   -0.6768    2.2725 C.ar    1  UNL1       -0.0431
      7 C           3.6408   -1.9872    1.8936 C.ar    1  UNL1        0.0410
      8 CL          4.0430   -3.2167    3.0654 Cl      1  UNL1       -0.0835
      9 C           3.4858   -2.3363    0.5637 C.ar    1  UNL1       -0.0431
     10 C           3.1638   -1.3478   -0.3699 C.ar    1  UNL1       -0.0571
     11 C           0.4921   -0.0663   -1.6880 C.3     1  UNL1       -0.0187
     12 C          -0.9832    0.1114   -1.7288 C.3     1  UNL1        0.0152
     13 N          -1.5278    0.9426   -0.7173 N.pl3   1  UNL1       -0.3145
     14 C          -2.7706    0.6197   -0.1293 C.ar    1  UNL1        0.1337
     15 N          -3.8445    1.4406   -0.1770 N.ar    1  UNL1       -0.2200
     16 C          -5.0294    1.1337    0.3831 C.ar    1  UNL1        0.1204
     17 N          -5.2233   -0.0104    1.0275 N.ar    1  UNL1       -0.2178
     18 C          -4.1946   -0.8875    1.1190 C.ar    1  UNL1        0.1432
     19 N          -4.1269   -2.1046    1.7109 N.ar    1  UNL1       -0.3457
     20 C          -2.8831   -2.5859    1.5289 C.ar    1  UNL1        0.0042
     21 C          -2.1503   -1.6555    0.8083 C.ar    1  UNL1       -0.0318
     22 C          -2.9741   -0.5866    0.5498 C.ar    1  UNL1        0.0585
     23 C          -0.8299    2.1225   -0.2735 C.3     1  UNL1        0.0152
     24 C           0.5879    1.7169    0.0723 C.3     1  UNL1       -0.0187
     25 H           1.3772    1.8378   -3.1343 H       1  UNL1        0.1187
     26 H           1.7111    2.9754   -1.9594 H       1  UNL1        0.1187
     27 H           3.0928    0.7395   -2.0219 H       1  UNL1        0.0331
     28 H           3.0939    1.9837   -0.7605 H       1  UNL1        0.0331
     29 H           3.0398    1.3016    1.6928 H       1  UNL1        0.0621
     30 H           3.6006   -0.4265    3.3117 H       1  UNL1        0.0632
     31 H           3.6241   -3.3756    0.3084 H       1  UNL1        0.0632
     32 H           3.0547   -1.6719   -1.3899 H       1  UNL1        0.0621
     33 H           0.7748   -0.9693   -1.1188 H       1  UNL1        0.0298
     34 H           0.8460   -0.2420   -2.7394 H       1  UNL1        0.0298
     35 H          -1.3113    0.5313   -2.7233 H       1  UNL1        0.0465
     36 H          -1.4436   -0.9204   -1.7164 H       1  UNL1        0.0465
     37 H          -5.8790    1.8180    0.3278 H       1  UNL1        0.1048
     38 H          -4.9326   -2.5416    2.2071 H       1  UNL1        0.1668
     39 H          -2.5449   -3.5246    1.8876 H       1  UNL1        0.0807
     40 H          -1.1167   -1.7599    0.5078 H       1  UNL1        0.0640
     41 H          -0.7389    2.7883   -1.1793 H       1  UNL1        0.0465
     42 H          -1.3368    2.6754    0.5128 H       1  UNL1        0.0465
     43 H           1.1536    2.6085    0.3705 H       1  UNL1        0.0298
     44 H           0.5665    0.9211    0.8311 H       1  UNL1        0.0298
@<TRIPOS>BOND
     1     1     2    1
     2     2     3    1
     3     3     4    1
     4     4     5   ar
     5     5     6   ar
     6     6     7   ar
     7     7     8    1
     8     7     9   ar
     9     9    10   ar
    10     2    11    1
    11    11    12    1
    12    12    13    1
    13    13    14    1
    14    14    15   ar
    15    15    16   ar
    16    16    17   ar
    17    17    18   ar
    18    18    19   ar
    19    19    20   ar
    20    20    21   ar
    21    21    22   ar
    22    13    23    1
    23    23    24    1
    24    24     2    1
    25    10     4   ar
    26    22    14   ar
    27    22    18   ar
    28     1    25    1
    29     1    26    1
    30     3    27    1
    31     3    28    1
    32     5    29    1
    33     6    30    1
    34     9    31    1
    35    10    32    1
    36    11    33    1
    37    11    34    1
    38    12    35    1
    39    12    36    1
    40    16    37    1
    41    19    38    1
    42    20    39    1
    43    21    40    1
    44    23    41    1
    45    23    42    1
    46    24    43    1
    47    24    44    1
