
     RDKit          3D

 40 43  0  0  0  0  0  0  0  0999 V2000
    6.4423    0.3365   -1.1708 N   0  0  0  0  0  0  0  0  0  0  0  0
    5.6886    0.6173    0.3496 S   0  0  0  0  0  0  0  0  0  0  0  0
    6.0700    1.9919    0.8593 O   0  0  0  0  0  0  0  0  0  0  0  0
    6.1666   -0.3585    1.3906 O   0  0  0  0  0  0  0  0  0  0  0  0
    3.9686    0.5397    0.1590 C   0  0  0  0  0  0  0  0  0  0  0  0
    3.3439    1.4115   -0.6966 C   0  0  0  0  0  0  0  0  0  0  0  0
    4.2646    2.6016   -1.5984 Cl  0  0  0  0  0  0  0  0  0  0  0  0
    1.9776    1.3973   -0.8894 C   0  0  0  0  0  0  0  0  0  0  0  0
    1.1913    0.4750   -0.2016 C   0  0  0  0  0  0  0  0  0  0  0  0
   -0.2412    0.3770   -0.3310 N   0  0  0  0  0  0  0  0  0  0  0  0
   -0.9987   -0.0779    0.8110 C   0  0  0  0  0  0  0  0  0  0  0  0
   -0.7368   -1.4706    1.0011 N   0  0  0  0  0  0  0  0  0  0  0  0
    0.9221   -1.5702    1.5453 S   0  0  0  0  0  0  0  0  0  0  0  0
    0.9048   -1.1431    2.9918 O   0  0  0  0  0  0  0  0  0  0  0  0
    1.4376   -2.9479    1.3738 O   0  0  0  0  0  0  0  0  0  0  0  0
    1.8783   -0.3807    0.6494 C   0  0  0  0  0  0  0  0  0  0  0  0
    3.2318   -0.3872    0.8583 C   0  0  0  0  0  0  0  0  0  0  0  0
   -2.4206    0.2947    0.6198 C   0  0  0  0  0  0  0  0  0  0  0  0
   -3.3112   -0.1490    1.7890 C   0  0  0  0  0  0  0  0  0  0  0  0
   -4.5964   -0.3802    1.0029 C   0  0  0  0  0  0  0  0  0  0  0  0
   -4.0048   -1.2927   -0.0834 C   0  0  0  0  0  0  0  0  0  0  0  0
   -3.0775   -0.1879   -0.6143 C   0  0  0  0  0  0  0  0  0  0  0  0
   -4.1620    0.8088   -0.9476 C   0  0  0  0  0  0  0  0  0  0  0  0
   -4.9348    0.7976    0.1559 C   0  0  0  0  0  0  0  0  0  0  0  0
    7.1970   -0.3868   -1.0424 H   0  0  0  0  0  0  0  0  0  0  0  0
    5.7902    0.0857   -1.9320 H   0  0  0  0  0  0  0  0  0  0  0  0
    1.4448    2.0583   -1.5471 H   0  0  0  0  0  0  0  0  0  0  0  0
   -0.5921    0.6623   -1.2919 H   0  0  0  0  0  0  0  0  0  0  0  0
   -0.6480    0.4394    1.7377 H   0  0  0  0  0  0  0  0  0  0  0  0
   -0.8021   -1.9273    0.0420 H   0  0  0  0  0  0  0  0  0  0  0  0
    3.7024   -1.0780    1.5328 H   0  0  0  0  0  0  0  0  0  0  0  0
   -2.4681    1.4128    0.6693 H   0  0  0  0  0  0  0  0  0  0  0  0
   -3.3994    0.6082    2.5676 H   0  0  0  0  0  0  0  0  0  0  0  0
   -2.9505   -1.1406    2.1097 H   0  0  0  0  0  0  0  0  0  0  0  0
   -5.3976   -0.8116    1.5689 H   0  0  0  0  0  0  0  0  0  0  0  0
   -3.4660   -2.1286    0.3635 H   0  0  0  0  0  0  0  0  0  0  0  0
   -4.7874   -1.5446   -0.8102 H   0  0  0  0  0  0  0  0  0  0  0  0
   -2.4857   -0.4815   -1.4550 H   0  0  0  0  0  0  0  0  0  0  0  0
   -4.4212    1.4595   -1.7940 H   0  0  0  0  0  0  0  0  0  0  0  0
   -5.7201    1.4697    0.5085 H   0  0  0  0  0  0  0  0  0  0  0  0
  1  2  1  0
  2  3  2  0
  2  4  2  0
  2  5  1  0
  5  6  2  0
  6  7  1  0
  6  8  1  0
  8  9  2  0
  9 10  1  0
 10 11  1  0
 11 12  1  0
 12 13  1  0
 13 14  2  0
 13 15  2  0
 13 16  1  0
 16 17  2  0
 11 18  1  0
 18 19  1  0
 19 20  1  0
 20 21  1  0
 21 22  1  0
 22 23  1  0
 23 24  2  0
 17  5  1  0
 22 18  1  0
 16  9  1  0
 24 20  1  0
  1 25  1  0
  1 26  1  0
  8 27  1  0
 10 28  1  0
 11 29  1  0
 12 30  1  0
 17 31  1  0
 18 32  1  0
 19 33  1  0
 19 34  1  0
 20 35  1  0
 21 36  1  0
 21 37  1  0
 22 38  1  0
 23 39  1  0
 24 40  1  0
M  END
$$$$
