
     RDKit          3D

 25 28  0  0  0  0  0  0  0  0999 V2000
    0.4298   -2.8794    0.3476 O   0  0  0  0  0  0  0  0  0  0  0  0
    0.3095   -1.6378    0.1957 C   0  0  0  0  0  0  0  0  0  0  0  0
   -1.0258   -1.0484    0.1625 C   0  0  0  0  0  0  0  0  0  0  0  0
   -2.1897   -1.7877    0.2905 C   0  0  0  0  0  0  0  0  0  0  0  0
   -3.4008   -1.1270    0.2446 C   0  0  0  0  0  0  0  0  0  0  0  0
   -3.4965    0.2591    0.0739 C   0  0  0  0  0  0  0  0  0  0  0  0
   -2.3653    1.0234   -0.0563 C   0  0  0  0  0  0  0  0  0  0  0  0
   -1.1665    0.3066   -0.0029 C   0  0  0  0  0  0  0  0  0  0  0  0
   -0.1227    1.1978   -0.1463 C   0  0  0  0  0  0  0  0  0  0  0  0
   -0.6633    2.4149   -0.2823 N   0  0  0  0  0  0  0  0  0  0  0  0
   -1.9991    2.2913   -0.2262 N   0  0  0  0  0  0  0  0  0  0  0  0
    1.2292    0.6269   -0.1159 C   0  0  0  0  0  0  0  0  0  0  0  0
    1.4635   -0.7238    0.0462 C   0  0  0  0  0  0  0  0  0  0  0  0
    2.7327   -1.2634    0.0752 C   0  0  0  0  0  0  0  0  0  0  0  0
    3.8113   -0.3895   -0.0671 C   0  0  0  0  0  0  0  0  0  0  0  0
    3.5503    0.9539   -0.2275 C   0  0  0  0  0  0  0  0  0  0  0  0
    2.2894    1.5063   -0.2583 C   0  0  0  0  0  0  0  0  0  0  0  0
   -2.1090   -2.8541    0.4217 H   0  0  0  0  0  0  0  0  0  0  0  0
   -4.3216   -1.7101    0.3456 H   0  0  0  0  0  0  0  0  0  0  0  0
   -4.4413    0.7862    0.0365 H   0  0  0  0  0  0  0  0  0  0  0  0
   -2.7517    3.0277   -0.2956 H   0  0  0  0  0  0  0  0  0  0  0  0
    2.8800   -2.3267    0.2039 H   0  0  0  0  0  0  0  0  0  0  0  0
    4.8106   -0.7942   -0.0468 H   0  0  0  0  0  0  0  0  0  0  0  0
    4.4096    1.5909   -0.3334 H   0  0  0  0  0  0  0  0  0  0  0  0
    2.1372    2.5571   -0.3853 H   0  0  0  0  0  0  0  0  0  0  0  0
  1  2  2  0
  2  3  1  0
  3  4  2  0
  4  5  1  0
  5  6  2  0
  6  7  1  0
  7  8  2  0
  8  9  1  0
  9 10  2  0
 10 11  1  0
  9 12  1  0
 12 13  2  0
 13 14  1  0
 14 15  2  0
 15 16  1  0
 16 17  2  0
 13  2  1  0
  8  3  1  0
 17 12  1  0
 11  7  1  0
  4 18  1  0
  5 19  1  0
  6 20  1  0
 11 21  1  0
 14 22  1  0
 15 23  1  0
 16 24  1  0
 17 25  1  0
M  END
$$$$
