@<TRIPOS>MOLECULE
*****
 49 52 0 0 0
SMALL
GASTEIGER

@<TRIPOS>ATOM
      1 C          -3.0661   -0.8599   -1.4298 C.3     1  UNL1       -0.0295
      2 C          -2.3865   -0.4200   -0.1324 C.3     1  UNL1        0.1580
      3 C          -1.2633   -1.3024    0.2131 C.ar    1  UNL1        0.0226
      4 C           0.0419   -0.9109    0.3839 C.ar    1  UNL1       -0.0321
      5 C           1.0633   -1.7946    0.7112 C.ar    1  UNL1        0.0342
      6 N           2.4076   -1.3569    0.8819 N.am    1  UNL1       -0.2802
      7 C           3.3532   -1.3030   -0.1781 C.2     1  UNL1        0.2666
      8 O           2.9602   -1.6643   -1.3117 O.2     1  UNL1       -0.2682
      9 C           4.7215   -0.8577   -0.0060 C.ar    1  UNL1        0.1257
     10 C           5.5506   -0.8454   -1.1023 C.ar    1  UNL1       -0.0300
     11 C           6.8786   -0.4317   -1.0233 C.ar    1  UNL1       -0.0407
     12 C           7.3642   -0.0276    0.1832 C.ar    1  UNL1        0.0699
     13 C           8.7380    0.4077    0.3004 C.1     1  UNL1        0.1007
     14 N           9.8346    0.7580    0.4032 N.1     1  UNL1       -0.1908
     15 C           6.5187   -0.0455    1.2766 C.ar    1  UNL1        0.0458
     16 N           5.2212   -0.4550    1.1749 N.ar    1  UNL1       -0.2491
     17 C           0.6997   -3.1175    0.8611 C.ar    1  UNL1       -0.0377
     18 C          -0.5897   -3.5797    0.7045 C.ar    1  UNL1       -0.0243
     19 C          -1.5633   -2.6587    0.3798 C.ar    1  UNL1        0.1292
     20 F          -2.8355   -3.1014    0.2230 F       1  UNL1       -0.2051
     21 N          -3.3571   -0.5131    0.9395 N.2     1  UNL1       -0.2196
     22 C          -4.3704    0.3198    0.9423 C.2     1  UNL1        0.2768
     23 N          -5.3494    0.2654    1.9756 N.pl3   1  UNL1       -0.3133
     24 O          -4.4096    1.2257   -0.1061 O.2     1  UNL1       -0.4532
     25 C          -3.2324    1.8597   -0.5314 C.3     1  UNL1        0.1786
     26 C          -3.1483    3.2425    0.1020 C.3     1  UNL1       -0.0068
     27 C          -3.6762    3.8144   -1.1936 C.3     1  UNL1       -0.0454
     28 C          -3.3685    2.5050   -1.8668 C.3     1  UNL1       -0.0068
     29 C          -2.0020    1.0135   -0.2969 C.3     1  UNL1        0.3159
     30 F          -1.4233    1.5157    0.8770 F       1  UNL1       -0.1983
     31 F          -1.1136    1.1649   -1.3275 F       1  UNL1       -0.1983
     32 H          -3.9842   -1.4129   -1.1914 H       1  UNL1        0.0258
     33 H          -2.3414   -1.4678   -2.0233 H       1  UNL1        0.0258
     34 H          -3.3163    0.0140   -2.0650 H       1  UNL1        0.0258
     35 H           0.2830    0.1256    0.2576 H       1  UNL1        0.0640
     36 H           2.7360   -1.0564    1.8241 H       1  UNL1        0.1552
     37 H           5.2213   -1.1576   -2.0997 H       1  UNL1        0.0641
     38 H           7.5131   -0.4294   -1.8960 H       1  UNL1        0.0631
     39 H           6.9308    0.2799    2.2195 H       1  UNL1        0.0843
     40 H           1.4954   -3.8203    1.1184 H       1  UNL1        0.0637
     41 H          -0.8480   -4.6363    0.8297 H       1  UNL1        0.0647
     42 H          -5.8715    1.0900    2.3259 H       1  UNL1        0.1466
     43 H          -5.5562   -0.6567    2.4082 H       1  UNL1        0.1466
     44 H          -3.8245    3.3748    0.9738 H       1  UNL1        0.0306
     45 H          -2.0873    3.5306    0.3230 H       1  UNL1        0.0306
     46 H          -4.7508    4.0651   -1.1106 H       1  UNL1        0.0268
     47 H          -3.0188    4.6367   -1.5342 H       1  UNL1        0.0268
     48 H          -2.4828    2.5030   -2.5289 H       1  UNL1        0.0306
     49 H          -4.2960    2.1709   -2.4180 H       1  UNL1        0.0306
@<TRIPOS>BOND
     1     2     1    1
     2     2     3    1
     3     3     4   ar
     4     4     5   ar
     5     5     6    1
     6     6     7   am
     7     7     8    2
     8     7     9    1
     9     9    10   ar
    10    10    11   ar
    11    11    12   ar
    12    12    13    1
    13    13    14    3
    14    12    15   ar
    15    15    16   ar
    16     5    17   ar
    17    17    18   ar
    18    18    19   ar
    19    19    20    1
    20     2    21    1
    21    21    22    2
    22    22    23    1
    23    22    24    1
    24    24    25    1
    25    25    26    1
    26    26    27    1
    27    27    28    1
    28    25    29    1
    29    29    30    1
    30    29    31    1
    31    29     2    1
    32    19     3   ar
    33    28    25    1
    34    16     9   ar
    35     1    32    1
    36     1    33    1
    37     1    34    1
    38     4    35    1
    39     6    36    1
    40    10    37    1
    41    11    38    1
    42    15    39    1
    43    17    40    1
    44    18    41    1
    45    23    42    1
    46    23    43    1
    47    26    44    1
    48    26    45    1
    49    27    46    1
    50    27    47    1
    51    28    48    1
    52    28    49    1
