
     RDKit          3D

 49 52  0  0  0  0  0  0  0  0999 V2000
   -3.0661   -0.8599   -1.4298 C   0  0  0  0  0  0  0  0  0  0  0  0
   -2.3865   -0.4200   -0.1324 C   0  0  2  0  0  0  0  0  0  0  0  0
   -1.2633   -1.3024    0.2131 C   0  0  0  0  0  0  0  0  0  0  0  0
    0.0419   -0.9109    0.3839 C   0  0  0  0  0  0  0  0  0  0  0  0
    1.0633   -1.7946    0.7112 C   0  0  0  0  0  0  0  0  0  0  0  0
    2.4076   -1.3569    0.8819 N   0  0  0  0  0  0  0  0  0  0  0  0
    3.3532   -1.3030   -0.1781 C   0  0  0  0  0  0  0  0  0  0  0  0
    2.9602   -1.6643   -1.3117 O   0  0  0  0  0  0  0  0  0  0  0  0
    4.7215   -0.8577   -0.0060 C   0  0  0  0  0  0  0  0  0  0  0  0
    5.5506   -0.8454   -1.1023 C   0  0  0  0  0  0  0  0  0  0  0  0
    6.8786   -0.4317   -1.0233 C   0  0  0  0  0  0  0  0  0  0  0  0
    7.3642   -0.0276    0.1832 C   0  0  0  0  0  0  0  0  0  0  0  0
    8.7380    0.4077    0.3004 C   0  0  0  0  0  0  0  0  0  0  0  0
    9.8346    0.7580    0.4032 N   0  0  0  0  0  0  0  0  0  0  0  0
    6.5187   -0.0455    1.2766 C   0  0  0  0  0  0  0  0  0  0  0  0
    5.2212   -0.4550    1.1749 N   0  0  0  0  0  0  0  0  0  0  0  0
    0.6997   -3.1175    0.8611 C   0  0  0  0  0  0  0  0  0  0  0  0
   -0.5897   -3.5797    0.7045 C   0  0  0  0  0  0  0  0  0  0  0  0
   -1.5633   -2.6587    0.3798 C   0  0  0  0  0  0  0  0  0  0  0  0
   -2.8355   -3.1014    0.2230 F   0  0  0  0  0  0  0  0  0  0  0  0
   -3.3571   -0.5131    0.9395 N   0  0  0  0  0  0  0  0  0  0  0  0
   -4.3704    0.3198    0.9423 C   0  0  0  0  0  0  0  0  0  0  0  0
   -5.3494    0.2654    1.9756 N   0  0  0  0  0  0  0  0  0  0  0  0
   -4.4096    1.2257   -0.1061 O   0  0  0  0  0  0  0  0  0  0  0  0
   -3.2324    1.8597   -0.5314 C   0  0  0  0  0  0  0  0  0  0  0  0
   -3.1483    3.2425    0.1020 C   0  0  0  0  0  0  0  0  0  0  0  0
   -3.6762    3.8144   -1.1936 C   0  0  0  0  0  0  0  0  0  0  0  0
   -3.3685    2.5050   -1.8668 C   0  0  0  0  0  0  0  0  0  0  0  0
   -2.0020    1.0135   -0.2969 C   0  0  0  0  0  0  0  0  0  0  0  0
   -1.4233    1.5157    0.8770 F   0  0  0  0  0  0  0  0  0  0  0  0
   -1.1136    1.1649   -1.3275 F   0  0  0  0  0  0  0  0  0  0  0  0
   -3.9842   -1.4129   -1.1914 H   0  0  0  0  0  0  0  0  0  0  0  0
   -2.3414   -1.4678   -2.0233 H   0  0  0  0  0  0  0  0  0  0  0  0
   -3.3163    0.0140   -2.0650 H   0  0  0  0  0  0  0  0  0  0  0  0
    0.2830    0.1256    0.2576 H   0  0  0  0  0  0  0  0  0  0  0  0
    2.7360   -1.0564    1.8241 H   0  0  0  0  0  0  0  0  0  0  0  0
    5.2213   -1.1576   -2.0997 H   0  0  0  0  0  0  0  0  0  0  0  0
    7.5131   -0.4294   -1.8960 H   0  0  0  0  0  0  0  0  0  0  0  0
    6.9308    0.2799    2.2195 H   0  0  0  0  0  0  0  0  0  0  0  0
    1.4954   -3.8203    1.1184 H   0  0  0  0  0  0  0  0  0  0  0  0
   -0.8480   -4.6363    0.8297 H   0  0  0  0  0  0  0  0  0  0  0  0
   -5.8715    1.0900    2.3259 H   0  0  0  0  0  0  0  0  0  0  0  0
   -5.5562   -0.6567    2.4082 H   0  0  0  0  0  0  0  0  0  0  0  0
   -3.8245    3.3748    0.9738 H   0  0  0  0  0  0  0  0  0  0  0  0
   -2.0873    3.5306    0.3230 H   0  0  0  0  0  0  0  0  0  0  0  0
   -4.7508    4.0651   -1.1106 H   0  0  0  0  0  0  0  0  0  0  0  0
   -3.0188    4.6367   -1.5342 H   0  0  0  0  0  0  0  0  0  0  0  0
   -2.4828    2.5030   -2.5289 H   0  0  0  0  0  0  0  0  0  0  0  0
   -4.2960    2.1709   -2.4180 H   0  0  0  0  0  0  0  0  0  0  0  0
  2  1  1  6
  2  3  1  0
  3  4  2  0
  4  5  1  0
  5  6  1  0
  6  7  1  0
  7  8  2  0
  7  9  1  0
  9 10  2  0
 10 11  1  0
 11 12  2  0
 12 13  1  0
 13 14  3  0
 12 15  1  0
 15 16  2  0
  5 17  2  0
 17 18  1  0
 18 19  2  0
 19 20  1  0
  2 21  1  0
 21 22  2  0
 22 23  1  0
 22 24  1  0
 24 25  1  0
 25 26  1  0
 26 27  1  0
 27 28  1  0
 25 29  1  0
 29 30  1  0
 29 31  1  0
 29  2  1  0
 19  3  1  0
 28 25  1  0
 16  9  1  0
  1 32  1  0
  1 33  1  0
  1 34  1  0
  4 35  1  0
  6 36  1  0
 10 37  1  0
 11 38  1  0
 15 39  1  0
 17 40  1  0
 18 41  1  0
 23 42  1  0
 23 43  1  0
 26 44  1  0
 26 45  1  0
 27 46  1  0
 27 47  1  0
 28 48  1  0
 28 49  1  0
M  END
$$$$
