
     RDKit          3D

 54 55  0  0  0  0  0  0  0  0999 V2000
   -0.1814    0.6517    3.3007 N   0  0  0  0  0  0  0  0  0  0  0  0
   -1.4768    0.0445    3.1877 C   0  0  0  0  0  0  0  0  0  0  0  0
   -1.8539   -0.7374    4.0768 O   0  0  0  0  0  0  0  0  0  0  0  0
   -2.2563    0.3732    2.0615 N   0  0  0  0  0  0  0  0  0  0  0  0
   -3.5485   -0.1774    1.8578 C   0  0  0  0  0  0  0  0  0  0  0  0
   -3.4959   -1.6677    1.7560 C   0  0  0  0  0  0  0  0  0  0  0  0
   -2.6635   -2.1455    0.6292 C   0  0  0  0  0  0  0  0  0  0  0  0
   -3.0633   -1.7204   -0.7430 C   0  0  1  0  0  0  0  0  0  0  0  0
   -2.1724   -2.3014   -1.6873 N   0  0  0  0  0  0  0  0  0  0  0  0
   -1.3358   -1.1794   -2.6328 S   0  0  0  0  0  6  0  0  0  0  0  0
   -2.2560   -0.2993   -3.4443 O   0  0  0  0  0  0  0  0  0  0  0  0
   -0.4618   -1.9526   -3.6001 O   0  0  0  0  0  0  0  0  0  0  0  0
   -0.3291   -0.1592   -1.6500 C   0  0  0  0  0  0  0  0  0  0  0  0
   -0.7188    1.0920   -1.2864 C   0  0  0  0  0  0  0  0  0  0  0  0
    0.0868    1.8788   -0.5231 C   0  0  0  0  0  0  0  0  0  0  0  0
    1.3464    1.3939   -0.0989 C   0  0  0  0  0  0  0  0  0  0  0  0
    2.0903    2.2113    0.6493 O   0  0  0  0  0  0  0  0  0  0  0  0
    3.3039    2.2040    1.2491 C   0  0  0  0  0  0  0  0  0  0  0  0
    4.4814    2.0815    0.3581 C   0  0  0  0  0  0  0  0  0  0  0  0
    4.9438    3.2396   -0.2878 C   0  0  0  0  0  0  0  0  0  0  0  0
    6.0425    3.2280   -1.0978 C   0  0  0  0  0  0  0  0  0  0  0  0
    6.6614    4.8061   -1.9726 Br  0  0  0  0  0  0  0  0  0  0  0  0
    6.7109    2.0190   -1.2752 C   0  0  0  0  0  0  0  0  0  0  0  0
    6.2768    0.8654   -0.6517 C   0  0  0  0  0  0  0  0  0  0  0  0
    7.2303   -0.7656   -0.9403 Br  0  0  0  0  0  0  0  0  0  0  0  0
    5.1591    0.9058    0.1653 C   0  0  0  0  0  0  0  0  0  0  0  0
    1.7206    0.1258   -0.4770 C   0  0  0  0  0  0  0  0  0  0  0  0
    0.8868   -0.6449   -1.2482 C   0  0  0  0  0  0  0  0  0  0  0  0
   -4.4913   -2.1171   -1.0411 C   0  0  0  0  0  0  0  0  0  0  0  0
   -5.4513   -1.7047   -0.3375 O   0  0  0  0  0  0  0  0  0  0  0  0
   -4.6955   -2.9807   -2.1575 N   0  0  0  0  0  0  0  0  0  0  0  0
   -5.9552   -3.3736   -2.4737 O   0  0  0  0  0  0  0  0  0  0  0  0
   -0.0591    1.5994    3.7298 H   0  0  0  0  0  0  0  0  0  0  0  0
    0.6812    0.1789    2.9638 H   0  0  0  0  0  0  0  0  0  0  0  0
   -1.8711    1.0420    1.3670 H   0  0  0  0  0  0  0  0  0  0  0  0
   -4.2008    0.1659    2.6971 H   0  0  0  0  0  0  0  0  0  0  0  0
   -4.0139    0.2675    0.9243 H   0  0  0  0  0  0  0  0  0  0  0  0
   -3.0774   -2.1063    2.7139 H   0  0  0  0  0  0  0  0  0  0  0  0
   -4.5393   -2.0567    1.7444 H   0  0  0  0  0  0  0  0  0  0  0  0
   -1.6089   -1.8179    0.8356 H   0  0  0  0  0  0  0  0  0  0  0  0
   -2.5892   -3.2709    0.6666 H   0  0  0  0  0  0  0  0  0  0  0  0
   -2.9782   -0.6065   -0.8390 H   0  0  0  0  0  0  0  0  0  0  0  0
   -1.5331   -3.0185   -1.2865 H   0  0  0  0  0  0  0  0  0  0  0  0
   -1.6890    1.5027   -1.5973 H   0  0  0  0  0  0  0  0  0  0  0  0
   -0.2237    2.8781   -0.2339 H   0  0  0  0  0  0  0  0  0  0  0  0
    3.4684    3.1503    1.8737 H   0  0  0  0  0  0  0  0  0  0  0  0
    3.3741    1.4095    2.0758 H   0  0  0  0  0  0  0  0  0  0  0  0
    4.3915    4.1590   -0.1242 H   0  0  0  0  0  0  0  0  0  0  0  0
    7.5741    2.0214   -1.9143 H   0  0  0  0  0  0  0  0  0  0  0  0
    4.8392   -0.0172    0.6554 H   0  0  0  0  0  0  0  0  0  0  0  0
    2.6592   -0.2964   -0.1748 H   0  0  0  0  0  0  0  0  0  0  0  0
    1.2162   -1.6543   -1.5346 H   0  0  0  0  0  0  0  0  0  0  0  0
   -3.8762   -3.2973   -2.7162 H   0  0  0  0  0  0  0  0  0  0  0  0
   -6.4779   -3.4261   -1.6388 H   0  0  0  0  0  0  0  0  0  0  0  0
  1  2  1  0
  2  3  2  0
  2  4  1  0
  4  5  1  0
  5  6  1  0
  6  7  1  0
  7  8  1  0
  8  9  1  0
  9 10  1  0
 10 11  2  0
 10 12  2  0
 10 13  1  0
 13 14  2  0
 14 15  1  0
 15 16  2  0
 16 17  1  0
 17 18  1  0
 18 19  1  0
 19 20  2  0
 20 21  1  0
 21 22  1  0
 21 23  2  0
 23 24  1  0
 24 25  1  0
 24 26  2  0
 16 27  1  0
 27 28  2  0
  8 29  1  0
 29 30  2  0
 29 31  1  0
 31 32  1  0
 28 13  1  0
 26 19  1  0
  1 33  1  0
  1 34  1  0
  4 35  1  0
  5 36  1  0
  5 37  1  0
  6 38  1  0
  6 39  1  0
  7 40  1  0
  7 41  1  0
  8 42  1  1
  9 43  1  0
 14 44  1  0
 15 45  1  0
 18 46  1  0
 18 47  1  0
 20 48  1  0
 23 49  1  0
 26 50  1  0
 27 51  1  0
 28 52  1  0
 31 53  1  0
 32 54  1  0
M  END
$$$$
