@<TRIPOS>MOLECULE
*****
 54 55 0 0 0
SMALL
GASTEIGER

@<TRIPOS>ATOM
      1 N          -0.1814    0.6517    3.3007 N.am    1  UNL1       -0.3134
      2 C          -1.4768    0.0445    3.1877 C.2     1  UNL1        0.2971
      3 O          -1.8539   -0.7374    4.0768 O.2     1  UNL1       -0.2531
      4 N          -2.2563    0.3732    2.0615 N.am    1  UNL1       -0.2996
      5 C          -3.5485   -0.1774    1.8578 C.3     1  UNL1        0.0131
      6 C          -3.4959   -1.6677    1.7560 C.3     1  UNL1       -0.0354
      7 C          -2.6635   -2.1455    0.6292 C.3     1  UNL1       -0.0260
      8 C          -3.0633   -1.7204   -0.7430 C.3     1  UNL1        0.1067
      9 N          -2.1724   -2.3014   -1.6873 N.3     1  UNL1       -0.1780
     10 S          -1.3358   -1.1794   -2.6328 S.O2    1  UNL1        0.0591
     11 O          -2.2560   -0.2993   -3.4443 O.2     1  UNL1       -0.1530
     12 O          -0.4618   -1.9526   -3.6001 O.2     1  UNL1       -0.1530
     13 C          -0.3291   -0.1592   -1.6500 C.ar    1  UNL1        0.1055
     14 C          -0.7188    1.0920   -1.2864 C.ar    1  UNL1       -0.0319
     15 C           0.0868    1.8788   -0.5231 C.ar    1  UNL1       -0.0181
     16 C           1.3464    1.3939   -0.0989 C.ar    1  UNL1        0.1211
     17 O           2.0903    2.2113    0.6493 O.3     1  UNL1       -0.4874
     18 C           3.3039    2.2040    1.2491 C.3     1  UNL1        0.1147
     19 C           4.4814    2.0815    0.3581 C.ar    1  UNL1       -0.0083
     20 C           4.9438    3.2396   -0.2878 C.ar    1  UNL1       -0.0413
     21 C           6.0425    3.2280   -1.0978 C.ar    1  UNL1        0.0193
     22 BR          6.6614    4.8061   -1.9726 Br      1  UNL1       -0.0502
     23 C           6.7109    2.0190   -1.2752 C.ar    1  UNL1       -0.0337
     24 C           6.2768    0.8654   -0.6517 C.ar    1  UNL1        0.0193
     25 BR          7.2303   -0.7656   -0.9403 Br      1  UNL1       -0.0502
     26 C           5.1591    0.9058    0.1653 C.ar    1  UNL1       -0.0413
     27 C           1.7206    0.1258   -0.4770 C.ar    1  UNL1       -0.0181
     28 C           0.8868   -0.6449   -1.2482 C.ar    1  UNL1       -0.0319
     29 C          -4.4913   -2.1171   -1.0411 C.2     1  UNL1        0.2541
     30 O          -5.4513   -1.7047   -0.3375 O.2     1  UNL1       -0.2720
     31 N          -4.6955   -2.9807   -2.1575 N.am    1  UNL1       -0.1962
     32 O          -5.9552   -3.3736   -2.4737 O.3     1  UNL1       -0.2951
     33 H          -0.0591    1.5994    3.7298 H       1  UNL1        0.1465
     34 H           0.6812    0.1789    2.9638 H       1  UNL1        0.1465
     35 H          -1.8711    1.0420    1.3670 H       1  UNL1        0.1502
     36 H          -4.2008    0.1659    2.6971 H       1  UNL1        0.0462
     37 H          -4.0139    0.2675    0.9243 H       1  UNL1        0.0462
     38 H          -3.0774   -2.1063    2.7139 H       1  UNL1        0.0281
     39 H          -4.5393   -2.0567    1.7444 H       1  UNL1        0.0281
     40 H          -1.6089   -1.8179    0.8356 H       1  UNL1        0.0286
     41 H          -2.5892   -3.2709    0.6666 H       1  UNL1        0.0286
     42 H          -2.9782   -0.6065   -0.8390 H       1  UNL1        0.0573
     43 H          -1.5331   -3.0185   -1.2865 H       1  UNL1        0.1489
     44 H          -1.6890    1.5027   -1.5973 H       1  UNL1        0.0638
     45 H          -0.2237    2.8781   -0.2339 H       1  UNL1        0.0655
     46 H           3.4684    3.1503    1.8737 H       1  UNL1        0.0748
     47 H           3.3741    1.4095    2.0758 H       1  UNL1        0.0748
     48 H           4.3915    4.1590   -0.1242 H       1  UNL1        0.0632
     49 H           7.5741    2.0214   -1.9143 H       1  UNL1        0.0640
     50 H           4.8392   -0.0172    0.6554 H       1  UNL1        0.0632
     51 H           2.6592   -0.2964   -0.1748 H       1  UNL1        0.0655
     52 H           1.2162   -1.6543   -1.5346 H       1  UNL1        0.0638
     53 H          -3.8762   -3.2973   -2.7162 H       1  UNL1        0.1822
     54 H          -6.4779   -3.4261   -1.6388 H       1  UNL1        0.2414
@<TRIPOS>BOND
     1     1     2   am
     2     2     3    2
     3     2     4   am
     4     4     5    1
     5     5     6    1
     6     6     7    1
     7     7     8    1
     8     8     9    1
     9     9    10    1
    10    10    11    2
    11    10    12    2
    12    10    13    1
    13    13    14   ar
    14    14    15   ar
    15    15    16   ar
    16    16    17    1
    17    17    18    1
    18    18    19    1
    19    19    20   ar
    20    20    21   ar
    21    21    22    1
    22    21    23   ar
    23    23    24   ar
    24    24    25    1
    25    24    26   ar
    26    16    27   ar
    27    27    28   ar
    28     8    29    1
    29    29    30    2
    30    29    31   am
    31    31    32    1
    32    28    13   ar
    33    26    19   ar
    34     1    33    1
    35     1    34    1
    36     4    35    1
    37     5    36    1
    38     5    37    1
    39     6    38    1
    40     6    39    1
    41     7    40    1
    42     7    41    1
    43     8    42    1
    44     9    43    1
    45    14    44    1
    46    15    45    1
    47    18    46    1
    48    18    47    1
    49    20    48    1
    50    23    49    1
    51    26    50    1
    52    27    51    1
    53    28    52    1
    54    31    53    1
    55    32    54    1
