@<TRIPOS>MOLECULE
*****
 42 44 0 0 0
SMALL
GASTEIGER

@<TRIPOS>ATOM
      1 C          -2.0299   -2.3876   -0.6142 C.3     1  UNL1       -0.0369
      2 C          -2.9396   -1.2389   -0.3453 C.3     1  UNL1        0.0742
      3 O          -3.5091   -1.2275    0.9042 O.3     1  UNL1       -0.3735
      4 C          -2.6732   -1.1075    1.9696 C.3     1  UNL1        0.0638
      5 C          -1.6048   -0.0565    1.8533 C.3     1  UNL1        0.0386
      6 N          -1.3017    0.3207    0.5206 N.pl3   1  UNL1       -0.2935
      7 C          -0.0351    0.8898    0.2205 C.ar    1  UNL1        0.2016
      8 N           1.0235    0.1005   -0.0584 N.ar    1  UNL1       -0.2154
      9 C           2.2630    0.5150   -0.3579 C.ar    1  UNL1        0.0825
     10 C           3.2445   -0.5177   -0.6203 C.ar    1  UNL1        0.0387
     11 C           2.8892   -1.8623   -0.5642 C.ar    1  UNL1       -0.0316
     12 C           3.7504   -2.8975   -0.7946 C.ar    1  UNL1        0.0284
     13 N           5.0313   -2.5629   -1.0959 N.ar    1  UNL1       -0.2604
     14 C           5.4502   -1.3071   -1.1694 C.ar    1  UNL1        0.0634
     15 C           4.5522   -0.2712   -0.9303 C.ar    1  UNL1        0.1505
     16 F           5.0440    0.9652   -1.0225 F       1  UNL1       -0.2032
     17 C           2.4835    1.8613   -0.3856 C.ar    1  UNL1        0.0292
     18 C           1.4078    2.7059   -0.1013 C.ar    1  UNL1        0.2555
     19 O           1.5762    3.9559   -0.1179 O.2     1  UNL1       -0.2675
     20 N           0.1895    2.2240    0.1916 N.ar    1  UNL1       -0.2839
     21 C          -0.9169    3.1224    0.4806 C.3     1  UNL1        0.0178
     22 C          -2.2633    0.1140   -0.5341 C.3     1  UNL1        0.0493
     23 C          -3.3752    1.1387   -0.3758 C.3     1  UNL1       -0.0440
     24 H          -2.3214   -3.2166    0.0801 H       1  UNL1        0.0255
     25 H          -2.1283   -2.8148   -1.6392 H       1  UNL1        0.0255
     26 H          -0.9661   -2.1915   -0.4147 H       1  UNL1        0.0255
     27 H          -3.7663   -1.2685   -1.0851 H       1  UNL1        0.0611
     28 H          -2.1738   -2.0838    2.1383 H       1  UNL1        0.0575
     29 H          -3.3107   -0.9447    2.8766 H       1  UNL1        0.0575
     30 H          -1.9186    0.7892    2.4913 H       1  UNL1        0.0487
     31 H          -0.6455   -0.4283    2.3211 H       1  UNL1        0.0487
     32 H           1.8735   -2.1027   -0.3245 H       1  UNL1        0.0640
     33 H           3.4727   -3.9374   -0.7506 H       1  UNL1        0.0830
     34 H           6.4951   -1.1256   -1.4174 H       1  UNL1        0.0859
     35 H           3.4402    2.2550   -0.6155 H       1  UNL1        0.0693
     36 H          -1.6154    2.7639    1.2346 H       1  UNL1        0.0458
     37 H          -0.4232    4.0252    0.9563 H       1  UNL1        0.0458
     38 H          -1.3782    3.5189   -0.4382 H       1  UNL1        0.0458
     39 H          -1.8547    0.2375   -1.5369 H       1  UNL1        0.0523
     40 H          -3.4853    1.3157    0.7177 H       1  UNL1        0.0248
     41 H          -4.3567    0.6701   -0.6848 H       1  UNL1        0.0248
     42 H          -3.1935    2.0616   -0.9619 H       1  UNL1        0.0248
@<TRIPOS>BOND
     1     1     2    1
     2     2     3    1
     3     3     4    1
     4     4     5    1
     5     5     6    1
     6     6     7    1
     7     7     8   ar
     8     8     9   ar
     9     9    10    1
    10    10    11   ar
    11    11    12   ar
    12    12    13   ar
    13    13    14   ar
    14    14    15   ar
    15    15    16    1
    16     9    17   ar
    17    17    18   ar
    18    18    19    2
    19    18    20   ar
    20    20    21    1
    21     6    22    1
    22    22    23    1
    23    22     2    1
    24    20     7   ar
    25    15    10   ar
    26     1    24    1
    27     1    25    1
    28     1    26    1
    29     2    27    1
    30     4    28    1
    31     4    29    1
    32     5    30    1
    33     5    31    1
    34    11    32    1
    35    12    33    1
    36    14    34    1
    37    17    35    1
    38    21    36    1
    39    21    37    1
    40    21    38    1
    41    22    39    1
    42    23    40    1
    43    23    41    1
    44    23    42    1
