
     RDKit          3D

 37 39  0  0  0  0  0  0  0  0999 V2000
   -5.6258   -2.7031   -0.6478 O   0  0  0  0  0  0  0  0  0  0  0  0
   -4.8133   -1.7775   -0.8513 C   0  0  0  0  0  0  0  0  0  0  0  0
   -4.7659   -1.1529   -2.0692 O   0  0  0  0  0  0  0  0  0  0  0  0
   -3.9266   -1.3911    0.2448 C   0  0  0  0  0  0  0  0  0  0  0  0
   -3.9862   -2.0345    1.4765 C   0  0  0  0  0  0  0  0  0  0  0  0
   -3.1480   -1.6644    2.5027 C   0  0  0  0  0  0  0  0  0  0  0  0
   -2.2397   -0.6361    2.2885 C   0  0  0  0  0  0  0  0  0  0  0  0
   -2.1738    0.0041    1.0769 C   0  0  0  0  0  0  0  0  0  0  0  0
   -1.0533    1.2996    0.7450 S   0  0  0  0  0  6  0  0  0  0  0  0
   -1.7460    2.3187   -0.1096 O   0  0  0  0  0  0  0  0  0  0  0  0
   -0.7647    1.9792    2.0701 O   0  0  0  0  0  0  0  0  0  0  0  0
    0.4157    0.7711    0.0801 N   0  0  0  0  0  0  0  0  0  0  0  0
    1.0851   -0.0963    0.9937 C   0  0  0  0  0  0  0  0  0  0  0  0
    2.5315    0.2651    1.2595 C   0  0  0  0  0  0  0  0  0  0  0  0
    3.1635    0.4651   -0.0482 C   0  0  0  0  0  0  0  0  0  0  0  0
    4.3790   -0.0887   -0.3453 C   0  0  0  0  0  0  0  0  0  0  0  0
    5.3387   -1.1556    0.9087 Br  0  0  0  0  0  0  0  0  0  0  0  0
    4.9497    0.1295   -1.6156 C   0  0  0  0  0  0  0  0  0  0  0  0
    4.2809    0.8988   -2.5505 C   0  0  0  0  0  0  0  0  0  0  0  0
    3.0514    1.4562   -2.2433 C   0  0  0  0  0  0  0  0  0  0  0  0
    2.4988    1.2293   -0.9764 C   0  0  0  0  0  0  0  0  0  0  0  0
    1.1890    1.7819   -0.5507 C   0  0  0  0  0  0  0  0  0  0  0  0
   -3.0115   -0.3711    0.0629 C   0  0  0  0  0  0  0  0  0  0  0  0
   -5.4869   -1.2558   -2.7918 H   0  0  0  0  0  0  0  0  0  0  0  0
   -4.7256   -2.8430    1.5903 H   0  0  0  0  0  0  0  0  0  0  0  0
   -3.2238   -2.1888    3.4478 H   0  0  0  0  0  0  0  0  0  0  0  0
   -1.5724   -0.3385    3.1054 H   0  0  0  0  0  0  0  0  0  0  0  0
    0.5187   -0.1941    1.9630 H   0  0  0  0  0  0  0  0  0  0  0  0
    1.1282   -1.1077    0.4874 H   0  0  0  0  0  0  0  0  0  0  0  0
    2.5706    1.2334    1.8125 H   0  0  0  0  0  0  0  0  0  0  0  0
    2.9826   -0.5609    1.8467 H   0  0  0  0  0  0  0  0  0  0  0  0
    5.9097   -0.3206   -1.8202 H   0  0  0  0  0  0  0  0  0  0  0  0
    4.7282    1.0631   -3.5304 H   0  0  0  0  0  0  0  0  0  0  0  0
    2.5015    2.0592   -2.9420 H   0  0  0  0  0  0  0  0  0  0  0  0
    0.6182    2.1942   -1.4139 H   0  0  0  0  0  0  0  0  0  0  0  0
    1.4061    2.6080    0.1895 H   0  0  0  0  0  0  0  0  0  0  0  0
   -2.9835    0.1243   -0.9240 H   0  0  0  0  0  0  0  0  0  0  0  0
  1  2  2  0
  2  3  1  0
  2  4  1  0
  4  5  2  0
  5  6  1  0
  6  7  2  0
  7  8  1  0
  8  9  1  0
  9 10  2  0
  9 11  2  0
  9 12  1  0
 12 13  1  0
 13 14  1  0
 14 15  1  0
 15 16  2  0
 16 17  1  0
 16 18  1  0
 18 19  2  0
 19 20  1  0
 20 21  2  0
 21 22  1  0
  8 23  2  0
 23  4  1  0
 22 12  1  0
 21 15  1  0
  3 24  1  0
  5 25  1  0
  6 26  1  0
  7 27  1  0
 13 28  1  0
 13 29  1  0
 14 30  1  0
 14 31  1  0
 18 32  1  0
 19 33  1  0
 20 34  1  0
 22 35  1  0
 22 36  1  0
 23 37  1  0
M  END
$$$$
