@<TRIPOS>MOLECULE
*****
 37 39 0 0 0
SMALL
GASTEIGER

@<TRIPOS>ATOM
      1 O          -5.6258   -2.7031   -0.6478 O.2     1  UNL1       -0.2451
      2 C          -4.8133   -1.7775   -0.8513 C.2     1  UNL1        0.3369
      3 O          -4.7659   -1.1529   -2.0692 O.3     1  UNL1       -0.4771
      4 C          -3.9266   -1.3911    0.2448 C.ar    1  UNL1        0.0607
      5 C          -3.9862   -2.0345    1.4765 C.ar    1  UNL1       -0.0477
      6 C          -3.1480   -1.6644    2.5027 C.ar    1  UNL1       -0.0591
      7 C          -2.2397   -0.6361    2.2885 C.ar    1  UNL1       -0.0353
      8 C          -2.1738    0.0041    1.0769 C.ar    1  UNL1        0.1063
      9 S          -1.0533    1.2996    0.7450 S.O2    1  UNL1        0.0612
     10 O          -1.7460    2.3187   -0.1096 O.2     1  UNL1       -0.1528
     11 O          -0.7647    1.9792    2.0701 O.2     1  UNL1       -0.1528
     12 N           0.4157    0.7711    0.0801 N.3     1  UNL1       -0.1720
     13 C           1.0851   -0.0963    0.9937 C.3     1  UNL1        0.0249
     14 C           2.5315    0.2651    1.2595 C.3     1  UNL1       -0.0119
     15 C           3.1635    0.4651   -0.0482 C.ar    1  UNL1       -0.0277
     16 C           4.3790   -0.0887   -0.3453 C.ar    1  UNL1        0.0214
     17 BR          5.3387   -1.1556    0.9087 Br      1  UNL1       -0.0500
     18 C           4.9497    0.1295   -1.6156 C.ar    1  UNL1       -0.0475
     19 C           4.2809    0.8988   -2.5505 C.ar    1  UNL1       -0.0604
     20 C           3.0514    1.4562   -2.2433 C.ar    1  UNL1       -0.0570
     21 C           2.4988    1.2293   -0.9764 C.ar    1  UNL1       -0.0274
     22 C           1.1890    1.7819   -0.5507 C.3     1  UNL1        0.0458
     23 C          -3.0115   -0.3711    0.0629 C.ar    1  UNL1       -0.0214
     24 H          -5.4869   -1.2558   -2.7918 H       1  UNL1        0.2954
     25 H          -4.7256   -2.8430    1.5903 H       1  UNL1        0.0626
     26 H          -3.2238   -2.1888    3.4478 H       1  UNL1        0.0618
     27 H          -1.5724   -0.3385    3.1054 H       1  UNL1        0.0637
     28 H           0.5187   -0.1941    1.9630 H       1  UNL1        0.0447
     29 H           1.1282   -1.1077    0.4874 H       1  UNL1        0.0447
     30 H           2.5706    1.2334    1.8125 H       1  UNL1        0.0327
     31 H           2.9826   -0.5609    1.8467 H       1  UNL1        0.0327
     32 H           5.9097   -0.3206   -1.8202 H       1  UNL1        0.0629
     33 H           4.7282    1.0631   -3.5304 H       1  UNL1        0.0618
     34 H           2.5015    2.0592   -2.9420 H       1  UNL1        0.0621
     35 H           0.6182    2.1942   -1.4139 H       1  UNL1        0.0493
     36 H           1.4061    2.6080    0.1895 H       1  UNL1        0.0493
     37 H          -2.9835    0.1243   -0.9240 H       1  UNL1        0.0645
@<TRIPOS>BOND
     1     1     2    2
     2     2     3    1
     3     2     4    1
     4     4     5   ar
     5     5     6   ar
     6     6     7   ar
     7     7     8   ar
     8     8     9    1
     9     9    10    2
    10     9    11    2
    11     9    12    1
    12    12    13    1
    13    13    14    1
    14    14    15    1
    15    15    16   ar
    16    16    17    1
    17    16    18   ar
    18    18    19   ar
    19    19    20   ar
    20    20    21   ar
    21    21    22    1
    22     8    23   ar
    23    23     4   ar
    24    22    12    1
    25    21    15   ar
    26     3    24    1
    27     5    25    1
    28     6    26    1
    29     7    27    1
    30    13    28    1
    31    13    29    1
    32    14    30    1
    33    14    31    1
    34    18    32    1
    35    19    33    1
    36    20    34    1
    37    22    35    1
    38    22    36    1
    39    23    37    1
