
     RDKit          3D

 53 56  0  0  0  0  0  0  0  0999 V2000
    4.7509   -0.0859    2.9230 C   0  0  0  0  0  0  0  0  0  0  0  0
    5.5338   -0.2430    1.6700 C   0  0  0  0  0  0  0  0  0  0  0  0
    6.8916   -0.1660    1.6723 N   0  0  0  0  0  0  0  0  0  0  0  0
    7.5982   -0.3000    0.5899 O   0  0  0  0  0  0  0  0  0  0  0  0
    7.0508   -0.5213   -0.5956 C   0  0  0  0  0  0  0  0  0  0  0  0
    7.7677   -0.6463   -1.6253 O   0  0  0  0  0  0  0  0  0  0  0  0
    5.6831   -0.6190   -0.7238 C   0  0  0  0  0  0  0  0  0  0  0  0
    5.0536   -0.8483   -1.9301 C   0  0  0  0  0  0  0  0  0  0  0  0
    3.6814   -0.9382   -2.0081 C   0  0  0  0  0  0  0  0  0  0  0  0
    2.9651   -0.7918   -0.8448 C   0  0  0  0  0  0  0  0  0  0  0  0
    1.5268   -0.8694   -0.8232 N   0  0  0  0  0  0  0  0  0  0  0  0
    0.7019    0.2511   -0.9983 C   0  0  0  0  0  0  0  0  0  0  0  0
    1.2390    1.3689   -1.1817 O   0  0  0  0  0  0  0  0  0  0  0  0
   -0.7878    0.1982   -0.9802 C   0  0  0  0  0  0  0  0  0  0  0  0
   -1.0874   -1.1506   -0.7611 O   0  0  0  0  0  0  0  0  0  0  0  0
   -1.3605    0.9545    0.1714 C   0  0  0  0  0  0  0  0  0  0  0  0
   -2.8325    0.9936    0.3309 C   0  0  0  0  0  0  0  0  0  0  0  0
   -3.6132   -0.1983    0.5027 C   0  0  0  0  0  0  0  0  0  0  0  0
   -4.5867   -0.5422   -0.4022 C   0  0  0  0  0  0  0  0  0  0  0  0
   -5.3699   -1.6963   -0.2868 C   0  0  0  0  0  0  0  0  0  0  0  0
   -6.3220   -2.0129   -1.1905 F   0  0  0  0  0  0  0  0  0  0  0  0
   -5.1549   -2.5234    0.7810 C   0  0  0  0  0  0  0  0  0  0  0  0
   -4.1686   -2.1988    1.7206 C   0  0  0  0  0  0  0  0  0  0  0  0
   -3.4310   -1.0494    1.5520 C   0  0  0  0  0  0  0  0  0  0  0  0
   -2.2066   -0.6117    2.6934 Cl  0  0  0  0  0  0  0  0  0  0  0  0
   -3.1269    1.8778    1.5767 C   0  0  0  0  0  0  0  0  0  0  0  0
   -3.8625    2.8788    0.7680 C   0  0  0  0  0  0  0  0  0  0  0  0
   -3.4325    2.1223   -0.4693 C   0  0  0  0  0  0  0  0  0  0  0  0
   -1.2328    0.5595   -2.3410 C   0  0  0  0  0  0  0  0  0  0  0  0
   -2.5513    0.5876   -2.6095 F   0  0  0  0  0  0  0  0  0  0  0  0
   -0.7546    1.8347   -2.7007 F   0  0  0  0  0  0  0  0  0  0  0  0
   -0.6539   -0.2862   -3.2822 F   0  0  0  0  0  0  0  0  0  0  0  0
    3.5624   -0.5606    0.3845 C   0  0  0  0  0  0  0  0  0  0  0  0
    4.9362   -0.4742    0.4399 C   0  0  0  0  0  0  0  0  0  0  0  0
    4.3272    0.9576    3.0000 H   0  0  0  0  0  0  0  0  0  0  0  0
    5.4704   -0.2159    3.7699 H   0  0  0  0  0  0  0  0  0  0  0  0
    3.9835   -0.8551    3.0484 H   0  0  0  0  0  0  0  0  0  0  0  0
    5.6491   -0.9600   -2.8345 H   0  0  0  0  0  0  0  0  0  0  0  0
    3.1372   -1.1153   -2.9194 H   0  0  0  0  0  0  0  0  0  0  0  0
    1.0980   -1.8049   -0.6698 H   0  0  0  0  0  0  0  0  0  0  0  0
   -1.1916   -1.6598   -1.5989 H   0  0  0  0  0  0  0  0  0  0  0  0
   -0.8016    0.7885    1.1205 H   0  0  0  0  0  0  0  0  0  0  0  0
   -1.0433    2.0197   -0.0449 H   0  0  0  0  0  0  0  0  0  0  0  0
   -4.8347    0.0545   -1.2969 H   0  0  0  0  0  0  0  0  0  0  0  0
   -5.7306   -3.4479    0.9390 H   0  0  0  0  0  0  0  0  0  0  0  0
   -4.0097   -2.8560    2.5538 H   0  0  0  0  0  0  0  0  0  0  0  0
   -2.2312    2.3117    2.0416 H   0  0  0  0  0  0  0  0  0  0  0  0
   -3.7594    1.4354    2.3364 H   0  0  0  0  0  0  0  0  0  0  0  0
   -3.5072    3.9243    0.8410 H   0  0  0  0  0  0  0  0  0  0  0  0
   -4.9720    2.8866    0.9509 H   0  0  0  0  0  0  0  0  0  0  0  0
   -4.3015    1.9417   -1.0850 H   0  0  0  0  0  0  0  0  0  0  0  0
   -2.6862    2.7488   -1.0120 H   0  0  0  0  0  0  0  0  0  0  0  0
    2.9967   -0.4472    1.2895 H   0  0  0  0  0  0  0  0  0  0  0  0
  1  2  1  0
  2  3  2  0
  3  4  1  0
  4  5  1  0
  5  6  2  0
  5  7  1  0
  7  8  2  0
  8  9  1  0
  9 10  2  0
 10 11  1  0
 11 12  1  0
 12 13  2  0
 12 14  1  0
 14 15  1  0
 14 16  1  0
 16 17  1  0
 17 18  1  0
 18 19  2  0
 19 20  1  0
 20 21  1  0
 20 22  2  0
 22 23  1  0
 23 24  2  0
 24 25  1  0
 17 26  1  0
 26 27  1  0
 27 28  1  0
 14 29  1  0
 29 30  1  0
 29 31  1  0
 29 32  1  0
 10 33  1  0
 33 34  2  0
 34  2  1  0
 34  7  1  0
 28 17  1  0
 24 18  1  0
  1 35  1  0
  1 36  1  0
  1 37  1  0
  8 38  1  0
  9 39  1  0
 11 40  1  0
 15 41  1  0
 16 42  1  0
 16 43  1  0
 19 44  1  0
 22 45  1  0
 23 46  1  0
 26 47  1  0
 26 48  1  0
 27 49  1  0
 27 50  1  0
 28 51  1  0
 28 52  1  0
 33 53  1  0
M  END
$$$$
