@<TRIPOS>MOLECULE
*****
 53 56 0 0 0
SMALL
GASTEIGER

@<TRIPOS>ATOM
      1 C           4.7509   -0.0859    2.9230 C.3     1  UNL1       -0.0186
      2 C           5.5338   -0.2430    1.6700 C.ar    1  UNL1        0.0857
      3 N           6.8916   -0.1660    1.6723 N.ar    1  UNL1       -0.0786
      4 O           7.5982   -0.3000    0.5899 O.2     1  UNL1       -0.3117
      5 C           7.0508   -0.5213   -0.5956 C.ar    1  UNL1        0.3669
      6 O           7.7677   -0.6463   -1.6253 O.2     1  UNL1       -0.2425
      7 C           5.6831   -0.6190   -0.7238 C.ar    1  UNL1        0.0703
      8 C           5.0536   -0.8483   -1.9301 C.ar    1  UNL1       -0.0453
      9 C           3.6814   -0.9382   -2.0081 C.ar    1  UNL1       -0.0397
     10 C           2.9651   -0.7918   -0.8448 C.ar    1  UNL1        0.0341
     11 N           1.5268   -0.8694   -0.8232 N.am    1  UNL1       -0.2829
     12 C           0.7019    0.2511   -0.9983 C.2     1  UNL1        0.2580
     13 O           1.2390    1.3689   -1.1817 O.2     1  UNL1       -0.2720
     14 C          -0.7878    0.1982   -0.9802 C.3     1  UNL1        0.2378
     15 O          -1.0874   -1.1506   -0.7611 O.3     1  UNL1       -0.3723
     16 C          -1.3605    0.9545    0.1714 C.3     1  UNL1        0.0031
     17 C          -2.8325    0.9936    0.3309 C.3     1  UNL1        0.0006
     18 C          -3.6132   -0.1983    0.5027 C.ar    1  UNL1       -0.0201
     19 C          -4.5867   -0.5422   -0.4022 C.ar    1  UNL1       -0.0214
     20 C          -5.3699   -1.6963   -0.2868 C.ar    1  UNL1        0.1238
     21 F          -6.3220   -2.0129   -1.1905 F       1  UNL1       -0.2055
     22 C          -5.1549   -2.5234    0.7810 C.ar    1  UNL1       -0.0251
     23 C          -4.1686   -2.1988    1.7206 C.ar    1  UNL1       -0.0404
     24 C          -3.4310   -1.0494    1.5520 C.ar    1  UNL1        0.0448
     25 CL         -2.2066   -0.6117    2.6934 Cl      1  UNL1       -0.0832
     26 C          -3.1269    1.8778    1.5767 C.3     1  UNL1       -0.0432
     27 C          -3.8625    2.8788    0.7680 C.3     1  UNL1       -0.0515
     28 C          -3.4325    2.1223   -0.4693 C.3     1  UNL1       -0.0432
     29 C          -1.2328    0.5595   -2.3410 C.3     1  UNL1        0.4269
     30 F          -2.5513    0.5876   -2.6095 F       1  UNL1       -0.1671
     31 F          -0.7546    1.8347   -2.7007 F       1  UNL1       -0.1671
     32 F          -0.6539   -0.2862   -3.2822 F       1  UNL1       -0.1671
     33 C           3.5624   -0.5606    0.3845 C.ar    1  UNL1       -0.0307
     34 C           4.9362   -0.4742    0.4399 C.ar    1  UNL1        0.0149
     35 H           4.3272    0.9576    3.0000 H       1  UNL1        0.0294
     36 H           5.4704   -0.2159    3.7699 H       1  UNL1        0.0294
     37 H           3.9835   -0.8551    3.0484 H       1  UNL1        0.0294
     38 H           5.6491   -0.9600   -2.8345 H       1  UNL1        0.0626
     39 H           3.1372   -1.1153   -2.9194 H       1  UNL1        0.0636
     40 H           1.0980   -1.8049   -0.6698 H       1  UNL1        0.1549
     41 H          -1.1916   -1.6598   -1.5989 H       1  UNL1        0.2111
     42 H          -0.8016    0.7885    1.1205 H       1  UNL1        0.0309
     43 H          -1.0433    2.0197   -0.0449 H       1  UNL1        0.0309
     44 H          -4.8347    0.0545   -1.2969 H       1  UNL1        0.0649
     45 H          -5.7306   -3.4479    0.9390 H       1  UNL1        0.0647
     46 H          -4.0097   -2.8560    2.5538 H       1  UNL1        0.0633
     47 H          -2.2312    2.3117    2.0416 H       1  UNL1        0.0274
     48 H          -3.7594    1.4354    2.3364 H       1  UNL1        0.0274
     49 H          -3.5072    3.9243    0.8410 H       1  UNL1        0.0266
     50 H          -4.9720    2.8866    0.9509 H       1  UNL1        0.0266
     51 H          -4.3015    1.9417   -1.0850 H       1  UNL1        0.0274
     52 H          -2.6862    2.7488   -1.0120 H       1  UNL1        0.0274
     53 H           2.9967   -0.4472    1.2895 H       1  UNL1        0.0643
@<TRIPOS>BOND
     1     1     2    1
     2     2     3   ar
     3     3     4   ar
     4     4     5   ar
     5     5     6    2
     6     5     7   ar
     7     7     8   ar
     8     8     9   ar
     9     9    10   ar
    10    10    11    1
    11    11    12   am
    12    12    13    2
    13    12    14    1
    14    14    15    1
    15    14    16    1
    16    16    17    1
    17    17    18    1
    18    18    19   ar
    19    19    20   ar
    20    20    21    1
    21    20    22   ar
    22    22    23   ar
    23    23    24   ar
    24    24    25    1
    25    17    26    1
    26    26    27    1
    27    27    28    1
    28    14    29    1
    29    29    30    1
    30    29    31    1
    31    29    32    1
    32    10    33   ar
    33    33    34   ar
    34    34     2   ar
    35    34     7   ar
    36    28    17    1
    37    24    18   ar
    38     1    35    1
    39     1    36    1
    40     1    37    1
    41     8    38    1
    42     9    39    1
    43    11    40    1
    44    15    41    1
    45    16    42    1
    46    16    43    1
    47    19    44    1
    48    22    45    1
    49    23    46    1
    50    26    47    1
    51    26    48    1
    52    27    49    1
    53    27    50    1
    54    28    51    1
    55    28    52    1
    56    33    53    1
