@<TRIPOS>MOLECULE
*****
 29 31 0 0 0
SMALL
GASTEIGER

@<TRIPOS>ATOM
      1 O          -1.3365    3.0384   -0.6075 O.2     1  UNL1       -0.2869
      2 C          -0.9664    1.8661   -0.3898 C.ar    1  UNL1        0.1966
      3 C           0.4047    1.6085   -0.2598 C.ar    1  UNL1        0.0288
      4 C           0.7700    0.3134   -0.0220 C.ar    1  UNL1        0.1392
      5 C           2.1803   -0.0188    0.1228 C.ar    1  UNL1        0.0174
      6 C           3.1748    0.8928    0.0350 C.ar    1  UNL1       -0.0511
      7 C           4.4885    0.4793    0.1871 C.ar    1  UNL1       -0.0611
      8 C           4.8141   -0.8209    0.4233 C.ar    1  UNL1       -0.0617
      9 C           3.8210   -1.7718    0.5177 C.ar    1  UNL1       -0.0611
     10 C           2.5231   -1.3492    0.3650 C.ar    1  UNL1       -0.0511
     11 O          -0.1601   -0.6391    0.0766 O.2     1  UNL1       -0.4544
     12 C          -1.4415   -0.4033   -0.0440 C.ar    1  UNL1        0.1462
     13 C          -2.3733   -1.4166    0.0645 C.ar    1  UNL1        0.0231
     14 C          -3.7324   -1.2111   -0.0560 C.ar    1  UNL1        0.1239
     15 O          -4.6440   -2.2534    0.0587 O.3     1  UNL1       -0.5065
     16 C          -4.1807    0.0936   -0.3007 C.ar    1  UNL1        0.0223
     17 C          -3.2737    1.1232   -0.4135 C.ar    1  UNL1        0.1347
     18 O          -3.6961    2.4171   -0.6548 O.3     1  UNL1       -0.5058
     19 C          -1.9240    0.8866   -0.2884 C.ar    1  UNL1        0.1055
     20 H           1.0965    2.4243   -0.3510 H       1  UNL1        0.0693
     21 H           2.9884    1.9448   -0.1512 H       1  UNL1        0.0625
     22 H           5.3053    1.2140    0.1173 H       1  UNL1        0.0618
     23 H           5.8368   -1.1542    0.5436 H       1  UNL1        0.0618
     24 H           4.0589   -2.8274    0.7077 H       1  UNL1        0.0618
     25 H           1.7182   -2.0785    0.4347 H       1  UNL1        0.0625
     26 H          -2.0550   -2.4378    0.2540 H       1  UNL1        0.0691
     27 H          -4.4038   -3.2054   -0.1410 H       1  UNL1        0.2921
     28 H          -5.2430    0.2568   -0.3953 H       1  UNL1        0.0691
     29 H          -3.7501    3.0284    0.1670 H       1  UNL1        0.2922
@<TRIPOS>BOND
     1     1     2    2
     2     2     3   ar
     3     3     4   ar
     4     4     5    1
     5     5     6   ar
     6     6     7   ar
     7     7     8   ar
     8     8     9   ar
     9     9    10   ar
    10     4    11   ar
    11    11    12   ar
    12    12    13   ar
    13    13    14   ar
    14    14    15    1
    15    14    16   ar
    16    16    17   ar
    17    17    18    1
    18    17    19   ar
    19    19     2   ar
    20    10     5   ar
    21    19    12   ar
    22     3    20    1
    23     6    21    1
    24     7    22    1
    25     8    23    1
    26     9    24    1
    27    10    25    1
    28    13    26    1
    29    15    27    1
    30    16    28    1
    31    18    29    1
