
     RDKit          3D

 29 31  0  0  0  0  0  0  0  0999 V2000
   -1.3365    3.0384   -0.6075 O   0  0  0  0  0  0  0  0  0  0  0  0
   -0.9664    1.8661   -0.3898 C   0  0  0  0  0  0  0  0  0  0  0  0
    0.4047    1.6085   -0.2598 C   0  0  0  0  0  0  0  0  0  0  0  0
    0.7700    0.3134   -0.0220 C   0  0  0  0  0  0  0  0  0  0  0  0
    2.1803   -0.0188    0.1228 C   0  0  0  0  0  0  0  0  0  0  0  0
    3.1748    0.8928    0.0350 C   0  0  0  0  0  0  0  0  0  0  0  0
    4.4885    0.4793    0.1871 C   0  0  0  0  0  0  0  0  0  0  0  0
    4.8141   -0.8209    0.4233 C   0  0  0  0  0  0  0  0  0  0  0  0
    3.8210   -1.7718    0.5177 C   0  0  0  0  0  0  0  0  0  0  0  0
    2.5231   -1.3492    0.3650 C   0  0  0  0  0  0  0  0  0  0  0  0
   -0.1601   -0.6391    0.0766 O   0  0  0  0  0  0  0  0  0  0  0  0
   -1.4415   -0.4033   -0.0440 C   0  0  0  0  0  0  0  0  0  0  0  0
   -2.3733   -1.4166    0.0645 C   0  0  0  0  0  0  0  0  0  0  0  0
   -3.7324   -1.2111   -0.0560 C   0  0  0  0  0  0  0  0  0  0  0  0
   -4.6440   -2.2534    0.0587 O   0  0  0  0  0  0  0  0  0  0  0  0
   -4.1807    0.0936   -0.3007 C   0  0  0  0  0  0  0  0  0  0  0  0
   -3.2737    1.1232   -0.4135 C   0  0  0  0  0  0  0  0  0  0  0  0
   -3.6961    2.4171   -0.6548 O   0  0  0  0  0  0  0  0  0  0  0  0
   -1.9240    0.8866   -0.2884 C   0  0  0  0  0  0  0  0  0  0  0  0
    1.0965    2.4243   -0.3510 H   0  0  0  0  0  0  0  0  0  0  0  0
    2.9884    1.9448   -0.1512 H   0  0  0  0  0  0  0  0  0  0  0  0
    5.3053    1.2140    0.1173 H   0  0  0  0  0  0  0  0  0  0  0  0
    5.8368   -1.1542    0.5436 H   0  0  0  0  0  0  0  0  0  0  0  0
    4.0589   -2.8274    0.7077 H   0  0  0  0  0  0  0  0  0  0  0  0
    1.7182   -2.0785    0.4347 H   0  0  0  0  0  0  0  0  0  0  0  0
   -2.0550   -2.4378    0.2540 H   0  0  0  0  0  0  0  0  0  0  0  0
   -4.4038   -3.2054   -0.1410 H   0  0  0  0  0  0  0  0  0  0  0  0
   -5.2430    0.2568   -0.3953 H   0  0  0  0  0  0  0  0  0  0  0  0
   -3.7501    3.0284    0.1670 H   0  0  0  0  0  0  0  0  0  0  0  0
  1  2  2  0
  2  3  1  0
  3  4  2  0
  4  5  1  0
  5  6  2  0
  6  7  1  0
  7  8  2  0
  8  9  1  0
  9 10  2  0
  4 11  1  0
 11 12  1  0
 12 13  2  0
 13 14  1  0
 14 15  1  0
 14 16  2  0
 16 17  1  0
 17 18  1  0
 17 19  2  0
 19  2  1  0
 10  5  1  0
 19 12  1  0
  3 20  1  0
  6 21  1  0
  7 22  1  0
  8 23  1  0
  9 24  1  0
 10 25  1  0
 13 26  1  0
 15 27  1  0
 16 28  1  0
 18 29  1  0
M  END
$$$$
