
     RDKit          3D

 54 57  0  0  0  0  0  0  0  0999 V2000
   -5.6325   -2.6951    0.9767 C   0  0  0  0  0  0  0  0  0  0  0  0
   -4.6261   -2.3195   -0.0574 C   0  0  0  0  0  0  0  0  0  0  0  0
   -5.2982   -2.3521   -1.4306 C   0  0  0  0  0  0  0  0  0  0  0  0
   -3.6011   -3.2384   -0.0884 O   0  0  0  0  0  0  0  0  0  0  0  0
   -4.1173   -0.9331    0.1162 C   0  0  0  0  0  0  0  0  0  0  0  0
   -4.8912    0.0241    0.1937 O   0  0  0  0  0  0  0  0  0  0  0  0
   -2.6813   -0.7427    0.1914 C   0  0  0  0  0  0  0  0  0  0  0  0
   -1.7292   -1.6472    0.1185 O   0  0  0  0  0  0  0  0  0  0  0  0
   -0.5428   -1.1040    0.2261 C   0  0  0  0  0  0  0  0  0  0  0  0
    0.6969   -1.6498    0.2058 N   0  0  0  0  0  0  0  0  0  0  0  0
    1.8039   -0.8805    0.3372 C   0  0  0  0  0  0  0  0  0  0  0  0
    3.1416   -1.4436    0.3087 C   0  0  0  0  0  0  0  0  0  0  0  0
    3.8046   -1.8391    1.4463 C   0  0  0  0  0  0  0  0  0  0  0  0
    5.0732   -2.3750    1.4254 C   0  0  0  0  0  0  0  0  0  0  0  0
    5.7467   -2.5406    0.2336 C   0  0  0  0  0  0  0  0  0  0  0  0
    5.1009   -2.1510   -0.9170 C   0  0  0  0  0  0  0  0  0  0  0  0
    3.8314   -1.6147   -0.8992 C   0  0  0  0  0  0  0  0  0  0  0  0
    3.0171   -1.1237   -2.3550 Cl  0  0  0  0  0  0  0  0  0  0  0  0
    1.6646    0.4754    0.4940 C   0  0  0  0  0  0  0  0  0  0  0  0
    2.8187    1.3136    0.6443 C   0  0  0  0  0  0  0  0  0  0  0  0
    3.5456    1.3070    1.8057 C   0  0  0  0  0  0  0  0  0  0  0  0
    4.6768    2.1226    1.9465 C   0  0  0  0  0  0  0  0  0  0  0  0
    5.0498    2.9350    0.8969 C   0  0  0  0  0  0  0  0  0  0  0  0
    6.4658    3.9568    1.0703 Cl  0  0  0  0  0  0  0  0  0  0  0  0
    4.3146    2.9286   -0.2504 C   0  0  0  0  0  0  0  0  0  0  0  0
    3.2155    2.1312   -0.3776 C   0  0  0  0  0  0  0  0  0  0  0  0
    0.3961    1.0555    0.5170 C   0  0  0  0  0  0  0  0  0  0  0  0
   -0.6942    0.2463    0.3811 C   0  0  0  0  0  0  0  0  0  0  0  0
   -2.0525    0.4710    0.3584 C   0  0  0  0  0  0  0  0  0  0  0  0
   -2.6285    1.7608    0.4896 N   0  0  0  0  0  0  0  0  0  0  0  0
   -2.8833    2.5654   -0.6332 C   0  0  0  0  0  0  0  0  0  0  0  0
   -2.6035    2.1548   -1.7906 O   0  0  0  0  0  0  0  0  0  0  0  0
   -3.4841    3.9113   -0.4931 C   0  0  0  0  0  0  0  0  0  0  0  0
   -3.6464    4.5290   -1.7331 O   0  0  0  0  0  0  0  0  0  0  0  0
   -6.6365   -2.9132    0.5280 H   0  0  0  0  0  0  0  0  0  0  0  0
   -5.3013   -3.6101    1.4985 H   0  0  0  0  0  0  0  0  0  0  0  0
   -5.7469   -1.8991    1.7396 H   0  0  0  0  0  0  0  0  0  0  0  0
   -6.0735   -1.5860   -1.4565 H   0  0  0  0  0  0  0  0  0  0  0  0
   -5.6914   -3.3946   -1.6203 H   0  0  0  0  0  0  0  0  0  0  0  0
   -4.4775   -2.1588   -2.1681 H   0  0  0  0  0  0  0  0  0  0  0  0
   -3.6065   -3.7777   -0.9124 H   0  0  0  0  0  0  0  0  0  0  0  0
    3.3119   -1.7256    2.4012 H   0  0  0  0  0  0  0  0  0  0  0  0
    5.6077   -2.6913    2.3196 H   0  0  0  0  0  0  0  0  0  0  0  0
    6.7617   -2.9687    0.2087 H   0  0  0  0  0  0  0  0  0  0  0  0
    5.6416   -2.2852   -1.8622 H   0  0  0  0  0  0  0  0  0  0  0  0
    3.3167    0.7065    2.6717 H   0  0  0  0  0  0  0  0  0  0  0  0
    5.2752    2.1467    2.8431 H   0  0  0  0  0  0  0  0  0  0  0  0
    4.5797    3.5560   -1.0974 H   0  0  0  0  0  0  0  0  0  0  0  0
    2.6362    2.1322   -1.2934 H   0  0  0  0  0  0  0  0  0  0  0  0
    0.2691    2.1067    0.6379 H   0  0  0  0  0  0  0  0  0  0  0  0
   -2.8699    2.1227    1.4451 H   0  0  0  0  0  0  0  0  0  0  0  0
   -2.9412    4.5527    0.2041 H   0  0  0  0  0  0  0  0  0  0  0  0
   -4.5241    3.7659   -0.0742 H   0  0  0  0  0  0  0  0  0  0  0  0
   -2.7827    4.6828   -2.1919 H   0  0  0  0  0  0  0  0  0  0  0  0
  1  2  1  0
  2  3  1  0
  2  4  1  0
  2  5  1  0
  5  6  2  0
  5  7  1  0
  7  8  1  0
  8  9  1  0
  9 10  2  0
 10 11  1  0
 11 12  1  0
 12 13  2  0
 13 14  1  0
 14 15  2  0
 15 16  1  0
 16 17  2  0
 17 18  1  0
 11 19  2  0
 19 20  1  0
 20 21  2  0
 21 22  1  0
 22 23  2  0
 23 24  1  0
 23 25  1  0
 25 26  2  0
 19 27  1  0
 27 28  2  0
 28 29  1  0
 29 30  1  0
 30 31  1  0
 31 32  2  0
 31 33  1  0
 33 34  1  0
 29  7  2  0
 28  9  1  0
 17 12  1  0
 26 20  1  0
  1 35  1  0
  1 36  1  0
  1 37  1  0
  3 38  1  0
  3 39  1  0
  3 40  1  0
  4 41  1  0
 13 42  1  0
 14 43  1  0
 15 44  1  0
 16 45  1  0
 21 46  1  0
 22 47  1  0
 25 48  1  0
 26 49  1  0
 27 50  1  0
 30 51  1  0
 33 52  1  0
 33 53  1  0
 34 54  1  0
M  END
$$$$
