@<TRIPOS>MOLECULE
*****
 54 57 0 0 0
SMALL
GASTEIGER

@<TRIPOS>ATOM
      1 C          -5.6325   -2.6951    0.9767 C.3     1  UNL1       -0.0289
      2 C          -4.6261   -2.3195   -0.0574 C.3     1  UNL1        0.1257
      3 C          -5.2982   -2.3521   -1.4306 C.3     1  UNL1       -0.0289
      4 O          -3.6011   -3.2384   -0.0884 O.3     1  UNL1       -0.3811
      5 C          -4.1173   -0.9331    0.1162 C.2     1  UNL1        0.2305
      6 O          -4.8912    0.0241    0.1937 O.2     1  UNL1       -0.2856
      7 C          -2.6813   -0.7427    0.1914 C.ar    1  UNL1        0.1972
      8 O          -1.7292   -1.6472    0.1185 O.2     1  UNL1       -0.4318
      9 C          -0.5428   -1.1040    0.2261 C.ar    1  UNL1        0.2304
     10 N           0.6969   -1.6498    0.2058 N.ar    1  UNL1       -0.2114
     11 C           1.8039   -0.8805    0.3372 C.ar    1  UNL1        0.0839
     12 C           3.1416   -1.4436    0.3087 C.ar    1  UNL1        0.0194
     13 C           3.8046   -1.8391    1.4463 C.ar    1  UNL1       -0.0511
     14 C           5.0732   -2.3750    1.4254 C.ar    1  UNL1       -0.0611
     15 C           5.7467   -2.5406    0.2336 C.ar    1  UNL1       -0.0603
     16 C           5.1009   -2.1510   -0.9170 C.ar    1  UNL1       -0.0427
     17 C           3.8314   -1.6147   -0.8992 C.ar    1  UNL1        0.0501
     18 CL          3.0171   -1.1237   -2.3550 Cl      1  UNL1       -0.0829
     19 C           1.6646    0.4754    0.4940 C.ar    1  UNL1        0.0090
     20 C           2.8187    1.3136    0.6443 C.ar    1  UNL1       -0.0157
     21 C           3.5456    1.3070    1.8057 C.ar    1  UNL1       -0.0526
     22 C           4.6768    2.1226    1.9465 C.ar    1  UNL1       -0.0428
     23 C           5.0498    2.9350    0.8969 C.ar    1  UNL1        0.0410
     24 CL          6.4658    3.9568    1.0703 Cl      1  UNL1       -0.0835
     25 C           4.3146    2.9286   -0.2504 C.ar    1  UNL1       -0.0428
     26 C           3.2155    2.1312   -0.3776 C.ar    1  UNL1       -0.0526
     27 C           0.3961    1.0555    0.5170 C.ar    1  UNL1       -0.0378
     28 C          -0.6942    0.2463    0.3811 C.ar    1  UNL1        0.0624
     29 C          -2.0525    0.4710    0.3584 C.ar    1  UNL1        0.0923
     30 N          -2.6285    1.7608    0.4896 N.am    1  UNL1       -0.2800
     31 C          -2.8833    2.5654   -0.6332 C.2     1  UNL1        0.2428
     32 O          -2.6035    2.1548   -1.7906 O.2     1  UNL1       -0.2730
     33 C          -3.4841    3.9113   -0.4931 C.3     1  UNL1        0.1205
     34 O          -3.6464    4.5290   -1.7331 O.3     1  UNL1       -0.3858
     35 H          -6.6365   -2.9132    0.5280 H       1  UNL1        0.0261
     36 H          -5.3013   -3.6101    1.4985 H       1  UNL1        0.0261
     37 H          -5.7469   -1.8991    1.7396 H       1  UNL1        0.0261
     38 H          -6.0735   -1.5860   -1.4565 H       1  UNL1        0.0261
     39 H          -5.6914   -3.3946   -1.6203 H       1  UNL1        0.0261
     40 H          -4.4775   -2.1588   -2.1681 H       1  UNL1        0.0261
     41 H          -3.6065   -3.7777   -0.9124 H       1  UNL1        0.2107
     42 H           3.3119   -1.7256    2.4012 H       1  UNL1        0.0625
     43 H           5.6077   -2.6913    2.3196 H       1  UNL1        0.0618
     44 H           6.7617   -2.9687    0.2087 H       1  UNL1        0.0618
     45 H           5.6416   -2.2852   -1.8622 H       1  UNL1        0.0632
     46 H           3.3167    0.7065    2.6717 H       1  UNL1        0.0624
     47 H           5.2752    2.1467    2.8431 H       1  UNL1        0.0632
     48 H           4.5797    3.5560   -1.0974 H       1  UNL1        0.0632
     49 H           2.6362    2.1322   -1.2934 H       1  UNL1        0.0624
     50 H           0.2691    2.1067    0.6379 H       1  UNL1        0.0632
     51 H          -2.8699    2.1227    1.4451 H       1  UNL1        0.1550
     52 H          -2.9412    4.5527    0.2041 H       1  UNL1        0.0654
     53 H          -4.5241    3.7659   -0.0742 H       1  UNL1        0.0654
     54 H          -2.7827    4.6828   -2.1919 H       1  UNL1        0.2100
@<TRIPOS>BOND
     1     1     2    1
     2     2     3    1
     3     2     4    1
     4     2     5    1
     5     5     6    2
     6     5     7    1
     7     7     8   ar
     8     8     9   ar
     9     9    10   ar
    10    10    11   ar
    11    11    12    1
    12    12    13   ar
    13    13    14   ar
    14    14    15   ar
    15    15    16   ar
    16    16    17   ar
    17    17    18    1
    18    11    19   ar
    19    19    20    1
    20    20    21   ar
    21    21    22   ar
    22    22    23   ar
    23    23    24    1
    24    23    25   ar
    25    25    26   ar
    26    19    27   ar
    27    27    28   ar
    28    28    29   ar
    29    29    30    1
    30    30    31   am
    31    31    32    2
    32    31    33    1
    33    33    34    1
    34    29     7   ar
    35    28     9   ar
    36    17    12   ar
    37    26    20   ar
    38     1    35    1
    39     1    36    1
    40     1    37    1
    41     3    38    1
    42     3    39    1
    43     3    40    1
    44     4    41    1
    45    13    42    1
    46    14    43    1
    47    15    44    1
    48    16    45    1
    49    21    46    1
    50    22    47    1
    51    25    48    1
    52    26    49    1
    53    27    50    1
    54    30    51    1
    55    33    52    1
    56    33    53    1
    57    34    54    1
