
     RDKit          3D

 45 48  0  0  0  0  0  0  0  0999 V2000
    5.0077    1.6153    1.9594 C   0  0  0  0  0  0  0  0  0  0  0  0
    3.9907    0.6702    1.4019 C   0  0  0  0  0  0  0  0  0  0  0  0
    3.3454   -0.3120    2.1056 C   0  0  0  0  0  0  0  0  0  0  0  0
    2.5375   -0.9274    1.2889 O   0  0  0  0  0  0  0  0  0  0  0  0
    2.6234   -0.3935    0.0810 C   0  0  0  0  0  0  0  0  0  0  0  0
    1.8584   -0.8223   -1.1188 C   0  0  1  0  0  0  0  0  0  0  0  0
    0.7520   -1.7615   -0.8080 C   0  0  0  0  0  0  0  0  0  0  0  0
   -0.5555   -1.0295   -1.1643 C   0  0  1  0  0  0  0  0  0  0  0  0
   -1.6553   -1.9660   -0.7084 C   0  0  1  0  0  0  0  0  0  0  0  0
   -1.7686   -3.1471   -1.6145 C   0  0  0  0  0  0  0  0  0  0  0  0
   -2.8050   -3.9459   -1.1117 F   0  0  0  0  0  0  0  0  0  0  0  0
   -1.2425   -2.4343    0.9970 S   0  0  0  0  0  0  0  0  0  0  0  0
   -0.6792   -0.9382    1.7456 C   0  0  0  0  0  0  0  0  0  0  0  0
   -0.5020   -0.8820    3.1360 N   0  0  0  0  0  0  0  0  0  0  0  0
   -0.4422    0.0632    1.0237 N   0  0  0  0  0  0  0  0  0  0  0  0
   -0.5436    0.2505   -0.3820 C   0  0  2  0  0  0  0  0  0  0  0  0
   -1.7254    1.1093   -0.6550 C   0  0  0  0  0  0  0  0  0  0  0  0
   -2.4664    1.5316    0.4507 C   0  0  0  0  0  0  0  0  0  0  0  0
   -3.5886    2.3329    0.2948 C   0  0  0  0  0  0  0  0  0  0  0  0
   -3.9318    2.6873   -0.9924 C   0  0  0  0  0  0  0  0  0  0  0  0
   -5.0311    3.4753   -1.1826 F   0  0  0  0  0  0  0  0  0  0  0  0
   -3.2002    2.2725   -2.1071 C   0  0  0  0  0  0  0  0  0  0  0  0
   -2.0965    1.4816   -1.9203 C   0  0  0  0  0  0  0  0  0  0  0  0
   -1.3661    1.0667   -2.9709 F   0  0  0  0  0  0  0  0  0  0  0  0
    0.6610    1.0562   -0.8165 C   0  0  0  0  0  0  0  0  0  0  0  0
    1.3776    0.3223   -1.7469 O   0  0  0  0  0  0  0  0  0  0  0  0
    3.5239    0.6036    0.1313 N   0  0  0  0  0  0  0  0  0  0  0  0
    4.6420    1.9338    2.9594 H   0  0  0  0  0  0  0  0  0  0  0  0
    5.9692    1.0770    2.0758 H   0  0  0  0  0  0  0  0  0  0  0  0
    5.0656    2.4732    1.2757 H   0  0  0  0  0  0  0  0  0  0  0  0
    3.4827   -0.5317    3.1407 H   0  0  0  0  0  0  0  0  0  0  0  0
    2.5647   -1.3281   -1.8311 H   0  0  0  0  0  0  0  0  0  0  0  0
    0.7436   -2.1922    0.1864 H   0  0  0  0  0  0  0  0  0  0  0  0
    0.7810   -2.6315   -1.5227 H   0  0  0  0  0  0  0  0  0  0  0  0
   -0.5023   -0.9056   -2.2551 H   0  0  0  0  0  0  0  0  0  0  0  0
   -2.6414   -1.4621   -0.6626 H   0  0  0  0  0  0  0  0  0  0  0  0
   -0.8916   -3.7871   -1.6654 H   0  0  0  0  0  0  0  0  0  0  0  0
   -2.0943   -2.7873   -2.6045 H   0  0  0  0  0  0  0  0  0  0  0  0
   -1.3721   -1.0071    3.7347 H   0  0  0  0  0  0  0  0  0  0  0  0
    0.4103   -0.7281    3.6169 H   0  0  0  0  0  0  0  0  0  0  0  0
   -2.2140    1.2648    1.4669 H   0  0  0  0  0  0  0  0  0  0  0  0
   -4.1625    2.6595    1.1559 H   0  0  0  0  0  0  0  0  0  0  0  0
   -3.5257    2.5885   -3.0996 H   0  0  0  0  0  0  0  0  0  0  0  0
    0.3857    2.0064   -1.3317 H   0  0  0  0  0  0  0  0  0  0  0  0
    1.2818    1.3789    0.0436 H   0  0  0  0  0  0  0  0  0  0  0  0
  1  2  1  0
  2  3  2  0
  3  4  1  0
  4  5  1  0
  5  6  1  0
  6  7  1  0
  7  8  1  0
  8  9  1  0
  9 10  1  0
 10 11  1  0
  9 12  1  0
 12 13  1  0
 13 14  1  0
 13 15  2  0
 15 16  1  0
 16 17  1  1
 17 18  2  0
 18 19  1  0
 19 20  2  0
 20 21  1  0
 20 22  1  0
 22 23  2  0
 23 24  1  0
 16 25  1  0
 25 26  1  0
  5 27  2  0
 27  2  1  0
 26  6  1  0
 16  8  1  0
 23 17  1  0
  1 28  1  0
  1 29  1  0
  1 30  1  0
  3 31  1  0
  6 32  1  6
  7 33  1  0
  7 34  1  0
  8 35  1  6
  9 36  1  1
 10 37  1  0
 10 38  1  0
 14 39  1  0
 14 40  1  0
 18 41  1  0
 19 42  1  0
 22 43  1  0
 25 44  1  0
 25 45  1  0
M  END
$$$$
