@<TRIPOS>MOLECULE
*****
 45 48 0 0 0
SMALL
GASTEIGER

@<TRIPOS>ATOM
      1 C           5.0077    1.6153    1.9594 C.3     1  UNL1       -0.0193
      2 C           3.9907    0.6702    1.4019 C.ar    1  UNL1        0.0765
      3 C           3.3454   -0.3120    2.1056 C.ar    1  UNL1        0.1151
      4 O           2.5375   -0.9274    1.2889 O.2     1  UNL1       -0.4450
      5 C           2.6234   -0.3935    0.0810 C.ar    1  UNL1        0.2245
      6 C           1.8584   -0.8223   -1.1188 C.3     1  UNL1        0.1347
      7 C           0.7520   -1.7615   -0.8080 C.3     1  UNL1       -0.0114
      8 C          -0.5555   -1.0295   -1.1643 C.3     1  UNL1        0.0081
      9 C          -1.6553   -1.9660   -0.7084 C.3     1  UNL1        0.0461
     10 C          -1.7686   -3.1471   -1.6145 C.3     1  UNL1        0.1027
     11 F          -2.8050   -3.9459   -1.1117 F       1  UNL1       -0.2479
     12 S          -1.2425   -2.4343    0.9970 S.3     1  UNL1       -0.0848
     13 C          -0.6792   -0.9382    1.7456 C.2     1  UNL1        0.1479
     14 N          -0.5020   -0.8820    3.1360 N.pl3   1  UNL1       -0.3380
     15 N          -0.4422    0.0632    1.0237 N.2     1  UNL1       -0.2495
     16 C          -0.5436    0.2505   -0.3820 C.3     1  UNL1        0.1189
     17 C          -1.7254    1.1093   -0.6550 C.ar    1  UNL1        0.0178
     18 C          -2.4664    1.5316    0.4507 C.ar    1  UNL1       -0.0507
     19 C          -3.5886    2.3329    0.2948 C.ar    1  UNL1       -0.0259
     20 C          -3.9318    2.6873   -0.9924 C.ar    1  UNL1        0.1261
     21 F          -5.0311    3.4753   -1.1826 F       1  UNL1       -0.2054
     22 C          -3.2002    2.2725   -2.1071 C.ar    1  UNL1        0.0091
     23 C          -2.0965    1.4816   -1.9203 C.ar    1  UNL1        0.1317
     24 F          -1.3661    1.0667   -2.9709 F       1  UNL1       -0.2050
     25 C           0.6610    1.0562   -0.8165 C.3     1  UNL1        0.0783
     26 O           1.3776    0.3223   -1.7469 O.3     1  UNL1       -0.3645
     27 N           3.5239    0.6036    0.1313 N.ar    1  UNL1       -0.2164
     28 H           4.6420    1.9338    2.9594 H       1  UNL1        0.0293
     29 H           5.9692    1.0770    2.0758 H       1  UNL1        0.0293
     30 H           5.0656    2.4732    1.2757 H       1  UNL1        0.0293
     31 H           3.4827   -0.5317    3.1407 H       1  UNL1        0.1049
     32 H           2.5647   -1.3281   -1.8311 H       1  UNL1        0.0694
     33 H           0.7436   -2.1922    0.1864 H       1  UNL1        0.0299
     34 H           0.7810   -2.6315   -1.5227 H       1  UNL1        0.0299
     35 H          -0.5023   -0.9056   -2.2551 H       1  UNL1        0.0341
     36 H          -2.6414   -1.4621   -0.6626 H       1  UNL1        0.0445
     37 H          -0.8916   -3.7871   -1.6654 H       1  UNL1        0.0626
     38 H          -2.0943   -2.7873   -2.6045 H       1  UNL1        0.0626
     39 H          -1.3721   -1.0071    3.7347 H       1  UNL1        0.1442
     40 H           0.4103   -0.7281    3.6169 H       1  UNL1        0.1442
     41 H          -2.2140    1.2648    1.4669 H       1  UNL1        0.0623
     42 H          -4.1625    2.6595    1.1559 H       1  UNL1        0.0646
     43 H          -3.5257    2.5885   -3.0996 H       1  UNL1        0.0675
     44 H           0.3857    2.0064   -1.3317 H       1  UNL1        0.0588
     45 H           1.2818    1.3789    0.0436 H       1  UNL1        0.0588
@<TRIPOS>BOND
     1     1     2    1
     2     2     3   ar
     3     3     4   ar
     4     4     5   ar
     5     5     6    1
     6     6     7    1
     7     7     8    1
     8     8     9    1
     9     9    10    1
    10    10    11    1
    11     9    12    1
    12    12    13    1
    13    13    14    1
    14    13    15    2
    15    15    16    1
    16    16    17    1
    17    17    18   ar
    18    18    19   ar
    19    19    20   ar
    20    20    21    1
    21    20    22   ar
    22    22    23   ar
    23    23    24    1
    24    16    25    1
    25    25    26    1
    26     5    27   ar
    27    27     2   ar
    28    26     6    1
    29    16     8    1
    30    23    17   ar
    31     1    28    1
    32     1    29    1
    33     1    30    1
    34     3    31    1
    35     6    32    1
    36     7    33    1
    37     7    34    1
    38     8    35    1
    39     9    36    1
    40    10    37    1
    41    10    38    1
    42    14    39    1
    43    14    40    1
    44    18    41    1
    45    19    42    1
    46    22    43    1
    47    25    44    1
    48    25    45    1
