@<TRIPOS>MOLECULE
*****
 55 57 0 0 0
SMALL
GASTEIGER

@<TRIPOS>ATOM
      1 C           2.9853   -0.8504   -0.8003 C.2     1  UNL1       -0.0709
      2 C           1.8187    0.0512   -1.0141 C.3     1  UNL1       -0.0269
      3 C           0.7135   -0.4652   -0.1637 C.3     1  UNL1       -0.0110
      4 C           0.3481   -1.8584   -0.5341 C.2     1  UNL1       -0.0727
      5 C           0.9784   -2.8845    0.0505 C.2     1  UNL1       -0.0992
      6 C          -0.7257   -2.1234   -1.5600 C.3     1  UNL1       -0.0314
      7 C          -1.9595   -1.2696   -1.3035 C.3     1  UNL1       -0.0454
      8 C          -1.7107   -0.5084   -0.0020 C.3     1  UNL1       -0.0249
      9 C          -2.9464    0.0758    0.5879 C.3     1  UNL1        0.0203
     10 C          -3.5812   -0.9945    1.4933 C.3     1  UNL1       -0.0548
     11 C          -4.0299    0.4101   -0.4126 C.3     1  UNL1        0.0522
     12 O          -5.1591    0.9552    0.2263 O.3     1  UNL1       -0.3944
     13 C          -2.6837    1.2382    1.4829 C.3     1  UNL1        0.0630
     14 O          -3.8070    1.9507    1.8088 O.3     1  UNL1       -0.3912
     15 C          -1.6645    2.2213    0.9494 C.3     1  UNL1       -0.0257
     16 C          -0.3719    1.4405    0.8318 C.3     1  UNL1       -0.0444
     17 C          -0.5574    0.3981   -0.2224 C.3     1  UNL1       -0.0217
     18 C          -0.5635    1.1023   -1.5717 C.3     1  UNL1       -0.0587
     19 C           4.1445   -0.3862   -0.3177 C.2     1  UNL1        0.0642
     20 C           5.3867   -1.1106   -0.0433 C.2     1  UNL1        0.3375
     21 O           5.5399   -2.3226   -0.3317 O.2     1  UNL1       -0.2452
     22 O           6.3080   -0.2651    0.5571 O.3     1  UNL1       -0.4584
     23 C           5.6560    0.9411    0.9033 C.3     1  UNL1        0.1229
     24 C           4.4264    1.0405    0.0606 C.3     1  UNL1        0.1205
     25 O           4.7474    1.7417   -1.1052 O.3     1  UNL1       -0.3836
     26 H           2.9692   -1.9087   -1.0168 H       1  UNL1        0.0578
     27 H           1.5757   -0.0724   -2.1108 H       1  UNL1        0.0313
     28 H           2.1065    1.0814   -0.8114 H       1  UNL1        0.0313
     29 H           1.1045   -0.4708    0.8948 H       1  UNL1        0.0354
     30 H           0.9628   -3.9609    0.0186 H       1  UNL1        0.0534
     31 H           1.5092   -3.6701    0.5441 H       1  UNL1        0.0534
     32 H          -0.9739   -3.2164   -1.5137 H       1  UNL1        0.0310
     33 H          -0.2834   -1.9670   -2.5589 H       1  UNL1        0.0310
     34 H          -2.1014   -0.6226   -2.1695 H       1  UNL1        0.0271
     35 H          -2.8198   -1.9780   -1.1500 H       1  UNL1        0.0271
     36 H          -1.3474   -1.3170    0.7023 H       1  UNL1        0.0313
     37 H          -4.2067   -1.6862    0.8996 H       1  UNL1        0.0237
     38 H          -4.1574   -0.4964    2.2994 H       1  UNL1        0.0237
     39 H          -2.7799   -1.5815    1.9955 H       1  UNL1        0.0237
     40 H          -3.6863    1.0580   -1.2344 H       1  UNL1        0.0563
     41 H          -4.4044   -0.5178   -0.9127 H       1  UNL1        0.0563
     42 H          -5.4196    0.4579    1.0131 H       1  UNL1        0.2094
     43 H          -2.2245    0.8139    2.4204 H       1  UNL1        0.0599
     44 H          -3.8239    2.1236    2.8024 H       1  UNL1        0.2098
     45 H          -1.9802    2.6174   -0.0333 H       1  UNL1        0.0290
     46 H          -1.5771    3.0380    1.6977 H       1  UNL1        0.0290
     47 H          -0.1739    0.9482    1.8062 H       1  UNL1        0.0272
     48 H           0.4421    2.1139    0.5129 H       1  UNL1        0.0272
     49 H          -0.3737    0.4237   -2.4156 H       1  UNL1        0.0235
     50 H           0.3103    1.8141   -1.5700 H       1  UNL1        0.0235
     51 H          -1.4493    1.7010   -1.7653 H       1  UNL1        0.0235
     52 H           5.4134    0.9296    1.9833 H       1  UNL1        0.0727
     53 H           6.3550    1.7868    0.6906 H       1  UNL1        0.0727
     54 H           3.5651    1.4905    0.5805 H       1  UNL1        0.0680
     55 H           4.1765    2.5404   -1.1687 H       1  UNL1        0.2104
@<TRIPOS>BOND
     1     1     2    1
     2     2     3    1
     3     3     4    1
     4     4     5    2
     5     4     6    1
     6     6     7    1
     7     7     8    1
     8     8     9    1
     9     9    10    1
    10     9    11    1
    11    11    12    1
    12     9    13    1
    13    13    14    1
    14    13    15    1
    15    15    16    1
    16    16    17    1
    17    17    18    1
    18     1    19    2
    19    19    20    1
    20    20    21    2
    21    20    22    1
    22    22    23    1
    23    23    24    1
    24    24    25    1
    25    17     3    1
    26    24    19    1
    27    17     8    1
    28     1    26    1
    29     2    27    1
    30     2    28    1
    31     3    29    1
    32     5    30    1
    33     5    31    1
    34     6    32    1
    35     6    33    1
    36     7    34    1
    37     7    35    1
    38     8    36    1
    39    10    37    1
    40    10    38    1
    41    10    39    1
    42    11    40    1
    43    11    41    1
    44    12    42    1
    45    13    43    1
    46    14    44    1
    47    15    45    1
    48    15    46    1
    49    16    47    1
    50    16    48    1
    51    18    49    1
    52    18    50    1
    53    18    51    1
    54    23    52    1
    55    23    53    1
    56    24    54    1
    57    25    55    1
