@<TRIPOS>MOLECULE
*****
 30 31 0 0 0
SMALL
GASTEIGER

@<TRIPOS>ATOM
      1 O          -1.5122    1.9749    2.7182 O.2     1  UNL1       -0.2507
      2 C          -2.2471    1.2595    1.9597 C.2     1  UNL1        0.3091
      3 O          -2.9604    0.2129    2.5454 O.3     1  UNL1       -0.4804
      4 C          -2.3099    1.5541    0.5110 C.3     1  UNL1        0.0716
      5 C          -2.0252    0.4111   -0.3625 C.ar    1  UNL1       -0.0156
      6 C          -3.0562   -0.1153   -1.1020 C.ar    1  UNL1       -0.0563
      7 C          -2.9055   -1.1690   -1.9818 C.ar    1  UNL1       -0.0614
      8 C          -1.6460   -1.7148   -2.1238 C.ar    1  UNL1       -0.0600
      9 C          -0.5772   -1.1894   -1.3816 C.ar    1  UNL1       -0.0403
     10 C          -0.7624   -0.1378   -0.5083 C.ar    1  UNL1        0.0351
     11 N           0.3275    0.3824    0.2344 N.pl3   1  UNL1       -0.3120
     12 C           1.6673    0.0685    0.2652 C.ar    1  UNL1        0.0684
     13 C           2.5426    1.0975   -0.1119 C.ar    1  UNL1        0.0635
     14 CL          1.9076    2.6565   -0.5795 Cl      1  UNL1       -0.0816
     15 C           3.9052    0.9444   -0.1312 C.ar    1  UNL1       -0.0415
     16 C           4.4612   -0.2719    0.2300 C.ar    1  UNL1       -0.0589
     17 C           3.6057   -1.2660    0.5988 C.ar    1  UNL1       -0.0415
     18 C           2.2283   -1.1159    0.6186 C.ar    1  UNL1        0.0635
     19 CL          1.2091   -2.4916    1.1335 Cl      1  UNL1       -0.0816
     20 H          -2.3691   -0.4195    3.1244 H       1  UNL1        0.2951
     21 H          -3.2873    2.0271    0.2957 H       1  UNL1        0.0427
     22 H          -1.5684    2.3959    0.2762 H       1  UNL1        0.0427
     23 H          -4.0505    0.3345   -0.9631 H       1  UNL1        0.0621
     24 H          -3.7838   -1.5325   -2.5171 H       1  UNL1        0.0618
     25 H          -1.4742   -2.5618   -2.8085 H       1  UNL1        0.0618
     26 H           0.3993   -1.6423   -1.5336 H       1  UNL1        0.0636
     27 H           0.0754    1.2024    0.9003 H       1  UNL1        0.1522
     28 H           4.6040    1.7417   -0.4176 H       1  UNL1        0.0633
     29 H           5.5466   -0.3958    0.2224 H       1  UNL1        0.0618
     30 H           4.0556   -2.2400    0.8886 H       1  UNL1        0.0633
@<TRIPOS>BOND
     1     1     2    2
     2     2     3    1
     3     2     4    1
     4     4     5    1
     5     5     6   ar
     6     6     7   ar
     7     7     8   ar
     8     8     9   ar
     9     9    10   ar
    10    10    11    1
    11    11    12    1
    12    12    13   ar
    13    13    14    1
    14    13    15   ar
    15    15    16   ar
    16    16    17   ar
    17    17    18   ar
    18    18    19    1
    19    10     5   ar
    20    18    12   ar
    21     3    20    1
    22     4    21    1
    23     4    22    1
    24     6    23    1
    25     7    24    1
    26     8    25    1
    27     9    26    1
    28    11    27    1
    29    15    28    1
    30    16    29    1
    31    17    30    1
