
     RDKit          3D

 30 31  0  0  0  0  0  0  0  0999 V2000
   -1.5122    1.9749    2.7182 O   0  0  0  0  0  0  0  0  0  0  0  0
   -2.2471    1.2595    1.9597 C   0  0  0  0  0  0  0  0  0  0  0  0
   -2.9604    0.2129    2.5454 O   0  0  0  0  0  0  0  0  0  0  0  0
   -2.3099    1.5541    0.5110 C   0  0  0  0  0  0  0  0  0  0  0  0
   -2.0252    0.4111   -0.3625 C   0  0  0  0  0  0  0  0  0  0  0  0
   -3.0562   -0.1153   -1.1020 C   0  0  0  0  0  0  0  0  0  0  0  0
   -2.9055   -1.1690   -1.9818 C   0  0  0  0  0  0  0  0  0  0  0  0
   -1.6460   -1.7148   -2.1238 C   0  0  0  0  0  0  0  0  0  0  0  0
   -0.5772   -1.1894   -1.3816 C   0  0  0  0  0  0  0  0  0  0  0  0
   -0.7624   -0.1378   -0.5083 C   0  0  0  0  0  0  0  0  0  0  0  0
    0.3275    0.3824    0.2344 N   0  0  0  0  0  0  0  0  0  0  0  0
    1.6673    0.0685    0.2652 C   0  0  0  0  0  0  0  0  0  0  0  0
    2.5426    1.0975   -0.1119 C   0  0  0  0  0  0  0  0  0  0  0  0
    1.9076    2.6565   -0.5795 Cl  0  0  0  0  0  0  0  0  0  0  0  0
    3.9052    0.9444   -0.1312 C   0  0  0  0  0  0  0  0  0  0  0  0
    4.4612   -0.2719    0.2300 C   0  0  0  0  0  0  0  0  0  0  0  0
    3.6057   -1.2660    0.5988 C   0  0  0  0  0  0  0  0  0  0  0  0
    2.2283   -1.1159    0.6186 C   0  0  0  0  0  0  0  0  0  0  0  0
    1.2091   -2.4916    1.1335 Cl  0  0  0  0  0  0  0  0  0  0  0  0
   -2.3691   -0.4195    3.1244 H   0  0  0  0  0  0  0  0  0  0  0  0
   -3.2873    2.0271    0.2957 H   0  0  0  0  0  0  0  0  0  0  0  0
   -1.5684    2.3959    0.2762 H   0  0  0  0  0  0  0  0  0  0  0  0
   -4.0505    0.3345   -0.9631 H   0  0  0  0  0  0  0  0  0  0  0  0
   -3.7838   -1.5325   -2.5171 H   0  0  0  0  0  0  0  0  0  0  0  0
   -1.4742   -2.5618   -2.8085 H   0  0  0  0  0  0  0  0  0  0  0  0
    0.3993   -1.6423   -1.5336 H   0  0  0  0  0  0  0  0  0  0  0  0
    0.0754    1.2024    0.9003 H   0  0  0  0  0  0  0  0  0  0  0  0
    4.6040    1.7417   -0.4176 H   0  0  0  0  0  0  0  0  0  0  0  0
    5.5466   -0.3958    0.2224 H   0  0  0  0  0  0  0  0  0  0  0  0
    4.0556   -2.2400    0.8886 H   0  0  0  0  0  0  0  0  0  0  0  0
  1  2  2  0
  2  3  1  0
  2  4  1  0
  4  5  1  0
  5  6  2  0
  6  7  1  0
  7  8  2  0
  8  9  1  0
  9 10  2  0
 10 11  1  0
 11 12  1  0
 12 13  2  0
 13 14  1  0
 13 15  1  0
 15 16  2  0
 16 17  1  0
 17 18  2  0
 18 19  1  0
 10  5  1  0
 18 12  1  0
  3 20  1  0
  4 21  1  0
  4 22  1  0
  6 23  1  0
  7 24  1  0
  8 25  1  0
  9 26  1  0
 11 27  1  0
 15 28  1  0
 16 29  1  0
 17 30  1  0
M  END
$$$$
