@<TRIPOS>MOLECULE
*****
 44 47 0 0 0
SMALL
GASTEIGER

@<TRIPOS>ATOM
      1 C           5.7367    1.2455   -0.3152 C.3     1  UNL1       -0.0126
      2 N           4.5160    0.4942   -0.1038 N.3     1  UNL1       -0.3024
      3 C           4.0608   -0.1506   -1.3191 C.3     1  UNL1        0.0146
      4 C           2.7302    0.4527   -1.7406 C.3     1  UNL1        0.0306
      5 N           1.7823    0.1466   -0.6706 N.am    1  UNL1       -0.2649
      6 C           2.2594    0.3965    0.6609 C.3     1  UNL1        0.0306
      7 C           3.4904    1.2728    0.5261 C.3     1  UNL1        0.0146
      8 C           0.5053   -0.3588   -1.0451 C.2     1  UNL1        0.4049
      9 O           0.3288   -0.4897   -2.2866 O.2     1  UNL1       -0.2262
     10 O          -0.4783   -0.6879   -0.1586 O.3     1  UNL1       -0.4218
     11 C          -1.7562   -1.1888   -0.4393 C.3     1  UNL1        0.2247
     12 N          -2.8490   -0.3720    0.0352 N.am    1  UNL1       -0.2080
     13 C          -3.6552   -1.2127    0.8852 C.2     1  UNL1        0.2753
     14 O          -4.7129   -0.9667    1.5516 O.2     1  UNL1       -0.2677
     15 C          -3.1021   -2.5612    0.9426 C.ar    1  UNL1        0.1525
     16 N          -3.4263   -3.7172    1.5464 N.ar    1  UNL1       -0.2469
     17 C          -2.7025   -4.8415    1.3995 C.ar    1  UNL1        0.0465
     18 C          -1.5790   -4.8222    0.5994 C.ar    1  UNL1        0.0462
     19 N          -1.2422   -3.6544   -0.0168 N.ar    1  UNL1       -0.2506
     20 C          -1.9790   -2.5399    0.1427 C.ar    1  UNL1        0.1311
     21 C          -3.2247    0.9776   -0.1729 C.ar    1  UNL1        0.1309
     22 N          -4.3140    1.4817    0.4297 N.ar    1  UNL1       -0.2384
     23 C          -4.6879    2.7813    0.2342 C.ar    1  UNL1        0.0480
     24 C          -3.9809    3.6356   -0.5788 C.ar    1  UNL1        0.0592
     25 CL         -4.4520    5.3031   -0.8358 Cl      1  UNL1       -0.0820
     26 C          -2.8582    3.1479   -1.2113 C.ar    1  UNL1       -0.0387
     27 C          -2.5147    1.8311   -0.9879 C.ar    1  UNL1       -0.0198
     28 H           5.5444    2.3435   -0.4842 H       1  UNL1        0.0391
     29 H           6.3237    1.1931    0.6297 H       1  UNL1        0.0391
     30 H           6.3531    0.8207   -1.1296 H       1  UNL1        0.0391
     31 H           4.8074   -0.1493   -2.1163 H       1  UNL1        0.0442
     32 H           3.8343   -1.2085   -1.0571 H       1  UNL1        0.0442
     33 H           2.7741    1.5472   -1.8267 H       1  UNL1        0.0478
     34 H           2.4128   -0.0091   -2.6853 H       1  UNL1        0.0478
     35 H           2.5823   -0.5188    1.1924 H       1  UNL1        0.0478
     36 H           1.5005    0.9251    1.2769 H       1  UNL1        0.0478
     37 H           3.2927    2.2431    0.0623 H       1  UNL1        0.0442
     38 H           3.8565    1.4740    1.5745 H       1  UNL1        0.0442
     39 H          -1.8469   -1.2665   -1.5411 H       1  UNL1        0.1030
     40 H          -2.9317   -5.7835    1.8668 H       1  UNL1        0.0845
     41 H          -0.9079   -5.6453    0.3919 H       1  UNL1        0.0845
     42 H          -5.5780    3.1377    0.7464 H       1  UNL1        0.0845
     43 H          -2.2769    3.7889   -1.8579 H       1  UNL1        0.0634
     44 H          -1.6353    1.5042   -1.5055 H       1  UNL1        0.0652
@<TRIPOS>BOND
     1     1     2    1
     2     2     3    1
     3     3     4    1
     4     4     5    1
     5     5     6    1
     6     6     7    1
     7     5     8   am
     8     8     9    2
     9     8    10    1
    10    10    11    1
    11    11    12    1
    12    12    13   am
    13    13    14    2
    14    13    15    1
    15    15    16   ar
    16    16    17   ar
    17    17    18   ar
    18    18    19   ar
    19    19    20   ar
    20    12    21    1
    21    21    22   ar
    22    22    23   ar
    23    23    24   ar
    24    24    25    1
    25    24    26   ar
    26    26    27   ar
    27     7     2    1
    28    20    11    1
    29    27    21   ar
    30    20    15   ar
    31     1    28    1
    32     1    29    1
    33     1    30    1
    34     3    31    1
    35     3    32    1
    36     4    33    1
    37     4    34    1
    38     6    35    1
    39     6    36    1
    40     7    37    1
    41     7    38    1
    42    11    39    1
    43    17    40    1
    44    18    41    1
    45    23    42    1
    46    26    43    1
    47    27    44    1
