@<TRIPOS>MOLECULE
*****
 18 18 0 0 0
SMALL
GASTEIGER

@<TRIPOS>ATOM
      1 CL          2.8622    1.2237   -0.1312 Cl      1  UNL1       -0.1187
      2 C           1.2646    0.5515   -0.4132 C.3     1  UNL1        0.0691
      3 C           1.1173   -0.8433    0.1660 C.3     1  UNL1        0.0691
      4 CL          2.4520   -1.8770   -0.3596 Cl      1  UNL1       -0.1187
      5 C          -0.2013   -1.3674   -0.3434 C.3     1  UNL1        0.0691
      6 CL         -0.4353   -3.0758   -0.0090 Cl      1  UNL1       -0.1187
      7 C          -1.3381   -0.5553    0.2264 C.3     1  UNL1        0.0691
      8 CL         -1.7014   -1.0067    1.9158 Cl      1  UNL1       -0.1187
      9 C          -1.1709    0.9098    0.0449 C.3     1  UNL1        0.0691
     10 CL         -1.8208    1.3495   -1.5686 Cl      1  UNL1       -0.1187
     11 C           0.2128    1.4325    0.1975 C.3     1  UNL1        0.0691
     12 CL          0.6482    1.7997    1.8745 Cl      1  UNL1       -0.1187
     13 H           1.0611    0.4699   -1.4916 H       1  UNL1        0.0495
     14 H           1.0964   -0.7759    1.2686 H       1  UNL1        0.0495
     15 H          -0.2416   -1.2262   -1.4505 H       1  UNL1        0.0495
     16 H          -2.2448   -0.8629   -0.3548 H       1  UNL1        0.0495
     17 H          -1.8201    1.4484    0.7837 H       1  UNL1        0.0495
     18 H           0.2599    2.4055   -0.3556 H       1  UNL1        0.0495
@<TRIPOS>BOND
     1     1     2    1
     2     2     3    1
     3     3     4    1
     4     3     5    1
     5     5     6    1
     6     5     7    1
     7     7     8    1
     8     7     9    1
     9     9    10    1
    10     9    11    1
    11    11    12    1
    12    11     2    1
    13     2    13    1
    14     3    14    1
    15     5    15    1
    16     7    16    1
    17     9    17    1
    18    11    18    1
