
     RDKit          3D

 18 18  0  0  0  0  0  0  0  0999 V2000
    2.8622    1.2237   -0.1312 Cl  0  0  0  0  0  0  0  0  0  0  0  0
    1.2646    0.5515   -0.4132 C   0  0  1  0  0  0  0  0  0  0  0  0
    1.1173   -0.8433    0.1660 C   0  0  2  0  0  0  0  0  0  0  0  0
    2.4520   -1.8770   -0.3596 Cl  0  0  0  0  0  0  0  0  0  0  0  0
   -0.2013   -1.3674   -0.3434 C   0  0  1  0  0  0  0  0  0  0  0  0
   -0.4353   -3.0758   -0.0090 Cl  0  0  0  0  0  0  0  0  0  0  0  0
   -1.3381   -0.5553    0.2264 C   0  0  1  0  0  0  0  0  0  0  0  0
   -1.7014   -1.0067    1.9158 Cl  0  0  0  0  0  0  0  0  0  0  0  0
   -1.1709    0.9098    0.0449 C   0  0  2  0  0  0  0  0  0  0  0  0
   -1.8208    1.3495   -1.5686 Cl  0  0  0  0  0  0  0  0  0  0  0  0
    0.2128    1.4325    0.1975 C   0  0  1  0  0  0  0  0  0  0  0  0
    0.6482    1.7997    1.8745 Cl  0  0  0  0  0  0  0  0  0  0  0  0
    1.0611    0.4699   -1.4916 H   0  0  0  0  0  0  0  0  0  0  0  0
    1.0964   -0.7759    1.2686 H   0  0  0  0  0  0  0  0  0  0  0  0
   -0.2416   -1.2262   -1.4505 H   0  0  0  0  0  0  0  0  0  0  0  0
   -2.2448   -0.8629   -0.3548 H   0  0  0  0  0  0  0  0  0  0  0  0
   -1.8201    1.4484    0.7837 H   0  0  0  0  0  0  0  0  0  0  0  0
    0.2599    2.4055   -0.3556 H   0  0  0  0  0  0  0  0  0  0  0  0
  1  2  1  0
  2  3  1  0
  3  4  1  0
  3  5  1  0
  5  6  1  0
  5  7  1  0
  7  8  1  0
  7  9  1  0
  9 10  1  0
  9 11  1  0
 11 12  1  0
 11  2  1  0
  2 13  1  6
  3 14  1  1
  5 15  1  6
  7 16  1  6
  9 17  1  1
 11 18  1  6
M  END
$$$$
