
     RDKit          3D

 58 60  0  0  0  0  0  0  0  0999 V2000
   -4.7063   -1.3724    1.9885 C   0  0  0  0  0  0  0  0  0  0  0  0
   -4.4112   -0.4096    0.8431 C   0  0  0  0  0  0  0  0  0  0  0  0
   -2.9899   -0.5015    0.3567 C   0  0  0  0  0  0  0  0  0  0  0  0
   -2.2180    0.5774    0.3258 C   0  0  0  0  0  0  0  0  0  0  0  0
   -2.6756    1.8898    0.7372 C   0  0  0  0  0  0  0  0  0  0  0  0
   -1.9602    2.6181    1.6768 C   0  0  0  0  0  0  0  0  0  0  0  0
   -2.3487    3.8849    2.0619 C   0  0  0  0  0  0  0  0  0  0  0  0
   -3.4679    4.4632    1.5169 C   0  0  0  0  0  0  0  0  0  0  0  0
   -3.8643    5.7508    1.9094 O   0  0  0  0  0  0  0  0  0  0  0  0
   -4.1969    3.7587    0.5783 C   0  0  0  0  0  0  0  0  0  0  0  0
   -3.7849    2.4926    0.2108 C   0  0  0  0  0  0  0  0  0  0  0  0
   -0.8167    0.3912   -0.1201 C   0  0  0  0  0  0  0  0  0  0  0  0
   -0.2831    1.1980   -1.1054 C   0  0  0  0  0  0  0  0  0  0  0  0
    1.0339    1.0665   -1.5185 C   0  0  0  0  0  0  0  0  0  0  0  0
    1.8362    0.1068   -0.9325 C   0  0  0  0  0  0  0  0  0  0  0  0
    3.1413   -0.0079   -1.3616 O   0  0  0  0  0  0  0  0  0  0  0  0
    3.9595   -0.9887   -0.7326 C   0  0  0  0  0  0  0  0  0  0  0  0
    5.3443   -1.0478   -1.3002 C   0  0  0  0  0  0  0  0  0  0  0  0
    6.0646    0.1970   -1.1934 N   0  0  0  0  0  0  0  0  0  0  0  0
    6.3481    0.4745    0.1970 C   0  0  0  0  0  0  0  0  0  0  0  0
    7.3072    0.0082   -1.9571 C   0  0  0  0  0  0  0  0  0  0  0  0
    1.3291   -0.7223    0.0647 C   0  0  0  0  0  0  0  0  0  0  0  0
    0.0181   -0.5576    0.4426 C   0  0  0  0  0  0  0  0  0  0  0  0
   -2.4505   -1.7340   -0.1747 C   0  0  0  0  0  0  0  0  0  0  0  0
   -2.4429   -2.9002    0.5235 C   0  0  0  0  0  0  0  0  0  0  0  0
   -1.9562   -4.0888   -0.0526 C   0  0  0  0  0  0  0  0  0  0  0  0
   -1.4817   -4.0877   -1.3242 C   0  0  0  0  0  0  0  0  0  0  0  0
   -1.4777   -2.9320   -2.0432 C   0  0  0  0  0  0  0  0  0  0  0  0
   -1.9590   -1.7809   -1.4613 C   0  0  0  0  0  0  0  0  0  0  0  0
   -3.9216   -1.4011    2.7511 H   0  0  0  0  0  0  0  0  0  0  0  0
   -5.6127   -0.9784    2.5624 H   0  0  0  0  0  0  0  0  0  0  0  0
   -4.9198   -2.3974    1.6395 H   0  0  0  0  0  0  0  0  0  0  0  0
   -5.0667   -0.7089    0.0073 H   0  0  0  0  0  0  0  0  0  0  0  0
   -4.6506    0.5859    1.2691 H   0  0  0  0  0  0  0  0  0  0  0  0
   -1.0668    2.2436    2.1565 H   0  0  0  0  0  0  0  0  0  0  0  0
   -1.7998    4.4724    2.7992 H   0  0  0  0  0  0  0  0  0  0  0  0
   -4.4311    6.3067    1.2756 H   0  0  0  0  0  0  0  0  0  0  0  0
   -5.0878    4.1955    0.1324 H   0  0  0  0  0  0  0  0  0  0  0  0
   -4.3918    2.0018   -0.5415 H   0  0  0  0  0  0  0  0  0  0  0  0
   -0.9302    1.9280   -1.5361 H   0  0  0  0  0  0  0  0  0  0  0  0
    1.3631    1.7391   -2.2931 H   0  0  0  0  0  0  0  0  0  0  0  0
    4.0631   -0.6727    0.3319 H   0  0  0  0  0  0  0  0  0  0  0  0
    3.4624   -1.9611   -0.8598 H   0  0  0  0  0  0  0  0  0  0  0  0
    5.9262   -1.8008   -0.7147 H   0  0  0  0  0  0  0  0  0  0  0  0
    5.3551   -1.3433   -2.3858 H   0  0  0  0  0  0  0  0  0  0  0  0
    5.6097    1.2263    0.5838 H   0  0  0  0  0  0  0  0  0  0  0  0
    6.3255   -0.4195    0.8429 H   0  0  0  0  0  0  0  0  0  0  0  0
    7.3743    0.9103    0.3218 H   0  0  0  0  0  0  0  0  0  0  0  0
    7.7228    0.9891   -2.2619 H   0  0  0  0  0  0  0  0  0  0  0  0
    7.0183   -0.6042   -2.8454 H   0  0  0  0  0  0  0  0  0  0  0  0
    7.9902   -0.5794   -1.3325 H   0  0  0  0  0  0  0  0  0  0  0  0
    1.9665   -1.4702    0.5210 H   0  0  0  0  0  0  0  0  0  0  0  0
   -0.3276   -1.2101    1.2283 H   0  0  0  0  0  0  0  0  0  0  0  0
   -2.7614   -3.0212    1.5264 H   0  0  0  0  0  0  0  0  0  0  0  0
   -1.9472   -5.0253    0.4945 H   0  0  0  0  0  0  0  0  0  0  0  0
   -1.0897   -4.9850   -1.8249 H   0  0  0  0  0  0  0  0  0  0  0  0
   -1.1058   -2.8853   -3.0704 H   0  0  0  0  0  0  0  0  0  0  0  0
   -1.9573   -0.8806   -2.0490 H   0  0  0  0  0  0  0  0  0  0  0  0
  1  2  1  0
  2  3  1  0
  3  4  2  0
  4  5  1  0
  5  6  2  0
  6  7  1  0
  7  8  2  0
  8  9  1  0
  8 10  1  0
 10 11  2  0
  4 12  1  0
 12 13  2  0
 13 14  1  0
 14 15  2  0
 15 16  1  0
 16 17  1  0
 17 18  1  0
 18 19  1  0
 19 20  1  0
 19 21  1  0
 15 22  1  0
 22 23  2  0
  3 24  1  0
 24 25  2  0
 25 26  1  0
 26 27  2  0
 27 28  1  0
 28 29  2  0
 11  5  1  0
 23 12  1  0
 29 24  1  0
  1 30  1  0
  1 31  1  0
  1 32  1  0
  2 33  1  0
  2 34  1  0
  6 35  1  0
  7 36  1  0
  9 37  1  0
 10 38  1  0
 11 39  1  0
 13 40  1  0
 14 41  1  0
 17 42  1  0
 17 43  1  0
 18 44  1  0
 18 45  1  0
 20 46  1  0
 20 47  1  0
 20 48  1  0
 21 49  1  0
 21 50  1  0
 21 51  1  0
 22 52  1  0
 23 53  1  0
 25 54  1  0
 26 55  1  0
 27 56  1  0
 28 57  1  0
 29 58  1  0
M  END
$$$$
