@<TRIPOS>MOLECULE
*****
 58 60 0 0 0
SMALL
GASTEIGER

@<TRIPOS>ATOM
      1 C          -4.7063   -1.3724    1.9885 C.3     1  UNL1       -0.0612
      2 C          -4.4112   -0.4096    0.8431 C.3     1  UNL1       -0.0294
      3 C          -2.9899   -0.5015    0.3567 C.2     1  UNL1       -0.0322
      4 C          -2.2180    0.5774    0.3258 C.2     1  UNL1       -0.0070
      5 C          -2.6756    1.8898    0.7372 C.ar    1  UNL1       -0.0168
      6 C          -1.9602    2.6181    1.6768 C.ar    1  UNL1       -0.0506
      7 C          -2.3487    3.8849    2.0619 C.ar    1  UNL1       -0.0196
      8 C          -3.4679    4.4632    1.5169 C.ar    1  UNL1        0.1169
      9 O          -3.8643    5.7508    1.9094 O.3     1  UNL1       -0.5068
     10 C          -4.1969    3.7587    0.5783 C.ar    1  UNL1       -0.0196
     11 C          -3.7849    2.4926    0.2108 C.ar    1  UNL1       -0.0506
     12 C          -0.8167    0.3912   -0.1201 C.ar    1  UNL1       -0.0168
     13 C          -0.2831    1.1980   -1.1054 C.ar    1  UNL1       -0.0506
     14 C           1.0339    1.0665   -1.5185 C.ar    1  UNL1       -0.0194
     15 C           1.8362    0.1068   -0.9325 C.ar    1  UNL1        0.1206
     16 O           3.1413   -0.0079   -1.3616 O.3     1  UNL1       -0.4907
     17 C           3.9595   -0.9887   -0.7326 C.3     1  UNL1        0.1022
     18 C           5.3443   -1.0478   -1.3002 C.3     1  UNL1        0.0325
     19 N           6.0646    0.1970   -1.1934 N.3     1  UNL1       -0.3051
     20 C           6.3481    0.4745    0.1970 C.3     1  UNL1       -0.0129
     21 C           7.3072    0.0082   -1.9571 C.3     1  UNL1       -0.0129
     22 C           1.3291   -0.7223    0.0647 C.ar    1  UNL1       -0.0194
     23 C           0.0181   -0.5576    0.4426 C.ar    1  UNL1       -0.0506
     24 C          -2.4505   -1.7340   -0.1747 C.ar    1  UNL1       -0.0213
     25 C          -2.4429   -2.9002    0.5235 C.ar    1  UNL1       -0.0543
     26 C          -1.9562   -4.0888   -0.0526 C.ar    1  UNL1       -0.0612
     27 C          -1.4817   -4.0877   -1.3242 C.ar    1  UNL1       -0.0617
     28 C          -1.4777   -2.9320   -2.0432 C.ar    1  UNL1       -0.0612
     29 C          -1.9590   -1.7809   -1.4613 C.ar    1  UNL1       -0.0543
     30 H          -3.9216   -1.4011    2.7511 H       1  UNL1        0.0233
     31 H          -5.6127   -0.9784    2.5624 H       1  UNL1        0.0233
     32 H          -4.9198   -2.3974    1.6395 H       1  UNL1        0.0233
     33 H          -5.0667   -0.7089    0.0073 H       1  UNL1        0.0311
     34 H          -4.6506    0.5859    1.2691 H       1  UNL1        0.0311
     35 H          -1.0668    2.2436    2.1565 H       1  UNL1        0.0625
     36 H          -1.7998    4.4724    2.7992 H       1  UNL1        0.0654
     37 H          -4.4311    6.3067    1.2756 H       1  UNL1        0.2921
     38 H          -5.0878    4.1955    0.1324 H       1  UNL1        0.0654
     39 H          -4.3918    2.0018   -0.5415 H       1  UNL1        0.0625
     40 H          -0.9302    1.9280   -1.5361 H       1  UNL1        0.0625
     41 H           1.3631    1.7391   -2.2931 H       1  UNL1        0.0654
     42 H           4.0631   -0.6727    0.3319 H       1  UNL1        0.0709
     43 H           3.4624   -1.9611   -0.8598 H       1  UNL1        0.0709
     44 H           5.9262   -1.8008   -0.7147 H       1  UNL1        0.0460
     45 H           5.3551   -1.3433   -2.3858 H       1  UNL1        0.0460
     46 H           5.6097    1.2263    0.5838 H       1  UNL1        0.0391
     47 H           6.3255   -0.4195    0.8429 H       1  UNL1        0.0391
     48 H           7.3743    0.9103    0.3218 H       1  UNL1        0.0391
     49 H           7.7228    0.9891   -2.2619 H       1  UNL1        0.0391
     50 H           7.0183   -0.6042   -2.8454 H       1  UNL1        0.0391
     51 H           7.9902   -0.5794   -1.3325 H       1  UNL1        0.0391
     52 H           1.9665   -1.4702    0.5210 H       1  UNL1        0.0654
     53 H          -0.3276   -1.2101    1.2283 H       1  UNL1        0.0625
     54 H          -2.7614   -3.0212    1.5264 H       1  UNL1        0.0624
     55 H          -1.9472   -5.0253    0.4945 H       1  UNL1        0.0618
     56 H          -1.0897   -4.9850   -1.8249 H       1  UNL1        0.0618
     57 H          -1.1058   -2.8853   -3.0704 H       1  UNL1        0.0618
     58 H          -1.9573   -0.8806   -2.0490 H       1  UNL1        0.0624
@<TRIPOS>BOND
     1     1     2    1
     2     2     3    1
     3     3     4    2
     4     4     5    1
     5     5     6   ar
     6     6     7   ar
     7     7     8   ar
     8     8     9    1
     9     8    10   ar
    10    10    11   ar
    11     4    12    1
    12    12    13   ar
    13    13    14   ar
    14    14    15   ar
    15    15    16    1
    16    16    17    1
    17    17    18    1
    18    18    19    1
    19    19    20    1
    20    19    21    1
    21    15    22   ar
    22    22    23   ar
    23     3    24    1
    24    24    25   ar
    25    25    26   ar
    26    26    27   ar
    27    27    28   ar
    28    28    29   ar
    29    11     5   ar
    30    23    12   ar
    31    29    24   ar
    32     1    30    1
    33     1    31    1
    34     1    32    1
    35     2    33    1
    36     2    34    1
    37     6    35    1
    38     7    36    1
    39     9    37    1
    40    10    38    1
    41    11    39    1
    42    13    40    1
    43    14    41    1
    44    17    42    1
    45    17    43    1
    46    18    44    1
    47    18    45    1
    48    20    46    1
    49    20    47    1
    50    20    48    1
    51    21    49    1
    52    21    50    1
    53    21    51    1
    54    22    52    1
    55    23    53    1
    56    25    54    1
    57    26    55    1
    58    27    56    1
    59    28    57    1
    60    29    58    1
