@<TRIPOS>MOLECULE
*****
 64 69 0 0 0
SMALL
GASTEIGER

@<TRIPOS>ATOM
      1 C          -2.8918   -2.6515   -2.5423 C.2     1  UNL1       -0.0579
      2 C          -1.9701   -3.3399   -1.9143 C.2     1  UNL1        0.1278
      3 O          -1.2766   -4.3686   -2.5924 O.2     1  UNL1       -0.4473
      4 C          -0.3979   -4.9241   -1.6856 C.2     1  UNL1        0.1785
      5 N          -0.4389   -4.3826   -0.5366 N.2     1  UNL1       -0.2420
      6 C          -1.4407   -3.3056   -0.5759 C.3     1  UNL1        0.1271
      7 C          -2.5091   -3.5647    0.4632 C.3     1  UNL1       -0.0197
      8 C          -2.7728   -2.2264    1.1095 C.3     1  UNL1       -0.0465
      9 C          -1.9898   -1.2262    0.3548 C.3     1  UNL1       -0.0263
     10 C          -1.3387   -0.1243    1.1734 C.3     1  UNL1       -0.0151
     11 C          -2.2918    0.5142    2.0613 C.3     1  UNL1       -0.0422
     12 C          -3.0882    1.6534    1.4850 C.3     1  UNL1       -0.0268
     13 C          -2.1339    2.5821    0.8543 C.2     1  UNL1       -0.0409
     14 C          -2.1963    3.8688    1.0713 C.2     1  UNL1       -0.0158
     15 C          -1.2418    4.7486    0.4326 C.2     1  UNL1        0.1567
     16 O          -1.3209    5.9922    0.6050 O.2     1  UNL1       -0.2927
     17 C          -0.1752    4.2038   -0.4198 C.3     1  UNL1        0.0139
     18 C          -0.5698    2.8744   -1.0821 C.3     1  UNL1       -0.0204
     19 C          -1.1188    1.9795   -0.0345 C.2     1  UNL1       -0.0436
     20 C          -0.7392    0.7303    0.0767 C.2     1  UNL1       -0.0553
     21 C           0.2234    0.1526   -0.8755 C.3     1  UNL1        0.0066
     22 C           1.6325    0.5264   -0.6255 C.ar    1  UNL1       -0.0402
     23 C           2.1346    0.6862    0.6405 C.ar    1  UNL1       -0.0573
     24 C           3.4757    1.0233    0.8659 C.ar    1  UNL1       -0.0510
     25 C           4.3359    1.2053   -0.1926 C.ar    1  UNL1        0.0171
     26 C           5.7364    1.5573    0.0436 C.2     1  UNL1        0.1601
     27 C           6.2269    1.7168    1.4176 C.3     1  UNL1       -0.0014
     28 O           6.5150    1.7225   -0.9132 O.2     1  UNL1       -0.2924
     29 C           3.8567    1.0512   -1.4608 C.ar    1  UNL1       -0.0510
     30 C           2.5519    0.7238   -1.6608 C.ar    1  UNL1       -0.0573
     31 C           0.0980   -1.3412   -1.0434 C.3     1  UNL1       -0.0341
     32 C          -0.8100   -2.0390   -0.0969 C.3     1  UNL1        0.0044
     33 C           0.0219   -2.4506    1.1421 C.3     1  UNL1       -0.0566
     34 H          -3.1349   -2.8683   -3.6113 H       1  UNL1        0.0568
     35 H          -3.5028   -1.8589   -2.1444 H       1  UNL1        0.0568
     36 H           0.2632   -5.7714   -1.9958 H       1  UNL1        0.1251
     37 H          -3.3965   -3.9862   -0.0502 H       1  UNL1        0.0293
     38 H          -2.1381   -4.2696    1.2508 H       1  UNL1        0.0293
     39 H          -3.8662   -2.0091    0.9200 H       1  UNL1        0.0269
     40 H          -2.6123   -2.2455    2.2032 H       1  UNL1        0.0269
     41 H          -2.5062   -0.7667   -0.4962 H       1  UNL1        0.0313
     42 H          -0.5070   -0.5457    1.7687 H       1  UNL1        0.0349
     43 H          -3.0502   -0.2712    2.3841 H       1  UNL1        0.0274
     44 H          -1.8533    0.8427    3.0449 H       1  UNL1        0.0274
     45 H          -3.7034    2.1428    2.2697 H       1  UNL1        0.0313
     46 H          -3.7410    1.2180    0.6793 H       1  UNL1        0.0313
     47 H          -2.9489    4.3313    1.7256 H       1  UNL1        0.0655
     48 H           0.6892    3.9548    0.2394 H       1  UNL1        0.0348
     49 H           0.1360    4.9159   -1.2172 H       1  UNL1        0.0348
     50 H           0.3426    2.5125   -1.5681 H       1  UNL1        0.0317
     51 H          -1.3826    3.1184   -1.7845 H       1  UNL1        0.0317
     52 H           0.0328    0.5333   -1.9354 H       1  UNL1        0.0394
     53 H           1.5446    0.5681    1.5116 H       1  UNL1        0.0621
     54 H           3.8538    1.1451    1.8709 H       1  UNL1        0.0625
     55 H           5.8660    0.8720    2.0577 H       1  UNL1        0.0309
     56 H           5.8083    2.6574    1.8198 H       1  UNL1        0.0309
     57 H           7.3235    1.7497    1.4938 H       1  UNL1        0.0309
     58 H           4.5647    1.2023   -2.2929 H       1  UNL1        0.0625
     59 H           2.1838    0.6046   -2.6619 H       1  UNL1        0.0621
     60 H           1.1258   -1.7922   -0.9022 H       1  UNL1        0.0280
     61 H          -0.1883   -1.6593   -2.0679 H       1  UNL1        0.0280
     62 H           0.3857   -3.5074    0.9646 H       1  UNL1        0.0236
     63 H           0.9227   -1.8492    1.2539 H       1  UNL1        0.0236
     64 H          -0.6075   -2.5362    2.0429 H       1  UNL1        0.0236
@<TRIPOS>BOND
     1     1     2    2
     2     2     3    1
     3     3     4    1
     4     4     5    2
     5     5     6    1
     6     6     7    1
     7     7     8    1
     8     8     9    1
     9     9    10    1
    10    10    11    1
    11    11    12    1
    12    12    13    1
    13    13    14    2
    14    14    15    1
    15    15    16    2
    16    15    17    1
    17    17    18    1
    18    18    19    1
    19    19    20    2
    20    20    21    1
    21    21    22    1
    22    22    23   ar
    23    23    24   ar
    24    24    25   ar
    25    25    26    1
    26    26    27    1
    27    26    28    2
    28    25    29   ar
    29    29    30   ar
    30    21    31    1
    31    31    32    1
    32    32    33    1
    33     6     2    1
    34    32     9    1
    35    32     6    1
    36    20    10    1
    37    30    22   ar
    38    19    13    1
    39     1    34    1
    40     1    35    1
    41     4    36    1
    42     7    37    1
    43     7    38    1
    44     8    39    1
    45     8    40    1
    46     9    41    1
    47    10    42    1
    48    11    43    1
    49    11    44    1
    50    12    45    1
    51    12    46    1
    52    14    47    1
    53    17    48    1
    54    17    49    1
    55    18    50    1
    56    18    51    1
    57    21    52    1
    58    23    53    1
    59    24    54    1
    60    27    55    1
    61    27    56    1
    62    27    57    1
    63    29    58    1
    64    30    59    1
    65    31    60    1
    66    31    61    1
    67    33    62    1
    68    33    63    1
    69    33    64    1
