
     RDKit          3D

 64 69  0  0  0  0  0  0  0  0999 V2000
   -2.8918   -2.6515   -2.5423 C   0  0  0  0  0  0  0  0  0  0  0  0
   -1.9701   -3.3399   -1.9143 C   0  0  0  0  0  0  0  0  0  0  0  0
   -1.2766   -4.3686   -2.5924 O   0  0  0  0  0  0  0  0  0  0  0  0
   -0.3979   -4.9241   -1.6856 C   0  0  0  0  0  0  0  0  0  0  0  0
   -0.4389   -4.3826   -0.5366 N   0  0  0  0  0  0  0  0  0  0  0  0
   -1.4407   -3.3056   -0.5759 C   0  0  2  0  0  0  0  0  0  0  0  0
   -2.5091   -3.5647    0.4632 C   0  0  0  0  0  0  0  0  0  0  0  0
   -2.7728   -2.2264    1.1095 C   0  0  0  0  0  0  0  0  0  0  0  0
   -1.9898   -1.2262    0.3548 C   0  0  1  0  0  0  0  0  0  0  0  0
   -1.3387   -0.1243    1.1734 C   0  0  2  0  0  0  0  0  0  0  0  0
   -2.2918    0.5142    2.0613 C   0  0  0  0  0  0  0  0  0  0  0  0
   -3.0882    1.6534    1.4850 C   0  0  0  0  0  0  0  0  0  0  0  0
   -2.1339    2.5821    0.8543 C   0  0  0  0  0  0  0  0  0  0  0  0
   -2.1963    3.8688    1.0713 C   0  0  0  0  0  0  0  0  0  0  0  0
   -1.2418    4.7486    0.4326 C   0  0  0  0  0  0  0  0  0  0  0  0
   -1.3209    5.9922    0.6050 O   0  0  0  0  0  0  0  0  0  0  0  0
   -0.1752    4.2038   -0.4198 C   0  0  0  0  0  0  0  0  0  0  0  0
   -0.5698    2.8744   -1.0821 C   0  0  0  0  0  0  0  0  0  0  0  0
   -1.1188    1.9795   -0.0345 C   0  0  0  0  0  0  0  0  0  0  0  0
   -0.7392    0.7303    0.0767 C   0  0  0  0  0  0  0  0  0  0  0  0
    0.2234    0.1526   -0.8755 C   0  0  1  0  0  0  0  0  0  0  0  0
    1.6325    0.5264   -0.6255 C   0  0  0  0  0  0  0  0  0  0  0  0
    2.1346    0.6862    0.6405 C   0  0  0  0  0  0  0  0  0  0  0  0
    3.4757    1.0233    0.8659 C   0  0  0  0  0  0  0  0  0  0  0  0
    4.3359    1.2053   -0.1926 C   0  0  0  0  0  0  0  0  0  0  0  0
    5.7364    1.5573    0.0436 C   0  0  0  0  0  0  0  0  0  0  0  0
    6.2269    1.7168    1.4176 C   0  0  0  0  0  0  0  0  0  0  0  0
    6.5150    1.7225   -0.9132 O   0  0  0  0  0  0  0  0  0  0  0  0
    3.8567    1.0512   -1.4608 C   0  0  0  0  0  0  0  0  0  0  0  0
    2.5519    0.7238   -1.6608 C   0  0  0  0  0  0  0  0  0  0  0  0
    0.0980   -1.3412   -1.0434 C   0  0  0  0  0  0  0  0  0  0  0  0
   -0.8100   -2.0390   -0.0969 C   0  0  2  0  0  0  0  0  0  0  0  0
    0.0219   -2.4506    1.1421 C   0  0  0  0  0  0  0  0  0  0  0  0
   -3.1349   -2.8683   -3.6113 H   0  0  0  0  0  0  0  0  0  0  0  0
   -3.5028   -1.8589   -2.1444 H   0  0  0  0  0  0  0  0  0  0  0  0
    0.2632   -5.7714   -1.9958 H   0  0  0  0  0  0  0  0  0  0  0  0
   -3.3965   -3.9862   -0.0502 H   0  0  0  0  0  0  0  0  0  0  0  0
   -2.1381   -4.2696    1.2508 H   0  0  0  0  0  0  0  0  0  0  0  0
   -3.8662   -2.0091    0.9200 H   0  0  0  0  0  0  0  0  0  0  0  0
   -2.6123   -2.2455    2.2032 H   0  0  0  0  0  0  0  0  0  0  0  0
   -2.5062   -0.7667   -0.4962 H   0  0  0  0  0  0  0  0  0  0  0  0
   -0.5070   -0.5457    1.7687 H   0  0  0  0  0  0  0  0  0  0  0  0
   -3.0502   -0.2712    2.3841 H   0  0  0  0  0  0  0  0  0  0  0  0
   -1.8533    0.8427    3.0449 H   0  0  0  0  0  0  0  0  0  0  0  0
   -3.7034    2.1428    2.2697 H   0  0  0  0  0  0  0  0  0  0  0  0
   -3.7410    1.2180    0.6793 H   0  0  0  0  0  0  0  0  0  0  0  0
   -2.9489    4.3313    1.7256 H   0  0  0  0  0  0  0  0  0  0  0  0
    0.6892    3.9548    0.2394 H   0  0  0  0  0  0  0  0  0  0  0  0
    0.1360    4.9159   -1.2172 H   0  0  0  0  0  0  0  0  0  0  0  0
    0.3426    2.5125   -1.5681 H   0  0  0  0  0  0  0  0  0  0  0  0
   -1.3826    3.1184   -1.7845 H   0  0  0  0  0  0  0  0  0  0  0  0
    0.0328    0.5333   -1.9354 H   0  0  0  0  0  0  0  0  0  0  0  0
    1.5446    0.5681    1.5116 H   0  0  0  0  0  0  0  0  0  0  0  0
    3.8538    1.1451    1.8709 H   0  0  0  0  0  0  0  0  0  0  0  0
    5.8660    0.8720    2.0577 H   0  0  0  0  0  0  0  0  0  0  0  0
    5.8083    2.6574    1.8198 H   0  0  0  0  0  0  0  0  0  0  0  0
    7.3235    1.7497    1.4938 H   0  0  0  0  0  0  0  0  0  0  0  0
    4.5647    1.2023   -2.2929 H   0  0  0  0  0  0  0  0  0  0  0  0
    2.1838    0.6046   -2.6619 H   0  0  0  0  0  0  0  0  0  0  0  0
    1.1258   -1.7922   -0.9022 H   0  0  0  0  0  0  0  0  0  0  0  0
   -0.1883   -1.6593   -2.0679 H   0  0  0  0  0  0  0  0  0  0  0  0
    0.3857   -3.5074    0.9646 H   0  0  0  0  0  0  0  0  0  0  0  0
    0.9227   -1.8492    1.2539 H   0  0  0  0  0  0  0  0  0  0  0  0
   -0.6075   -2.5362    2.0429 H   0  0  0  0  0  0  0  0  0  0  0  0
  1  2  2  3
  2  3  1  0
  3  4  1  0
  4  5  2  0
  5  6  1  0
  6  7  1  1
  7  8  1  0
  8  9  1  0
  9 10  1  0
 10 11  1  0
 11 12  1  0
 12 13  1  0
 13 14  2  0
 14 15  1  0
 15 16  2  0
 15 17  1  0
 17 18  1  0
 18 19  1  0
 19 20  2  0
 20 21  1  0
 21 22  1  0
 22 23  2  0
 23 24  1  0
 24 25  2  0
 25 26  1  0
 26 27  1  0
 26 28  2  0
 25 29  1  0
 29 30  2  0
 21 31  1  0
 31 32  1  0
 32 33  1  1
  6  2  1  0
 32  9  1  0
 32  6  1  0
 20 10  1  0
 30 22  1  0
 19 13  1  0
  1 34  1  0
  1 35  1  0
  4 36  1  0
  7 37  1  0
  7 38  1  0
  8 39  1  0
  8 40  1  0
  9 41  1  6
 10 42  1  1
 11 43  1  0
 11 44  1  0
 12 45  1  0
 12 46  1  0
 14 47  1  0
 17 48  1  0
 17 49  1  0
 18 50  1  0
 18 51  1  0
 21 52  1  6
 23 53  1  0
 24 54  1  0
 27 55  1  0
 27 56  1  0
 27 57  1  0
 29 58  1  0
 30 59  1  0
 31 60  1  0
 31 61  1  0
 33 62  1  0
 33 63  1  0
 33 64  1  0
M  END
$$$$
