
     RDKit          3D

 61 65  0  0  0  0  0  0  0  0999 V2000
    8.6948   -1.2598    1.2734 C   0  0  0  0  0  0  0  0  0  0  0  0
    7.6252   -0.3658    0.8770 N   0  0  0  0  0  0  0  0  0  0  0  0
    6.3278   -0.5792    1.2483 C   0  0  0  0  0  0  0  0  0  0  0  0
    5.5786    0.4209    0.7279 C   0  0  0  0  0  0  0  0  0  0  0  0
    4.1559    0.6903    0.7858 C   0  0  0  0  0  0  0  0  0  0  0  0
    3.7073    1.8480    1.4306 C   0  0  0  0  0  0  0  0  0  0  0  0
    2.3868    2.1199    1.5206 C   0  0  0  0  0  0  0  0  0  0  0  0
    1.9862    3.2519    2.1523 F   0  0  0  0  0  0  0  0  0  0  0  0
    1.4310    1.2805    0.9871 C   0  0  0  0  0  0  0  0  0  0  0  0
    0.0772    1.6228    1.1235 N   0  0  0  0  0  0  0  0  0  0  0  0
   -1.0097    0.8401    0.6622 C   0  0  0  0  0  0  0  0  0  0  0  0
   -1.9710    0.2746    1.4150 N   0  0  0  0  0  0  0  0  0  0  0  0
   -2.8429   -0.3929    0.6807 N   0  0  0  0  0  0  0  0  0  0  0  0
   -3.9722   -1.0786    1.2422 C   0  0  0  0  0  0  0  0  0  0  0  0
   -5.1231   -1.2600    0.3519 C   0  0  0  0  0  0  0  0  0  0  0  0
   -6.4117   -1.3301    1.1871 C   0  0  0  0  0  0  0  0  0  0  0  0
   -6.0884   -1.8964    2.4195 O   0  0  0  0  0  0  0  0  0  0  0  0
   -5.5800   -0.8463    3.1841 C   0  0  0  0  0  0  0  0  0  0  0  0
   -4.4420   -0.2415    2.4410 C   0  0  0  0  0  0  0  0  0  0  0  0
   -2.4583   -0.2733   -0.5845 C   0  0  0  0  0  0  0  0  0  0  0  0
   -1.2941    0.5073   -0.6224 C   0  0  0  0  0  0  0  0  0  0  0  0
   -0.6472    0.7934   -1.9299 C   0  0  0  0  0  0  0  0  0  0  0  0
   -1.7193    1.0943   -2.8737 N   0  0  0  0  0  0  0  0  0  0  0  0
   -1.4549    2.0133   -3.9181 C   0  0  0  0  0  0  0  0  0  0  0  0
   -2.4721    2.3186   -4.8530 N   0  0  0  0  0  0  0  0  0  0  0  0
   -0.3276    2.5778   -4.0465 O   0  0  0  0  0  0  0  0  0  0  0  0
   -3.0267    0.4969   -2.7845 C   0  0  0  0  0  0  0  0  0  0  0  0
   -2.9398   -0.7412   -1.8800 C   0  0  0  0  0  0  0  0  0  0  0  0
    1.8839    0.1498    0.3573 C   0  0  0  0  0  0  0  0  0  0  0  0
    3.2420   -0.1663    0.2444 C   0  0  0  0  0  0  0  0  0  0  0  0
    3.6386   -1.4187   -0.4851 C   0  0  0  0  0  0  0  0  0  0  0  0
    4.1761   -2.3649    0.3425 F   0  0  0  0  0  0  0  0  0  0  0  0
    4.4043   -1.0883   -1.5557 F   0  0  0  0  0  0  0  0  0  0  0  0
    6.4461    1.2610    0.0242 C   0  0  0  0  0  0  0  0  0  0  0  0
    7.6812    0.7336    0.1487 N   0  0  0  0  0  0  0  0  0  0  0  0
    8.3628   -2.3157    1.0839 H   0  0  0  0  0  0  0  0  0  0  0  0
    9.6040   -1.1210    0.6624 H   0  0  0  0  0  0  0  0  0  0  0  0
    8.9104   -1.2020    2.3604 H   0  0  0  0  0  0  0  0  0  0  0  0
    5.9910   -1.3905    1.8603 H   0  0  0  0  0  0  0  0  0  0  0  0
    4.4741    2.4971    1.8447 H   0  0  0  0  0  0  0  0  0  0  0  0
   -0.1760    2.5131    1.5958 H   0  0  0  0  0  0  0  0  0  0  0  0
   -3.6453   -2.0440    1.6691 H   0  0  0  0  0  0  0  0  0  0  0  0
   -5.0651   -2.2712   -0.1145 H   0  0  0  0  0  0  0  0  0  0  0  0
   -5.3090   -0.4383   -0.3661 H   0  0  0  0  0  0  0  0  0  0  0  0
   -7.1542   -2.0107    0.7092 H   0  0  0  0  0  0  0  0  0  0  0  0
   -6.8880   -0.3338    1.2823 H   0  0  0  0  0  0  0  0  0  0  0  0
   -5.3828   -1.1207    4.2214 H   0  0  0  0  0  0  0  0  0  0  0  0
   -6.3996   -0.0628    3.1894 H   0  0  0  0  0  0  0  0  0  0  0  0
   -4.6499    0.7939    2.0679 H   0  0  0  0  0  0  0  0  0  0  0  0
   -3.5624   -0.1900    3.1411 H   0  0  0  0  0  0  0  0  0  0  0  0
   -0.1638   -0.1371   -2.3494 H   0  0  0  0  0  0  0  0  0  0  0  0
    0.0480    1.6515   -1.8787 H   0  0  0  0  0  0  0  0  0  0  0  0
   -2.5934    1.8068   -5.7483 H   0  0  0  0  0  0  0  0  0  0  0  0
   -3.1273    3.0920   -4.6340 H   0  0  0  0  0  0  0  0  0  0  0  0
   -3.3673    0.1614   -3.7817 H   0  0  0  0  0  0  0  0  0  0  0  0
   -3.7603    1.1946   -2.3558 H   0  0  0  0  0  0  0  0  0  0  0  0
   -2.0893   -1.3359   -2.3338 H   0  0  0  0  0  0  0  0  0  0  0  0
   -3.7893   -1.3884   -1.9228 H   0  0  0  0  0  0  0  0  0  0  0  0
    1.1795   -0.5483   -0.0849 H   0  0  0  0  0  0  0  0  0  0  0  0
    2.6904   -1.9042   -0.8894 H   0  0  0  0  0  0  0  0  0  0  0  0
    6.2007    2.1632   -0.5225 H   0  0  0  0  0  0  0  0  0  0  0  0
  1  2  1  0
  2  3  1  0
  3  4  2  0
  4  5  1  0
  5  6  2  0
  6  7  1  0
  7  8  1  0
  7  9  2  0
  9 10  1  0
 10 11  1  0
 11 12  2  0
 12 13  1  0
 13 14  1  0
 14 15  1  0
 15 16  1  0
 16 17  1  0
 17 18  1  0
 18 19  1  0
 13 20  1  0
 20 21  2  0
 21 22  1  0
 22 23  1  0
 23 24  1  0
 24 25  1  0
 24 26  2  0
 23 27  1  0
 27 28  1  0
  9 29  1  0
 29 30  2  0
 30 31  1  0
 31 32  1  0
 31 33  1  0
  4 34  1  0
 34 35  2  0
 35  2  1  0
 30  5  1  0
 21 11  1  0
 19 14  1  0
 28 20  1  0
  1 36  1  0
  1 37  1  0
  1 38  1  0
  3 39  1  0
  6 40  1  0
 10 41  1  0
 14 42  1  0
 15 43  1  0
 15 44  1  0
 16 45  1  0
 16 46  1  0
 18 47  1  0
 18 48  1  0
 19 49  1  0
 19 50  1  0
 22 51  1  0
 22 52  1  0
 25 53  1  0
 25 54  1  0
 27 55  1  0
 27 56  1  0
 28 57  1  0
 28 58  1  0
 29 59  1  0
 31 60  1  0
 34 61  1  0
M  END
$$$$
