@<TRIPOS>MOLECULE
*****
 61 65 0 0 0
SMALL
GASTEIGER

@<TRIPOS>ATOM
      1 C           8.6948   -1.2598    1.2734 C.3     1  UNL1        0.0302
      2 N           7.6252   -0.3658    0.8770 N.ar    1  UNL1       -0.2739
      3 C           6.3278   -0.5792    1.2483 C.ar    1  UNL1        0.0329
      4 C           5.5786    0.4209    0.7279 C.ar    1  UNL1        0.0201
      5 C           4.1559    0.6903    0.7858 C.ar    1  UNL1       -0.0036
      6 C           3.7073    1.8480    1.4306 C.ar    1  UNL1       -0.0164
      7 C           2.3868    2.1199    1.5206 C.ar    1  UNL1        0.1451
      8 F           1.9862    3.2519    2.1523 F       1  UNL1       -0.2035
      9 C           1.4310    1.2805    0.9871 C.ar    1  UNL1        0.0686
     10 N           0.0772    1.6228    1.1235 N.pl3   1  UNL1       -0.2955
     11 C          -1.0097    0.8401    0.6622 C.ar    1  UNL1        0.1499
     12 N          -1.9710    0.2746    1.4150 N.ar    1  UNL1       -0.1552
     13 N          -2.8429   -0.3929    0.6807 N.ar    1  UNL1       -0.2630
     14 C          -3.9722   -1.0786    1.2422 C.3     1  UNL1        0.0572
     15 C          -5.1231   -1.2600    0.3519 C.3     1  UNL1       -0.0069
     16 C          -6.4117   -1.3301    1.1871 C.3     1  UNL1        0.0496
     17 O          -6.0884   -1.8964    2.4195 O.3     1  UNL1       -0.3796
     18 C          -5.5800   -0.8463    3.1841 C.3     1  UNL1        0.0496
     19 C          -4.4420   -0.2415    2.4410 C.3     1  UNL1       -0.0069
     20 C          -2.4583   -0.2733   -0.5845 C.ar    1  UNL1        0.0476
     21 C          -1.2941    0.5073   -0.6224 C.ar    1  UNL1        0.0325
     22 C          -0.6472    0.7934   -1.9299 C.3     1  UNL1        0.0462
     23 N          -1.7193    1.0943   -2.8737 N.am    1  UNL1       -0.2810
     24 C          -1.4549    2.0133   -3.9181 C.2     1  UNL1        0.2999
     25 N          -2.4721    2.3186   -4.8530 N.am    1  UNL1       -0.3132
     26 O          -0.3276    2.5778   -4.0465 O.2     1  UNL1       -0.2529
     27 C          -3.0267    0.4969   -2.7845 C.3     1  UNL1        0.0219
     28 C          -2.9398   -0.7412   -1.8800 C.3     1  UNL1        0.0056
     29 C           1.8839    0.1498    0.3573 C.ar    1  UNL1       -0.0286
     30 C           3.2420   -0.1663    0.2444 C.ar    1  UNL1        0.0272
     31 C           3.6386   -1.4187   -0.4851 C.3     1  UNL1        0.2650
     32 F           4.1761   -2.3649    0.3425 F       1  UNL1       -0.2039
     33 F           4.4043   -1.0883   -1.5557 F       1  UNL1       -0.2039
     34 C           6.4461    1.2610    0.0242 C.ar    1  UNL1        0.0571
     35 N           7.6812    0.7336    0.1487 N.ar    1  UNL1       -0.1793
     36 H           8.3628   -2.3157    1.0839 H       1  UNL1        0.0473
     37 H           9.6040   -1.1210    0.6624 H       1  UNL1        0.0473
     38 H           8.9104   -1.2020    2.3604 H       1  UNL1        0.0473
     39 H           5.9910   -1.3905    1.8603 H       1  UNL1        0.0832
     40 H           4.4741    2.4971    1.8447 H       1  UNL1        0.0653
     41 H          -0.1760    2.5131    1.5958 H       1  UNL1        0.1537
     42 H          -3.6453   -2.0440    1.6691 H       1  UNL1        0.0546
     43 H          -5.0651   -2.2712   -0.1145 H       1  UNL1        0.0308
     44 H          -5.3090   -0.4383   -0.3661 H       1  UNL1        0.0308
     45 H          -7.1542   -2.0107    0.7092 H       1  UNL1        0.0560
     46 H          -6.8880   -0.3338    1.2823 H       1  UNL1        0.0560
     47 H          -5.3828   -1.1207    4.2214 H       1  UNL1        0.0560
     48 H          -6.3996   -0.0628    3.1894 H       1  UNL1        0.0560
     49 H          -4.6499    0.7939    2.0679 H       1  UNL1        0.0308
     50 H          -3.5624   -0.1900    3.1411 H       1  UNL1        0.0308
     51 H          -0.1638   -0.1371   -2.3494 H       1  UNL1        0.0516
     52 H           0.0480    1.6515   -1.8787 H       1  UNL1        0.0516
     53 H          -2.5934    1.8068   -5.7483 H       1  UNL1        0.1465
     54 H          -3.1273    3.0920   -4.6340 H       1  UNL1        0.1465
     55 H          -3.3673    0.1614   -3.7817 H       1  UNL1        0.0469
     56 H          -3.7603    1.1946   -2.3558 H       1  UNL1        0.0469
     57 H          -2.0893   -1.3359   -2.3338 H       1  UNL1        0.0343
     58 H          -3.7893   -1.3884   -1.9228 H       1  UNL1        0.0343
     59 H           1.1795   -0.5483   -0.0849 H       1  UNL1        0.0642
     60 H           2.6904   -1.9042   -0.8894 H       1  UNL1        0.1072
     61 H           6.2007    2.1632   -0.5225 H       1  UNL1        0.0854
@<TRIPOS>BOND
     1     1     2    1
     2     2     3   ar
     3     3     4   ar
     4     4     5    1
     5     5     6   ar
     6     6     7   ar
     7     7     8    1
     8     7     9   ar
     9     9    10    1
    10    10    11    1
    11    11    12   ar
    12    12    13   ar
    13    13    14    1
    14    14    15    1
    15    15    16    1
    16    16    17    1
    17    17    18    1
    18    18    19    1
    19    13    20   ar
    20    20    21   ar
    21    21    22    1
    22    22    23    1
    23    23    24   am
    24    24    25   am
    25    24    26    2
    26    23    27    1
    27    27    28    1
    28     9    29   ar
    29    29    30   ar
    30    30    31    1
    31    31    32    1
    32    31    33    1
    33     4    34   ar
    34    34    35   ar
    35    35     2   ar
    36    30     5   ar
    37    21    11   ar
    38    19    14    1
    39    28    20    1
    40     1    36    1
    41     1    37    1
    42     1    38    1
    43     3    39    1
    44     6    40    1
    45    10    41    1
    46    14    42    1
    47    15    43    1
    48    15    44    1
    49    16    45    1
    50    16    46    1
    51    18    47    1
    52    18    48    1
    53    19    49    1
    54    19    50    1
    55    22    51    1
    56    22    52    1
    57    25    53    1
    58    25    54    1
    59    27    55    1
    60    27    56    1
    61    28    57    1
    62    28    58    1
    63    29    59    1
    64    31    60    1
    65    34    61    1
