
     RDKit          3D

 76 81  0  0  0  0  0  0  0  0999 V2000
    6.1426    5.8812    0.0989 C   0  0  0  0  0  0  0  0  0  0  0  0
    5.1742    4.8600    0.2636 N   0  0  0  0  0  0  0  0  0  0  0  0
    5.2131    4.1098    1.4978 C   0  0  1  0  0  0  0  0  0  0  0  0
    4.9164    5.0046    2.6767 C   0  0  0  0  0  0  0  0  0  0  0  0
    4.4486    2.9184    1.3450 C   0  0  0  0  0  0  0  0  0  0  0  0
    3.8164    2.7682    0.2083 O   0  0  0  0  0  0  0  0  0  0  0  0
    4.2847    1.8732    2.2663 N   0  0  0  0  0  0  0  0  0  0  0  0
    3.4187    0.6668    1.6939 C   0  0  0  0  0  0  0  0  0  0  0  0
    4.2000   -0.0978    1.0392 C   0  0  0  0  0  0  0  0  0  0  0  0
    3.1801   -0.9408    0.1319 C   0  0  0  0  0  0  0  0  0  0  0  0
    1.8618   -0.7178    0.2447 C   0  0  0  0  0  0  0  0  0  0  0  0
    0.9480   -1.5250   -0.5770 C   0  0  0  0  0  0  0  0  0  0  0  0
    0.1394   -2.4688   -0.0389 C   0  0  0  0  0  0  0  0  0  0  0  0
   -0.0415   -3.1253    1.2565 C   0  0  0  0  0  0  0  0  0  0  0  0
    0.0162   -2.5211    2.4998 C   0  0  0  0  0  0  0  0  0  0  0  0
   -0.2359   -3.2490    3.6588 C   0  0  0  0  0  0  0  0  0  0  0  0
   -0.5722   -4.6412    3.5267 N   0  0  0  0  0  0  0  0  0  0  0  0
   -0.6509   -5.2929    2.4333 C   0  0  0  0  0  0  0  0  0  0  0  0
   -0.9226   -6.4945    2.0188 O   0  0  0  0  0  0  0  0  0  0  0  0
   -1.1977   -7.6928    1.6518 C   0  0  0  0  0  0  0  0  0  0  0  0
   -0.3534   -4.4281    1.2863 C   0  0  0  0  0  0  0  0  0  0  0  0
   -0.4755   -3.0870   -1.1445 N   0  0  0  0  0  0  0  0  0  0  0  0
   -0.0472   -2.5588   -2.2244 C   0  0  0  0  0  0  0  0  0  0  0  0
   -0.1782   -2.8753   -3.6641 C   0  0  0  0  0  0  0  0  0  0  0  0
    0.5104   -2.2452   -4.5187 C   0  0  0  0  0  0  0  0  0  0  0  0
    0.4891   -2.7403   -6.0066 C   0  0  0  0  0  0  0  0  0  0  0  0
    1.4381   -1.2160   -4.3197 C   0  0  0  0  0  0  0  0  0  0  0  0
    1.5257   -0.9358   -2.8799 C   0  0  0  0  0  0  0  0  0  0  0  0
    0.8591   -1.5589   -2.0282 N   0  0  0  0  0  0  0  0  0  0  0  0
    1.4494    0.2669    1.1581 C   0  0  0  0  0  0  0  0  0  0  0  0
   -0.0809    0.7654    0.9163 C   0  0  0  0  0  0  0  0  0  0  0  0
   -1.3526    1.1712    0.7335 C   0  0  0  0  0  0  0  0  0  0  0  0
   -2.6402    1.5815    0.5503 C   0  0  0  0  0  0  0  0  0  0  0  0
   -2.9526    2.7532    0.0791 C   0  0  0  0  0  0  0  0  0  0  0  0
   -4.3001    3.0097   -0.3566 C   0  0  0  0  0  0  0  0  0  0  0  0
   -5.1691    2.0872   -0.2788 C   0  0  0  0  0  0  0  0  0  0  0  0
   -4.9811    0.6565    0.2560 C   0  0  0  0  0  0  0  0  0  0  0  0
   -5.7905   -0.2359    0.1864 C   0  0  0  0  0  0  0  0  0  0  0  0
   -7.1442   -0.3397   -0.3567 C   0  0  0  0  0  0  0  0  0  0  0  0
   -7.2295    1.1715   -0.8835 C   0  0  0  0  0  0  0  0  0  0  0  0
   -8.4723    0.9557   -1.3660 O   0  0  0  0  0  0  0  0  0  0  0  0
   -6.5033    1.9858   -0.8197 N   0  0  0  0  0  0  0  0  0  0  0  0
   -6.7760    3.4000   -1.4278 C   0  0  0  0  0  0  0  0  0  0  0  0
   -3.6501    0.5771    0.6379 C   0  0  0  0  0  0  0  0  0  0  0  0
    2.2063    0.9994    1.9178 N   0  0  0  0  0  0  0  0  0  0  0  0
    7.1239    5.6978    0.6246 H   0  0  0  0  0  0  0  0  0  0  0  0
    6.4117    5.9711   -0.9958 H   0  0  0  0  0  0  0  0  0  0  0  0
    5.7575    6.9106    0.3920 H   0  0  0  0  0  0  0  0  0  0  0  0
    4.8161    4.3873   -0.5730 H   0  0  0  0  0  0  0  0  0  0  0  0
    6.3034    3.8081    1.6544 H   0  0  0  0  0  0  0  0  0  0  0  0
    4.9405    4.4712    3.6519 H   0  0  0  0  0  0  0  0  0  0  0  0
    3.9517    5.5495    2.5748 H   0  0  0  0  0  0  0  0  0  0  0  0
    5.7653    5.7445    2.7790 H   0  0  0  0  0  0  0  0  0  0  0  0
    4.6523    1.8149    3.1421 H   0  0  0  0  0  0  0  0  0  0  0  0
    5.1674   -0.3263    0.9014 H   0  0  0  0  0  0  0  0  0  0  0  0
    3.7508   -1.6064   -0.4111 H   0  0  0  0  0  0  0  0  0  0  0  0
    0.2416   -1.4993    2.5942 H   0  0  0  0  0  0  0  0  0  0  0  0
   -0.2399   -2.9114    4.6328 H   0  0  0  0  0  0  0  0  0  0  0  0
   -1.9332   -8.4037    2.0750 H   0  0  0  0  0  0  0  0  0  0  0  0
   -1.6969   -7.6380    0.5154 H   0  0  0  0  0  0  0  0  0  0  0  0
   -0.2798   -8.3175    1.2669 H   0  0  0  0  0  0  0  0  0  0  0  0
   -0.3624   -4.9499    0.3618 H   0  0  0  0  0  0  0  0  0  0  0  0
   -0.8722   -3.6838   -3.8125 H   0  0  0  0  0  0  0  0  0  0  0  0
    0.3050   -3.8061   -6.0337 H   0  0  0  0  0  0  0  0  0  0  0  0
    1.4912   -2.5691   -6.4439 H   0  0  0  0  0  0  0  0  0  0  0  0
   -0.2994   -2.2136   -6.5823 H   0  0  0  0  0  0  0  0  0  0  0  0
    1.9987   -0.7122   -5.0206 H   0  0  0  0  0  0  0  0  0  0  0  0
    2.2808   -0.1417   -2.6762 H   0  0  0  0  0  0  0  0  0  0  0  0
   -2.2490    3.5817    0.0385 H   0  0  0  0  0  0  0  0  0  0  0  0
   -4.4400    4.0140   -0.7170 H   0  0  0  0  0  0  0  0  0  0  0  0
   -5.5440   -1.3185    0.6248 H   0  0  0  0  0  0  0  0  0  0  0  0
   -7.7647   -0.9771   -0.4117 H   0  0  0  0  0  0  0  0  0  0  0  0
   -6.5229    4.1157   -0.6414 H   0  0  0  0  0  0  0  0  0  0  0  0
   -6.1152    3.3953   -2.3030 H   0  0  0  0  0  0  0  0  0  0  0  0
   -7.8444    3.4451   -1.5931 H   0  0  0  0  0  0  0  0  0  0  0  0
   -3.3144   -0.3074    1.1609 H   0  0  0  0  0  0  0  0  0  0  0  0
  1  2  1  0
  2  3  1  0
  3  4  1  0
  3  5  1  0
  5  6  2  0
  5  7  1  0
  7  8  1  0
  8  9  2  0
  9 10  1  0
 10 11  2  0
 11 12  1  0
 12 13  2  0
 13 14  1  0
 14 15  2  0
 15 16  1  0
 16 17  2  0
 17 18  1  0
 18 19  1  0
 19 20  1  0
 18 21  2  0
 13 22  1  0
 22 23  2  0
 23 24  1  0
 24 25  2  0
 25 26  1  0
 25 27  1  0
 27 28  2  0
 28 29  1  0
 11 30  1  0
 30 31  1  0
 31 32  3  0
 32 33  1  0
 33 34  2  0
 34 35  1  0
 35 36  2  0
 36 37  1  0
 37 38  1  0
 38 39  2  0
 39 40  1  0
 40 41  2  0
 40 42  1  0
 42 43  1  0
 37 44  2  0
 30 45  2  0
 45  8  1  0
 29 12  1  0
 44 33  1  0
 21 14  1  0
 29 23  1  0
 42 36  1  0
  1 46  1  0
  1 47  1  0
  1 48  1  0
  2 49  1  0
  3 50  1  1
  4 51  1  0
  4 52  1  0
  4 53  1  0
  7 54  1  0
  9 55  1  0
 10 56  1  0
 15 57  1  0
 16 58  1  0
 20 59  1  0
 20 60  1  0
 20 61  1  0
 21 62  1  0
 24 63  1  0
 26 64  1  0
 26 65  1  0
 26 66  1  0
 27 67  1  0
 28 68  1  0
 34 69  1  0
 35 70  1  0
 38 71  1  0
 39 72  1  0
 43 73  1  0
 43 74  1  0
 43 75  1  0
 44 76  1  0
M  END
$$$$
