@<TRIPOS>MOLECULE
*****
 76 81 0 0 0
SMALL
GASTEIGER

@<TRIPOS>ATOM
      1 C           6.1426    5.8812    0.0989 C.3     1  UNL1       -0.0151
      2 N           5.1742    4.8600    0.2636 N.3     1  UNL1       -0.3089
      3 C           5.2131    4.1098    1.4978 C.3     1  UNL1        0.0820
      4 C           4.9164    5.0046    2.6767 C.3     1  UNL1       -0.0411
      5 C           4.4486    2.9184    1.3450 C.2     1  UNL1        0.2350
      6 O           3.8164    2.7682    0.2083 O.2     1  UNL1       -0.2737
      7 N           4.2847    1.8732    2.2663 N.am    1  UNL1       -0.2691
      8 C           3.4187    0.6668    1.6939 C.ar    1  UNL1        0.1263
      9 C           4.2000   -0.0978    1.0392 C.ar    1  UNL1       -0.0208
     10 C           3.1801   -0.9408    0.1319 C.ar    1  UNL1       -0.0466
     11 C           1.8618   -0.7178    0.2447 C.ar    1  UNL1        0.0349
     12 C           0.9480   -1.5250   -0.5770 C.ar    1  UNL1        0.0837
     13 C           0.1394   -2.4688   -0.0389 C.ar    1  UNL1        0.0980
     14 C          -0.0415   -3.1253    1.2565 C.ar    1  UNL1        0.0089
     15 C           0.0162   -2.5211    2.4998 C.ar    1  UNL1       -0.0341
     16 C          -0.2359   -3.2490    3.6588 C.ar    1  UNL1        0.0320
     17 N          -0.5722   -4.6412    3.5267 N.ar    1  UNL1       -0.2213
     18 C          -0.6509   -5.2929    2.4333 C.ar    1  UNL1        0.2150
     19 O          -0.9226   -6.4945    2.0188 O.3     1  UNL1       -0.4796
     20 C          -1.1977   -7.6928    1.6518 C.3     1  UNL1        0.0804
     21 C          -0.3534   -4.4281    1.2863 C.ar    1  UNL1        0.0092
     22 N          -0.4755   -3.0870   -1.1445 N.ar    1  UNL1       -0.2272
     23 C          -0.0472   -2.5588   -2.2244 C.ar    1  UNL1        0.1390
     24 C          -0.1782   -2.8753   -3.6641 C.ar    1  UNL1       -0.0158
     25 C           0.5104   -2.2452   -4.5187 C.ar    1  UNL1       -0.0456
     26 C           0.4891   -2.7403   -6.0066 C.3     1  UNL1       -0.0395
     27 C           1.4381   -1.2160   -4.3197 C.ar    1  UNL1       -0.0421
     28 C           1.5257   -0.9358   -2.8799 C.ar    1  UNL1        0.0120
     29 N           0.8591   -1.5589   -2.0282 N.ar    1  UNL1       -0.2986
     30 C           1.4494    0.2669    1.1581 C.ar    1  UNL1        0.1250
     31 C          -0.0809    0.7654    0.9163 C.1     1  UNL1       -0.0404
     32 C          -1.3526    1.1712    0.7335 C.1     1  UNL1       -0.0595
     33 C          -2.6402    1.5815    0.5503 C.ar    1  UNL1        0.0260
     34 C          -2.9526    2.7532    0.0791 C.ar    1  UNL1       -0.0443
     35 C          -4.3001    3.0097   -0.3566 C.ar    1  UNL1       -0.0364
     36 C          -5.1691    2.0872   -0.2788 C.ar    1  UNL1        0.0518
     37 C          -4.9811    0.6565    0.2560 C.ar    1  UNL1       -0.0001
     38 C          -5.7905   -0.2359    0.1864 C.ar    1  UNL1       -0.0475
     39 C          -7.1442   -0.3397   -0.3567 C.ar    1  UNL1        0.0036
     40 C          -7.2295    1.1715   -0.8835 C.ar    1  UNL1        0.2515
     41 O          -8.4723    0.9557   -1.3660 O.2     1  UNL1       -0.2677
     42 N          -6.5033    1.9858   -0.8197 N.ar    1  UNL1       -0.3112
     43 C          -6.7760    3.4000   -1.4278 C.3     1  UNL1        0.0153
     44 C          -3.6501    0.5771    0.6379 C.ar    1  UNL1       -0.0372
     45 N           2.2063    0.9994    1.9178 N.ar    1  UNL1       -0.2229
     46 H           7.1239    5.6978    0.6246 H       1  UNL1        0.0388
     47 H           6.4117    5.9711   -0.9958 H       1  UNL1        0.0388
     48 H           5.7575    6.9106    0.3920 H       1  UNL1        0.0388
     49 H           4.8161    4.3873   -0.5730 H       1  UNL1        0.1223
     50 H           6.3034    3.8081    1.6544 H       1  UNL1        0.0554
     51 H           4.9405    4.4712    3.6519 H       1  UNL1        0.0249
     52 H           3.9517    5.5495    2.5748 H       1  UNL1        0.0249
     53 H           5.7653    5.7445    2.7790 H       1  UNL1        0.0249
     54 H           4.6523    1.8149    3.1421 H       1  UNL1        0.1563
     55 H           5.1674   -0.3263    0.9014 H       1  UNL1        0.0652
     56 H           3.7508   -1.6064   -0.4111 H       1  UNL1        0.0626
     57 H           0.2416   -1.4993    2.5942 H       1  UNL1        0.0639
     58 H          -0.2399   -2.9114    4.6328 H       1  UNL1        0.0831
     59 H          -1.9332   -8.4037    2.0750 H       1  UNL1        0.0660
     60 H          -1.6969   -7.6380    0.5154 H       1  UNL1        0.0660
     61 H          -0.2798   -8.3175    1.2669 H       1  UNL1        0.0660
     62 H          -0.3624   -4.9499    0.3618 H       1  UNL1        0.0677
     63 H          -0.8722   -3.6838   -3.8125 H       1  UNL1        0.0657
     64 H           0.3050   -3.8061   -6.0337 H       1  UNL1        0.0278
     65 H           1.4912   -2.5691   -6.4439 H       1  UNL1        0.0278
     66 H          -0.2994   -2.2136   -6.5823 H       1  UNL1        0.0278
     67 H           1.9987   -0.7122   -5.0206 H       1  UNL1        0.0635
     68 H           2.2808   -0.1417   -2.6762 H       1  UNL1        0.0813
     69 H          -2.2490    3.5817    0.0385 H       1  UNL1        0.0630
     70 H          -4.4400    4.0140   -0.7170 H       1  UNL1        0.0639
     71 H          -5.5440   -1.3185    0.6248 H       1  UNL1        0.0626
     72 H          -7.7647   -0.9771   -0.4117 H       1  UNL1        0.0672
     73 H          -6.5229    4.1157   -0.6414 H       1  UNL1        0.0457
     74 H          -6.1152    3.3953   -2.3030 H       1  UNL1        0.0457
     75 H          -7.8444    3.4451   -1.5931 H       1  UNL1        0.0457
     76 H          -3.3144   -0.3074    1.1609 H       1  UNL1        0.0636
@<TRIPOS>BOND
     1     1     2    1
     2     2     3    1
     3     3     4    1
     4     3     5    1
     5     5     6    2
     6     5     7   am
     7     7     8    1
     8     8     9   ar
     9     9    10   ar
    10    10    11   ar
    11    11    12    1
    12    12    13   ar
    13    13    14    1
    14    14    15   ar
    15    15    16   ar
    16    16    17   ar
    17    17    18   ar
    18    18    19    1
    19    19    20    1
    20    18    21   ar
    21    13    22   ar
    22    22    23   ar
    23    23    24   ar
    24    24    25   ar
    25    25    26    1
    26    25    27   ar
    27    27    28   ar
    28    28    29   ar
    29    11    30   ar
    30    30    31    1
    31    31    32    3
    32    32    33    1
    33    33    34   ar
    34    34    35   ar
    35    35    36   ar
    36    36    37   ar
    37    37    38   ar
    38    38    39   ar
    39    39    40   ar
    40    40    41    2
    41    40    42   ar
    42    42    43    1
    43    37    44   ar
    44    30    45   ar
    45    45     8   ar
    46    29    12   ar
    47    44    33   ar
    48    21    14   ar
    49    29    23   ar
    50    42    36   ar
    51     1    46    1
    52     1    47    1
    53     1    48    1
    54     2    49    1
    55     3    50    1
    56     4    51    1
    57     4    52    1
    58     4    53    1
    59     7    54    1
    60     9    55    1
    61    10    56    1
    62    15    57    1
    63    16    58    1
    64    20    59    1
    65    20    60    1
    66    20    61    1
    67    21    62    1
    68    24    63    1
    69    26    64    1
    70    26    65    1
    71    26    66    1
    72    27    67    1
    73    28    68    1
    74    34    69    1
    75    35    70    1
    76    38    71    1
    77    39    72    1
    78    43    73    1
    79    43    74    1
    80    43    75    1
    81    44    76    1
