@<TRIPOS>MOLECULE
*****
 9 8 0 0 0
SMALL
GASTEIGER

@<TRIPOS>ATOM
      1 O           1.3755    0.6809   -0.4430 O.3     1  UNL1       -0.3861
      2 C           0.5731   -0.3266    0.0538 C.3     1  UNL1        0.1392
      3 C          -0.9043   -0.0330   -0.0251 C.3     1  UNL1        0.4125
      4 F          -1.3177    0.1690   -1.3272 F       1  UNL1       -0.1682
      5 F          -1.5571   -1.1743    0.4273 F       1  UNL1       -0.1682
      6 F          -1.2574    1.0795    0.6989 F       1  UNL1       -0.1682
      7 H           1.4523    1.4619    0.1384 H       1  UNL1        0.2098
      8 H           0.8645   -0.6417    1.0745 H       1  UNL1        0.0647
      9 H           0.7711   -1.2156   -0.5977 H       1  UNL1        0.0647
@<TRIPOS>BOND
     1     1     2    1
     2     2     3    1
     3     3     4    1
     4     3     5    1
     5     3     6    1
     6     1     7    1
     7     2     8    1
     8     2     9    1
