
     RDKit          3D

  9  8  0  0  0  0  0  0  0  0999 V2000
    1.3755    0.6809   -0.4430 O   0  0  0  0  0  0  0  0  0  0  0  0
    0.5731   -0.3266    0.0538 C   0  0  0  0  0  0  0  0  0  0  0  0
   -0.9043   -0.0330   -0.0251 C   0  0  0  0  0  0  0  0  0  0  0  0
   -1.3177    0.1690   -1.3272 F   0  0  0  0  0  0  0  0  0  0  0  0
   -1.5571   -1.1743    0.4273 F   0  0  0  0  0  0  0  0  0  0  0  0
   -1.2574    1.0795    0.6989 F   0  0  0  0  0  0  0  0  0  0  0  0
    1.4523    1.4619    0.1384 H   0  0  0  0  0  0  0  0  0  0  0  0
    0.8645   -0.6417    1.0745 H   0  0  0  0  0  0  0  0  0  0  0  0
    0.7711   -1.2156   -0.5977 H   0  0  0  0  0  0  0  0  0  0  0  0
  1  2  1  0
  2  3  1  0
  3  4  1  0
  3  5  1  0
  3  6  1  0
  1  7  1  0
  2  8  1  0
  2  9  1  0
M  END
$$$$
