
     RDKit          3D

 39 42  0  0  0  0  0  0  0  0999 V2000
    4.6232    1.3284    2.6762 C   0  0  0  0  0  0  0  0  0  0  0  0
    3.9206    0.1712    2.3100 O   0  0  0  0  0  0  0  0  0  0  0  0
    3.0928    0.0925    1.1825 C   0  0  0  0  0  0  0  0  0  0  0  0
    2.4393   -1.0733    0.8878 C   0  0  0  0  0  0  0  0  0  0  0  0
    1.6117   -1.1430   -0.2473 C   0  0  0  0  0  0  0  0  0  0  0  0
    1.4199   -0.1099   -1.0732 C   0  0  0  0  0  0  0  0  0  0  0  0
    0.5460   -0.0207   -2.2085 C   0  0  0  0  0  0  0  0  0  0  0  0
    0.9093    0.6916   -3.3585 N   0  0  0  0  0  0  0  0  0  0  0  0
   -0.0577    0.6794   -4.2193 N   0  0  0  0  0  0  0  0  0  0  0  0
   -1.1017   -0.0104   -3.7341 C   0  0  0  0  0  0  0  0  0  0  0  0
   -2.3171   -0.2953   -4.1990 N   0  0  0  0  0  0  0  0  0  0  0  0
   -3.1807   -0.9997   -3.4581 C   0  0  0  0  0  0  0  0  0  0  0  0
   -2.8590   -1.4373   -2.2357 N   0  0  0  0  0  0  0  0  0  0  0  0
   -1.6175   -1.1725   -1.7040 C   0  0  0  0  0  0  0  0  0  0  0  0
   -1.4173   -1.6172   -0.3907 N   0  0  0  0  0  0  0  0  0  0  0  0
   -2.0563   -0.8439    0.6323 C   0  0  0  0  0  0  0  0  0  0  0  0
   -3.3733   -1.1364    1.0029 C   0  0  0  0  0  0  0  0  0  0  0  0
   -4.0123   -0.3899    1.9769 C   0  0  0  0  0  0  0  0  0  0  0  0
   -3.3679    0.6529    2.5980 C   0  0  0  0  0  0  0  0  0  0  0  0
   -2.0684    0.9491    2.2388 C   0  0  0  0  0  0  0  0  0  0  0  0
   -1.2464    2.2754    3.0240 Cl  0  0  0  0  0  0  0  0  0  0  0  0
   -1.4221    0.1807    1.2426 C   0  0  0  0  0  0  0  0  0  0  0  0
   -0.7260   -0.4621   -2.4440 C   0  0  0  0  0  0  0  0  0  0  0  0
    2.1020    1.0850   -0.7545 C   0  0  0  0  0  0  0  0  0  0  0  0
    2.9146    1.1721    0.3467 C   0  0  0  0  0  0  0  0  0  0  0  0
    5.5250    1.0100    3.2794 H   0  0  0  0  0  0  0  0  0  0  0  0
    4.9683    1.9472    1.8321 H   0  0  0  0  0  0  0  0  0  0  0  0
    3.9354    1.9314    3.3247 H   0  0  0  0  0  0  0  0  0  0  0  0
    2.5411   -1.9689    1.5202 H   0  0  0  0  0  0  0  0  0  0  0  0
    1.1890   -2.1471   -0.4300 H   0  0  0  0  0  0  0  0  0  0  0  0
    1.8633    1.1353   -3.4129 H   0  0  0  0  0  0  0  0  0  0  0  0
   -4.1629   -1.2259   -3.8350 H   0  0  0  0  0  0  0  0  0  0  0  0
   -0.9069   -2.4544   -0.0804 H   0  0  0  0  0  0  0  0  0  0  0  0
   -3.8245   -1.9631    0.4826 H   0  0  0  0  0  0  0  0  0  0  0  0
   -5.0213   -0.6169    2.2582 H   0  0  0  0  0  0  0  0  0  0  0  0
   -3.8460    1.2709    3.3724 H   0  0  0  0  0  0  0  0  0  0  0  0
   -0.4233    0.4425    0.9963 H   0  0  0  0  0  0  0  0  0  0  0  0
    1.9929    1.9653   -1.3801 H   0  0  0  0  0  0  0  0  0  0  0  0
    3.4141    2.1067    0.5528 H   0  0  0  0  0  0  0  0  0  0  0  0
  1  2  1  0
  2  3  1  0
  3  4  2  0
  4  5  1  0
  5  6  2  0
  6  7  1  0
  7  8  1  0
  8  9  1  0
  9 10  2  0
 10 11  1  0
 11 12  2  0
 12 13  1  0
 13 14  2  0
 14 15  1  0
 15 16  1  0
 16 17  2  0
 17 18  1  0
 18 19  2  0
 19 20  1  0
 20 21  1  0
 20 22  2  0
 14 23  1  0
  6 24  1  0
 24 25  2  0
 25  3  1  0
 23  7  2  0
 23 10  1  0
 22 16  1  0
  1 26  1  0
  1 27  1  0
  1 28  1  0
  4 29  1  0
  5 30  1  0
  8 31  1  0
 12 32  1  0
 15 33  1  0
 17 34  1  0
 18 35  1  0
 19 36  1  0
 22 37  1  0
 24 38  1  0
 25 39  1  0
M  END
$$$$
