@<TRIPOS>MOLECULE
*****
 39 42 0 0 0
SMALL
GASTEIGER

@<TRIPOS>ATOM
      1 C           4.6232    1.3284    2.6762 C.3     1  UNL1        0.0788
      2 O           3.9206    0.1712    2.3100 O.3     1  UNL1       -0.4951
      3 C           3.0928    0.0925    1.1825 C.ar    1  UNL1        0.1201
      4 C           2.4393   -1.0733    0.8878 C.ar    1  UNL1       -0.0193
      5 C           1.6117   -1.1430   -0.2473 C.ar    1  UNL1       -0.0491
      6 C           1.4199   -0.1099   -1.0732 C.ar    1  UNL1        0.0008
      7 C           0.5460   -0.0207   -2.2085 C.ar    1  UNL1        0.0783
      8 N           0.9093    0.6916   -3.3585 N.ar    1  UNL1       -0.2742
      9 N          -0.0577    0.6794   -4.2193 N.ar    1  UNL1       -0.1530
     10 C          -1.1017   -0.0104   -3.7341 C.ar    1  UNL1        0.1864
     11 N          -2.3171   -0.2953   -4.1990 N.ar    1  UNL1       -0.2142
     12 C          -3.1807   -0.9997   -3.4581 C.ar    1  UNL1        0.1205
     13 N          -2.8590   -1.4373   -2.2357 N.ar    1  UNL1       -0.2198
     14 C          -1.6175   -1.1725   -1.7040 C.ar    1  UNL1        0.1375
     15 N          -1.4173   -1.6172   -0.3907 N.pl3   1  UNL1       -0.2987
     16 C          -2.0563   -0.8439    0.6323 C.ar    1  UNL1        0.0338
     17 C          -3.3733   -1.1364    1.0029 C.ar    1  UNL1       -0.0404
     18 C          -4.0123   -0.3899    1.9769 C.ar    1  UNL1       -0.0586
     19 C          -3.3679    0.6529    2.5980 C.ar    1  UNL1       -0.0433
     20 C          -2.0684    0.9491    2.2388 C.ar    1  UNL1        0.0427
     21 CL         -1.2464    2.2754    3.0240 Cl      1  UNL1       -0.0835
     22 C          -1.4221    0.1807    1.2426 C.ar    1  UNL1       -0.0222
     23 C          -0.7260   -0.4621   -2.4440 C.ar    1  UNL1        0.0861
     24 C           2.1020    1.0850   -0.7545 C.ar    1  UNL1       -0.0491
     25 C           2.9146    1.1721    0.3467 C.ar    1  UNL1       -0.0193
     26 H           5.5250    1.0100    3.2794 H       1  UNL1        0.0660
     27 H           4.9683    1.9472    1.8321 H       1  UNL1        0.0660
     28 H           3.9354    1.9314    3.3247 H       1  UNL1        0.0660
     29 H           2.5411   -1.9689    1.5202 H       1  UNL1        0.0654
     30 H           1.1890   -2.1471   -0.4300 H       1  UNL1        0.0625
     31 H           1.8633    1.1353   -3.4129 H       1  UNL1        0.1890
     32 H          -4.1629   -1.2259   -3.8350 H       1  UNL1        0.1048
     33 H          -0.9069   -2.4544   -0.0804 H       1  UNL1        0.1536
     34 H          -3.8245   -1.9631    0.4826 H       1  UNL1        0.0636
     35 H          -5.0213   -0.6169    2.2582 H       1  UNL1        0.0619
     36 H          -3.8460    1.2709    3.3724 H       1  UNL1        0.0632
     37 H          -0.4233    0.4425    0.9963 H       1  UNL1        0.0651
     38 H           1.9929    1.9653   -1.3801 H       1  UNL1        0.0625
     39 H           3.4141    2.1067    0.5528 H       1  UNL1        0.0654
@<TRIPOS>BOND
     1     1     2    1
     2     2     3    1
     3     3     4   ar
     4     4     5   ar
     5     5     6   ar
     6     6     7    1
     7     7     8   ar
     8     8     9   ar
     9     9    10   ar
    10    10    11   ar
    11    11    12   ar
    12    12    13   ar
    13    13    14   ar
    14    14    15    1
    15    15    16    1
    16    16    17   ar
    17    17    18   ar
    18    18    19   ar
    19    19    20   ar
    20    20    21    1
    21    20    22   ar
    22    14    23   ar
    23     6    24   ar
    24    24    25   ar
    25    25     3   ar
    26    23     7   ar
    27    23    10   ar
    28    22    16   ar
    29     1    26    1
    30     1    27    1
    31     1    28    1
    32     4    29    1
    33     5    30    1
    34     8    31    1
    35    12    32    1
    36    15    33    1
    37    17    34    1
    38    18    35    1
    39    19    36    1
    40    22    37    1
    41    24    38    1
    42    25    39    1
