@<TRIPOS>MOLECULE
*****
 72 75 0 0 0
SMALL
GASTEIGER

@<TRIPOS>ATOM
      1 C           1.4342    2.2888    3.6452 C.3     1  UNL1       -0.0633
      2 C           0.3129    1.3943    3.1664 C.3     1  UNL1       -0.0329
      3 C           0.0551    1.5677    1.6993 C.3     1  UNL1        0.0540
      4 C           1.3027    1.2191    0.9584 C.ar    1  UNL1       -0.0269
      5 C           1.6420   -0.0579    0.5759 C.ar    1  UNL1       -0.0562
      6 C           2.8335   -0.3281   -0.1086 C.ar    1  UNL1       -0.0537
      7 C           3.6826    0.6950   -0.4060 C.ar    1  UNL1       -0.0165
      8 C           4.9526    0.4890   -1.1233 C.ar    1  UNL1       -0.0015
      9 C           5.4569    1.4763   -1.9424 C.ar    1  UNL1       -0.0475
     10 C           6.6538    1.2817   -2.6195 C.ar    1  UNL1        0.0036
     11 C           7.3444    0.0781   -2.4654 C.ar    1  UNL1        0.2513
     12 O           8.4250   -0.0743   -3.0881 O.2     1  UNL1       -0.2677
     13 N           6.8389   -0.8779   -1.6611 N.ar    1  UNL1       -0.3149
     14 C           7.5994   -2.1112   -1.5385 C.3     1  UNL1        0.0233
     15 C           8.5995   -2.0120   -0.3822 C.3     1  UNL1       -0.0470
     16 C           5.6780   -0.6774   -1.0103 C.ar    1  UNL1        0.0156
     17 C           3.3358    1.9628   -0.0205 C.ar    1  UNL1       -0.0537
     18 C           2.1725    2.2406    0.6496 C.ar    1  UNL1       -0.0562
     19 N          -1.1303    0.9280    1.2396 N.am    1  UNL1       -0.2602
     20 C          -1.4641   -0.4737    1.3382 C.3     1  UNL1        0.0224
     21 C          -2.9460   -0.5861    1.6628 C.3     1  UNL1        0.0076
     22 C          -3.7747   -0.1139    0.4589 C.3     1  UNL1        0.1440
     23 C          -5.1499    0.1381    0.9150 C.3     1  UNL1        0.0199
     24 C          -6.1506    0.6262   -0.0486 C.3     1  UNL1        0.0645
     25 C          -6.4673   -0.1982   -1.2345 C.3     1  UNL1       -0.0362
     26 C          -5.8269    2.0810   -0.4333 C.3     1  UNL1       -0.0362
     27 O          -7.3700    0.7469    0.6717 O.3     1  UNL1       -0.3890
     28 C          -3.7275   -1.2603   -0.4910 C.ar    1  UNL1       -0.0040
     29 C          -2.8810   -1.2819   -1.5695 C.ar    1  UNL1       -0.0548
     30 C          -2.8358   -2.3566   -2.4081 C.ar    1  UNL1       -0.0614
     31 C          -3.6381   -3.4713   -2.2112 C.ar    1  UNL1       -0.0617
     32 C          -4.4885   -3.4610   -1.1359 C.ar    1  UNL1       -0.0614
     33 C          -4.5264   -2.3511   -0.2810 C.ar    1  UNL1       -0.0548
     34 O          -3.1281    1.0266   -0.0775 O.3     1  UNL1       -0.4387
     35 C          -2.1663    1.7370    0.6276 C.2     1  UNL1        0.4042
     36 O          -2.1629    2.9914    0.7469 O.2     1  UNL1       -0.2262
     37 H           1.1190    3.3344    3.4020 H       1  UNL1        0.0230
     38 H           1.4576    2.2450    4.7577 H       1  UNL1        0.0230
     39 H           2.4064    2.0515    3.1932 H       1  UNL1        0.0230
     40 H           0.6028    0.3551    3.4246 H       1  UNL1        0.0284
     41 H          -0.5685    1.6321    3.7913 H       1  UNL1        0.0284
     42 H          -0.0639    2.6885    1.5277 H       1  UNL1        0.0551
     43 H           0.9905   -0.8919    0.8007 H       1  UNL1        0.0621
     44 H           3.0844   -1.3365   -0.4022 H       1  UNL1        0.0624
     45 H           4.9594    2.4216   -2.0927 H       1  UNL1        0.0626
     46 H           7.0760    2.0470   -3.2742 H       1  UNL1        0.0672
     47 H           6.8927   -2.9170   -1.2635 H       1  UNL1        0.0490
     48 H           8.1048   -2.3778   -2.4893 H       1  UNL1        0.0490
     49 H           8.6488   -2.9858    0.1598 H       1  UNL1        0.0247
     50 H           9.6210   -1.8172   -0.7628 H       1  UNL1        0.0247
     51 H           8.2614   -1.2402    0.3488 H       1  UNL1        0.0247
     52 H           5.2984   -1.4584   -0.3753 H       1  UNL1        0.0816
     53 H           4.0108    2.8000   -0.2524 H       1  UNL1        0.0624
     54 H           1.9305    3.2846    0.9450 H       1  UNL1        0.0621
     55 H          -1.3267   -0.9923    0.3869 H       1  UNL1        0.0467
     56 H          -0.9032   -1.0108    2.1284 H       1  UNL1        0.0467
     57 H          -3.2198    0.0119    2.5490 H       1  UNL1        0.0322
     58 H          -3.1460   -1.6481    1.8995 H       1  UNL1        0.0322
     59 H          -5.0744    0.9422    1.7246 H       1  UNL1        0.0335
     60 H          -5.5307   -0.7369    1.4824 H       1  UNL1        0.0335
     61 H          -5.6700   -0.3520   -1.9684 H       1  UNL1        0.0257
     62 H          -7.0195   -1.1041   -0.9244 H       1  UNL1        0.0257
     63 H          -7.2520    0.3917   -1.8153 H       1  UNL1        0.0257
     64 H          -6.7440    2.5539   -0.8492 H       1  UNL1        0.0257
     65 H          -5.0902    2.0601   -1.2640 H       1  UNL1        0.0257
     66 H          -5.5254    2.6526    0.4435 H       1  UNL1        0.0257
     67 H          -7.4628    0.0289    1.3354 H       1  UNL1        0.2101
     68 H          -2.2474   -0.4393   -1.7540 H       1  UNL1        0.0622
     69 H          -2.1545   -2.3596   -3.2669 H       1  UNL1        0.0618
     70 H          -3.5929   -4.3191   -2.8853 H       1  UNL1        0.0618
     71 H          -5.1238   -4.3290   -0.9697 H       1  UNL1        0.0618
     72 H          -5.2341   -2.4606    0.5321 H       1  UNL1        0.0622
@<TRIPOS>BOND
     1     1     2    1
     2     2     3    1
     3     3     4    1
     4     4     5   ar
     5     5     6   ar
     6     6     7   ar
     7     7     8    1
     8     8     9   ar
     9     9    10   ar
    10    10    11   ar
    11    11    12    2
    12    11    13   ar
    13    13    14    1
    14    14    15    1
    15    13    16   ar
    16     7    17   ar
    17    17    18   ar
    18     3    19    1
    19    19    20    1
    20    20    21    1
    21    21    22    1
    22    22    23    1
    23    23    24    1
    24    24    25    1
    25    24    26    1
    26    24    27    1
    27    22    28    1
    28    28    29   ar
    29    29    30   ar
    30    30    31   ar
    31    31    32   ar
    32    32    33   ar
    33    22    34    1
    34    34    35    1
    35    35    36    2
    36    18     4   ar
    37    35    19   am
    38    16     8   ar
    39    33    28   ar
    40     1    37    1
    41     1    38    1
    42     1    39    1
    43     2    40    1
    44     2    41    1
    45     3    42    1
    46     5    43    1
    47     6    44    1
    48     9    45    1
    49    10    46    1
    50    14    47    1
    51    14    48    1
    52    15    49    1
    53    15    50    1
    54    15    51    1
    55    16    52    1
    56    17    53    1
    57    18    54    1
    58    20    55    1
    59    20    56    1
    60    21    57    1
    61    21    58    1
    62    23    59    1
    63    23    60    1
    64    25    61    1
    65    25    62    1
    66    25    63    1
    67    26    64    1
    68    26    65    1
    69    26    66    1
    70    27    67    1
    71    29    68    1
    72    30    69    1
    73    31    70    1
    74    32    71    1
    75    33    72    1
