
     RDKit          3D

 72 75  0  0  0  0  0  0  0  0999 V2000
    1.4342    2.2888    3.6452 C   0  0  0  0  0  0  0  0  0  0  0  0
    0.3129    1.3943    3.1664 C   0  0  0  0  0  0  0  0  0  0  0  0
    0.0551    1.5677    1.6993 C   0  0  1  0  0  0  0  0  0  0  0  0
    1.3027    1.2191    0.9584 C   0  0  0  0  0  0  0  0  0  0  0  0
    1.6420   -0.0579    0.5759 C   0  0  0  0  0  0  0  0  0  0  0  0
    2.8335   -0.3281   -0.1086 C   0  0  0  0  0  0  0  0  0  0  0  0
    3.6826    0.6950   -0.4060 C   0  0  0  0  0  0  0  0  0  0  0  0
    4.9526    0.4890   -1.1233 C   0  0  0  0  0  0  0  0  0  0  0  0
    5.4569    1.4763   -1.9424 C   0  0  0  0  0  0  0  0  0  0  0  0
    6.6538    1.2817   -2.6195 C   0  0  0  0  0  0  0  0  0  0  0  0
    7.3444    0.0781   -2.4654 C   0  0  0  0  0  0  0  0  0  0  0  0
    8.4250   -0.0743   -3.0881 O   0  0  0  0  0  0  0  0  0  0  0  0
    6.8389   -0.8779   -1.6611 N   0  0  0  0  0  0  0  0  0  0  0  0
    7.5994   -2.1112   -1.5385 C   0  0  0  0  0  0  0  0  0  0  0  0
    8.5995   -2.0120   -0.3822 C   0  0  0  0  0  0  0  0  0  0  0  0
    5.6780   -0.6774   -1.0103 C   0  0  0  0  0  0  0  0  0  0  0  0
    3.3358    1.9628   -0.0205 C   0  0  0  0  0  0  0  0  0  0  0  0
    2.1725    2.2406    0.6496 C   0  0  0  0  0  0  0  0  0  0  0  0
   -1.1303    0.9280    1.2396 N   0  0  0  0  0  0  0  0  0  0  0  0
   -1.4641   -0.4737    1.3382 C   0  0  0  0  0  0  0  0  0  0  0  0
   -2.9460   -0.5861    1.6628 C   0  0  0  0  0  0  0  0  0  0  0  0
   -3.7747   -0.1139    0.4589 C   0  0  2  0  0  0  0  0  0  0  0  0
   -5.1499    0.1381    0.9150 C   0  0  0  0  0  0  0  0  0  0  0  0
   -6.1506    0.6262   -0.0486 C   0  0  0  0  0  0  0  0  0  0  0  0
   -6.4673   -0.1982   -1.2345 C   0  0  0  0  0  0  0  0  0  0  0  0
   -5.8269    2.0810   -0.4333 C   0  0  0  0  0  0  0  0  0  0  0  0
   -7.3700    0.7469    0.6717 O   0  0  0  0  0  0  0  0  0  0  0  0
   -3.7275   -1.2603   -0.4910 C   0  0  0  0  0  0  0  0  0  0  0  0
   -2.8810   -1.2819   -1.5695 C   0  0  0  0  0  0  0  0  0  0  0  0
   -2.8358   -2.3566   -2.4081 C   0  0  0  0  0  0  0  0  0  0  0  0
   -3.6381   -3.4713   -2.2112 C   0  0  0  0  0  0  0  0  0  0  0  0
   -4.4885   -3.4610   -1.1359 C   0  0  0  0  0  0  0  0  0  0  0  0
   -4.5264   -2.3511   -0.2810 C   0  0  0  0  0  0  0  0  0  0  0  0
   -3.1281    1.0266   -0.0775 O   0  0  0  0  0  0  0  0  0  0  0  0
   -2.1663    1.7370    0.6276 C   0  0  0  0  0  0  0  0  0  0  0  0
   -2.1629    2.9914    0.7469 O   0  0  0  0  0  0  0  0  0  0  0  0
    1.1190    3.3344    3.4020 H   0  0  0  0  0  0  0  0  0  0  0  0
    1.4576    2.2450    4.7577 H   0  0  0  0  0  0  0  0  0  0  0  0
    2.4064    2.0515    3.1932 H   0  0  0  0  0  0  0  0  0  0  0  0
    0.6028    0.3551    3.4246 H   0  0  0  0  0  0  0  0  0  0  0  0
   -0.5685    1.6321    3.7913 H   0  0  0  0  0  0  0  0  0  0  0  0
   -0.0639    2.6885    1.5277 H   0  0  0  0  0  0  0  0  0  0  0  0
    0.9905   -0.8919    0.8007 H   0  0  0  0  0  0  0  0  0  0  0  0
    3.0844   -1.3365   -0.4022 H   0  0  0  0  0  0  0  0  0  0  0  0
    4.9594    2.4216   -2.0927 H   0  0  0  0  0  0  0  0  0  0  0  0
    7.0760    2.0470   -3.2742 H   0  0  0  0  0  0  0  0  0  0  0  0
    6.8927   -2.9170   -1.2635 H   0  0  0  0  0  0  0  0  0  0  0  0
    8.1048   -2.3778   -2.4893 H   0  0  0  0  0  0  0  0  0  0  0  0
    8.6488   -2.9858    0.1598 H   0  0  0  0  0  0  0  0  0  0  0  0
    9.6210   -1.8172   -0.7628 H   0  0  0  0  0  0  0  0  0  0  0  0
    8.2614   -1.2402    0.3488 H   0  0  0  0  0  0  0  0  0  0  0  0
    5.2984   -1.4584   -0.3753 H   0  0  0  0  0  0  0  0  0  0  0  0
    4.0108    2.8000   -0.2524 H   0  0  0  0  0  0  0  0  0  0  0  0
    1.9305    3.2846    0.9450 H   0  0  0  0  0  0  0  0  0  0  0  0
   -1.3267   -0.9923    0.3869 H   0  0  0  0  0  0  0  0  0  0  0  0
   -0.9032   -1.0108    2.1284 H   0  0  0  0  0  0  0  0  0  0  0  0
   -3.2198    0.0119    2.5490 H   0  0  0  0  0  0  0  0  0  0  0  0
   -3.1460   -1.6481    1.8995 H   0  0  0  0  0  0  0  0  0  0  0  0
   -5.0744    0.9422    1.7246 H   0  0  0  0  0  0  0  0  0  0  0  0
   -5.5307   -0.7369    1.4824 H   0  0  0  0  0  0  0  0  0  0  0  0
   -5.6700   -0.3520   -1.9684 H   0  0  0  0  0  0  0  0  0  0  0  0
   -7.0195   -1.1041   -0.9244 H   0  0  0  0  0  0  0  0  0  0  0  0
   -7.2520    0.3917   -1.8153 H   0  0  0  0  0  0  0  0  0  0  0  0
   -6.7440    2.5539   -0.8492 H   0  0  0  0  0  0  0  0  0  0  0  0
   -5.0902    2.0601   -1.2640 H   0  0  0  0  0  0  0  0  0  0  0  0
   -5.5254    2.6526    0.4435 H   0  0  0  0  0  0  0  0  0  0  0  0
   -7.4628    0.0289    1.3354 H   0  0  0  0  0  0  0  0  0  0  0  0
   -2.2474   -0.4393   -1.7540 H   0  0  0  0  0  0  0  0  0  0  0  0
   -2.1545   -2.3596   -3.2669 H   0  0  0  0  0  0  0  0  0  0  0  0
   -3.5929   -4.3191   -2.8853 H   0  0  0  0  0  0  0  0  0  0  0  0
   -5.1238   -4.3290   -0.9697 H   0  0  0  0  0  0  0  0  0  0  0  0
   -5.2341   -2.4606    0.5321 H   0  0  0  0  0  0  0  0  0  0  0  0
  1  2  1  0
  2  3  1  0
  3  4  1  0
  4  5  2  0
  5  6  1  0
  6  7  2  0
  7  8  1  0
  8  9  1  0
  9 10  2  0
 10 11  1  0
 11 12  2  0
 11 13  1  0
 13 14  1  0
 14 15  1  0
 13 16  1  0
  7 17  1  0
 17 18  2  0
  3 19  1  0
 19 20  1  0
 20 21  1  0
 21 22  1  0
 22 23  1  1
 23 24  1  0
 24 25  1  0
 24 26  1  0
 24 27  1  0
 22 28  1  0
 28 29  2  0
 29 30  1  0
 30 31  2  0
 31 32  1  0
 32 33  2  0
 22 34  1  0
 34 35  1  0
 35 36  2  0
 18  4  1  0
 35 19  1  0
 16  8  2  0
 33 28  1  0
  1 37  1  0
  1 38  1  0
  1 39  1  0
  2 40  1  0
  2 41  1  0
  3 42  1  1
  5 43  1  0
  6 44  1  0
  9 45  1  0
 10 46  1  0
 14 47  1  0
 14 48  1  0
 15 49  1  0
 15 50  1  0
 15 51  1  0
 16 52  1  0
 17 53  1  0
 18 54  1  0
 20 55  1  0
 20 56  1  0
 21 57  1  0
 21 58  1  0
 23 59  1  0
 23 60  1  0
 25 61  1  0
 25 62  1  0
 25 63  1  0
 26 64  1  0
 26 65  1  0
 26 66  1  0
 27 67  1  0
 29 68  1  0
 30 69  1  0
 31 70  1  0
 32 71  1  0
 33 72  1  0
M  END
$$$$
