@<TRIPOS>MOLECULE
*****
 54 58 0 0 0
SMALL
GASTEIGER

@<TRIPOS>ATOM
      1 O          -3.5575    1.9404   -2.0493 O.2     1  UNL1       -0.2699
      2 C          -2.7863    1.5012   -1.1710 C.2     1  UNL1        0.2492
      3 C          -3.0976    1.6728    0.2485 C.ar    1  UNL1        0.0654
      4 C          -2.6299    2.8091    0.8734 C.ar    1  UNL1       -0.0474
      5 C          -2.9043    2.9983    2.2097 C.ar    1  UNL1       -0.0595
      6 C          -3.6484    2.0260    2.8773 C.ar    1  UNL1       -0.0412
      7 C          -4.0974    0.9105    2.2284 C.ar    1  UNL1        0.0688
      8 CL         -5.0349   -0.3129    3.0745 Cl      1  UNL1       -0.0813
      9 C          -3.8353    0.7009    0.8947 C.ar    1  UNL1        0.1164
     10 N          -4.2619   -0.4201    0.1488 N.ar    1  UNL1       -0.1481
     11 N          -3.9717   -1.6670    0.4248 N.ar    1  UNL1       -0.1555
     12 C          -4.5424   -2.4949   -0.4958 C.ar    1  UNL1        0.0697
     13 C          -5.2088   -1.6828   -1.3659 C.ar    1  UNL1        0.0697
     14 N          -5.0180   -0.4243   -0.9450 N.ar    1  UNL1       -0.1555
     15 N          -1.5800    0.8196   -1.4930 N.am    1  UNL1       -0.2897
     16 C          -1.2288    0.6252   -2.8813 C.3     1  UNL1        0.0388
     17 C          -0.9223   -0.8518   -3.0728 C.3     1  UNL1        0.0635
     18 O           0.1268   -1.1597   -2.2147 O.3     1  UNL1       -0.3764
     19 C          -0.3207   -1.1044   -0.8883 C.3     1  UNL1        0.0666
     20 C          -0.6825    0.3078   -0.4754 C.3     1  UNL1        0.0537
     21 C           0.5390    1.2015   -0.4723 C.3     1  UNL1       -0.0041
     22 C           1.5418    0.8114    0.5096 C.ar    1  UNL1       -0.0097
     23 C           2.6865    0.1614    0.1179 C.ar    1  UNL1       -0.0451
     24 C           3.6570   -0.2168    1.0536 C.ar    1  UNL1        0.0195
     25 C           4.8686   -0.9066    0.6306 C.ar    1  UNL1        0.1597
     26 N           5.1219   -1.2131   -0.6535 N.ar    1  UNL1       -0.2357
     27 C           6.2318   -1.8498   -1.0653 C.ar    1  UNL1        0.0314
     28 C           7.1701   -2.2145   -0.1328 C.ar    1  UNL1       -0.0254
     29 C           6.9306   -1.9101    1.1890 C.ar    1  UNL1        0.0314
     30 N           5.8064   -1.2759    1.5267 N.ar    1  UNL1       -0.2357
     31 C           3.4677    0.0639    2.3896 C.ar    1  UNL1       -0.0483
     32 C           2.3277    0.7128    2.7914 C.ar    1  UNL1       -0.0255
     33 C           1.3700    1.0828    1.8448 C.ar    1  UNL1        0.1267
     34 F           0.2796    1.7175    2.3301 F       1  UNL1       -0.2052
     35 H          -2.0553    3.5403    0.3199 H       1  UNL1        0.0626
     36 H          -2.5664    3.8694    2.7602 H       1  UNL1        0.0618
     37 H          -3.8655    2.1785    3.9405 H       1  UNL1        0.0633
     38 H          -4.4665   -3.5724   -0.5098 H       1  UNL1        0.0864
     39 H          -5.7777   -2.0347   -2.2286 H       1  UNL1        0.0864
     40 H          -2.0572    0.9378   -3.5536 H       1  UNL1        0.0487
     41 H          -0.3498    1.2241   -3.1757 H       1  UNL1        0.0487
     42 H          -0.5989   -0.9984   -4.1034 H       1  UNL1        0.0575
     43 H          -1.8464   -1.4324   -2.8243 H       1  UNL1        0.0575
     44 H          -1.2661   -1.7036   -0.7805 H       1  UNL1        0.0578
     45 H           0.4428   -1.5594   -0.2441 H       1  UNL1        0.0578
     46 H          -1.1600    0.2405    0.5117 H       1  UNL1        0.0526
     47 H           0.2630    2.2707   -0.3699 H       1  UNL1        0.0333
     48 H           0.9694    1.1135   -1.5137 H       1  UNL1        0.0333
     49 H           2.9041   -0.0922   -0.9076 H       1  UNL1        0.0628
     50 H           6.4340   -2.0948   -2.0905 H       1  UNL1        0.0831
     51 H           8.0942   -2.7329   -0.3887 H       1  UNL1        0.0648
     52 H           7.6746   -2.2015    1.9167 H       1  UNL1        0.0831
     53 H           4.2155   -0.2255    3.1273 H       1  UNL1        0.0625
     54 H           2.2157    0.9144    3.8440 H       1  UNL1        0.0646
@<TRIPOS>BOND
     1     1     2    2
     2     2     3    1
     3     3     4   ar
     4     4     5   ar
     5     5     6   ar
     6     6     7   ar
     7     7     8    1
     8     7     9   ar
     9     9    10    1
    10    10    11   ar
    11    11    12   ar
    12    12    13   ar
    13    13    14   ar
    14     2    15   am
    15    15    16    1
    16    16    17    1
    17    17    18    1
    18    18    19    1
    19    19    20    1
    20    20    21    1
    21    21    22    1
    22    22    23   ar
    23    23    24   ar
    24    24    25    1
    25    25    26   ar
    26    26    27   ar
    27    27    28   ar
    28    28    29   ar
    29    29    30   ar
    30    24    31   ar
    31    31    32   ar
    32    32    33   ar
    33    33    34    1
    34     9     3   ar
    35    14    10   ar
    36    20    15    1
    37    33    22   ar
    38    30    25   ar
    39     4    35    1
    40     5    36    1
    41     6    37    1
    42    12    38    1
    43    13    39    1
    44    16    40    1
    45    16    41    1
    46    17    42    1
    47    17    43    1
    48    19    44    1
    49    19    45    1
    50    20    46    1
    51    21    47    1
    52    21    48    1
    53    23    49    1
    54    27    50    1
    55    28    51    1
    56    29    52    1
    57    31    53    1
    58    32    54    1
