
     RDKit          3D

 54 58  0  0  0  0  0  0  0  0999 V2000
   -3.5575    1.9404   -2.0493 O   0  0  0  0  0  0  0  0  0  0  0  0
   -2.7863    1.5012   -1.1710 C   0  0  0  0  0  0  0  0  0  0  0  0
   -3.0976    1.6728    0.2485 C   0  0  0  0  0  0  0  0  0  0  0  0
   -2.6299    2.8091    0.8734 C   0  0  0  0  0  0  0  0  0  0  0  0
   -2.9043    2.9983    2.2097 C   0  0  0  0  0  0  0  0  0  0  0  0
   -3.6484    2.0260    2.8773 C   0  0  0  0  0  0  0  0  0  0  0  0
   -4.0974    0.9105    2.2284 C   0  0  0  0  0  0  0  0  0  0  0  0
   -5.0349   -0.3129    3.0745 Cl  0  0  0  0  0  0  0  0  0  0  0  0
   -3.8353    0.7009    0.8947 C   0  0  0  0  0  0  0  0  0  0  0  0
   -4.2619   -0.4201    0.1488 N   0  0  0  0  0  0  0  0  0  0  0  0
   -3.9717   -1.6670    0.4248 N   0  0  0  0  0  0  0  0  0  0  0  0
   -4.5424   -2.4949   -0.4958 C   0  0  0  0  0  0  0  0  0  0  0  0
   -5.2088   -1.6828   -1.3659 C   0  0  0  0  0  0  0  0  0  0  0  0
   -5.0180   -0.4243   -0.9450 N   0  0  0  0  0  0  0  0  0  0  0  0
   -1.5800    0.8196   -1.4930 N   0  0  0  0  0  0  0  0  0  0  0  0
   -1.2288    0.6252   -2.8813 C   0  0  0  0  0  0  0  0  0  0  0  0
   -0.9223   -0.8518   -3.0728 C   0  0  0  0  0  0  0  0  0  0  0  0
    0.1268   -1.1597   -2.2147 O   0  0  0  0  0  0  0  0  0  0  0  0
   -0.3207   -1.1044   -0.8883 C   0  0  0  0  0  0  0  0  0  0  0  0
   -0.6825    0.3078   -0.4754 C   0  0  1  0  0  0  0  0  0  0  0  0
    0.5390    1.2015   -0.4723 C   0  0  0  0  0  0  0  0  0  0  0  0
    1.5418    0.8114    0.5096 C   0  0  0  0  0  0  0  0  0  0  0  0
    2.6865    0.1614    0.1179 C   0  0  0  0  0  0  0  0  0  0  0  0
    3.6570   -0.2168    1.0536 C   0  0  0  0  0  0  0  0  0  0  0  0
    4.8686   -0.9066    0.6306 C   0  0  0  0  0  0  0  0  0  0  0  0
    5.1219   -1.2131   -0.6535 N   0  0  0  0  0  0  0  0  0  0  0  0
    6.2318   -1.8498   -1.0653 C   0  0  0  0  0  0  0  0  0  0  0  0
    7.1701   -2.2145   -0.1328 C   0  0  0  0  0  0  0  0  0  0  0  0
    6.9306   -1.9101    1.1890 C   0  0  0  0  0  0  0  0  0  0  0  0
    5.8064   -1.2759    1.5267 N   0  0  0  0  0  0  0  0  0  0  0  0
    3.4677    0.0639    2.3896 C   0  0  0  0  0  0  0  0  0  0  0  0
    2.3277    0.7128    2.7914 C   0  0  0  0  0  0  0  0  0  0  0  0
    1.3700    1.0828    1.8448 C   0  0  0  0  0  0  0  0  0  0  0  0
    0.2796    1.7175    2.3301 F   0  0  0  0  0  0  0  0  0  0  0  0
   -2.0553    3.5403    0.3199 H   0  0  0  0  0  0  0  0  0  0  0  0
   -2.5664    3.8694    2.7602 H   0  0  0  0  0  0  0  0  0  0  0  0
   -3.8655    2.1785    3.9405 H   0  0  0  0  0  0  0  0  0  0  0  0
   -4.4665   -3.5724   -0.5098 H   0  0  0  0  0  0  0  0  0  0  0  0
   -5.7777   -2.0347   -2.2286 H   0  0  0  0  0  0  0  0  0  0  0  0
   -2.0572    0.9378   -3.5536 H   0  0  0  0  0  0  0  0  0  0  0  0
   -0.3498    1.2241   -3.1757 H   0  0  0  0  0  0  0  0  0  0  0  0
   -0.5989   -0.9984   -4.1034 H   0  0  0  0  0  0  0  0  0  0  0  0
   -1.8464   -1.4324   -2.8243 H   0  0  0  0  0  0  0  0  0  0  0  0
   -1.2661   -1.7036   -0.7805 H   0  0  0  0  0  0  0  0  0  0  0  0
    0.4428   -1.5594   -0.2441 H   0  0  0  0  0  0  0  0  0  0  0  0
   -1.1600    0.2405    0.5117 H   0  0  0  0  0  0  0  0  0  0  0  0
    0.2630    2.2707   -0.3699 H   0  0  0  0  0  0  0  0  0  0  0  0
    0.9694    1.1135   -1.5137 H   0  0  0  0  0  0  0  0  0  0  0  0
    2.9041   -0.0922   -0.9076 H   0  0  0  0  0  0  0  0  0  0  0  0
    6.4340   -2.0948   -2.0905 H   0  0  0  0  0  0  0  0  0  0  0  0
    8.0942   -2.7329   -0.3887 H   0  0  0  0  0  0  0  0  0  0  0  0
    7.6746   -2.2015    1.9167 H   0  0  0  0  0  0  0  0  0  0  0  0
    4.2155   -0.2255    3.1273 H   0  0  0  0  0  0  0  0  0  0  0  0
    2.2157    0.9144    3.8440 H   0  0  0  0  0  0  0  0  0  0  0  0
  1  2  2  0
  2  3  1  0
  3  4  2  0
  4  5  1  0
  5  6  2  0
  6  7  1  0
  7  8  1  0
  7  9  2  0
  9 10  1  0
 10 11  1  0
 11 12  2  0
 12 13  1  0
 13 14  2  0
  2 15  1  0
 15 16  1  0
 16 17  1  0
 17 18  1  0
 18 19  1  0
 19 20  1  0
 20 21  1  0
 21 22  1  0
 22 23  2  0
 23 24  1  0
 24 25  1  0
 25 26  2  0
 26 27  1  0
 27 28  2  0
 28 29  1  0
 29 30  2  0
 24 31  2  0
 31 32  1  0
 32 33  2  0
 33 34  1  0
  9  3  1  0
 14 10  1  0
 20 15  1  0
 33 22  1  0
 30 25  1  0
  4 35  1  0
  5 36  1  0
  6 37  1  0
 12 38  1  0
 13 39  1  0
 16 40  1  0
 16 41  1  0
 17 42  1  0
 17 43  1  0
 19 44  1  0
 19 45  1  0
 20 46  1  1
 21 47  1  0
 21 48  1  0
 23 49  1  0
 27 50  1  0
 28 51  1  0
 29 52  1  0
 31 53  1  0
 32 54  1  0
M  END
$$$$
