@<TRIPOS>MOLECULE
*****
 37 39 0 0 0
SMALL
GASTEIGER

@<TRIPOS>ATOM
      1 CL          7.1643    1.1270    0.4073 Cl      1  UNL1       -0.0835
      2 C           5.4283    0.9099    0.3707 C.ar    1  UNL1        0.0410
      3 C           4.9048   -0.1564   -0.3233 C.ar    1  UNL1       -0.0423
      4 C           3.5175   -0.3349   -0.3559 C.ar    1  UNL1       -0.0466
      5 C           2.6252    0.4938    0.2689 C.ar    1  UNL1        0.0129
      6 S           0.8820    0.3380    0.3458 S.3     1  UNL1       -0.0876
      7 C           0.1439   -1.1784   -0.0368 C.ar    1  UNL1        0.0337
      8 C           0.8025   -2.3767   -0.0871 C.ar    1  UNL1       -0.0462
      9 C           0.1033   -3.5330   -0.4521 C.ar    1  UNL1       -0.0606
     10 C          -1.2304   -3.5361   -0.7677 C.ar    1  UNL1       -0.0599
     11 C          -1.8885   -2.3100   -0.7110 C.ar    1  UNL1       -0.0396
     12 C          -1.2286   -1.1594   -0.3569 C.ar    1  UNL1        0.0437
     13 N          -1.9810    0.0400   -0.3269 N.pl3   1  UNL1       -0.3266
     14 C          -2.1743    0.8672    0.8232 C.3     1  UNL1        0.0248
     15 C          -2.3482    2.2994    0.2971 C.3     1  UNL1        0.0117
     16 N          -3.5902    2.3580   -0.4270 N.3     1  UNL1       -0.3130
     17 C          -3.9009    1.1730   -1.1622 C.3     1  UNL1        0.0117
     18 C          -2.6205    0.4808   -1.5758 C.3     1  UNL1        0.0248
     19 C           3.2127    1.5681    0.9631 C.ar    1  UNL1       -0.0466
     20 C           4.5688    1.7714    1.0138 C.ar    1  UNL1       -0.0423
     21 H           5.5503   -0.8531   -0.8403 H       1  UNL1        0.0632
     22 H           3.1162   -1.1553   -0.9326 H       1  UNL1        0.0629
     23 H           1.8325   -2.5453    0.1585 H       1  UNL1        0.0629
     24 H           0.6127   -4.4824   -0.4960 H       1  UNL1        0.0618
     25 H          -1.7573   -4.4372   -1.0480 H       1  UNL1        0.0618
     26 H          -2.9455   -2.3418   -0.9656 H       1  UNL1        0.0636
     27 H          -3.0984    0.5971    1.3806 H       1  UNL1        0.0476
     28 H          -1.3351    0.7988    1.5169 H       1  UNL1        0.0476
     29 H          -2.3761    2.9866    1.1416 H       1  UNL1        0.0439
     30 H          -1.4669    2.5688   -0.3227 H       1  UNL1        0.0439
     31 H          -4.3468    2.5750    0.2886 H       1  UNL1        0.1220
     32 H          -4.5151    1.3376   -2.0539 H       1  UNL1        0.0439
     33 H          -4.4557    0.4530   -0.5142 H       1  UNL1        0.0439
     34 H          -1.9089    1.1552   -2.0846 H       1  UNL1        0.0476
     35 H          -2.8605   -0.3563   -2.2361 H       1  UNL1        0.0476
     36 H           2.5416    2.2606    1.4786 H       1  UNL1        0.0629
     37 H           5.0225    2.5972    1.5474 H       1  UNL1        0.0632
@<TRIPOS>BOND
     1     1     2    1
     2     2     3   ar
     3     3     4   ar
     4     4     5   ar
     5     5     6    1
     6     6     7    1
     7     7     8   ar
     8     8     9   ar
     9     9    10   ar
    10    10    11   ar
    11    11    12   ar
    12    12    13    1
    13    13    14    1
    14    14    15    1
    15    15    16    1
    16    16    17    1
    17    17    18    1
    18     5    19   ar
    19    19    20   ar
    20    20     2   ar
    21    12     7   ar
    22    18    13    1
    23     3    21    1
    24     4    22    1
    25     8    23    1
    26     9    24    1
    27    10    25    1
    28    11    26    1
    29    14    27    1
    30    14    28    1
    31    15    29    1
    32    15    30    1
    33    16    31    1
    34    17    32    1
    35    17    33    1
    36    18    34    1
    37    18    35    1
    38    19    36    1
    39    20    37    1
