@<TRIPOS>MOLECULE
*****
 61 64 0 0 0
SMALL
GASTEIGER

@<TRIPOS>ATOM
      1 C          -8.1625    2.5051    1.5102 C.3     1  UNL1        0.0788
      2 O          -7.3254    3.0472    0.5351 O.3     1  UNL1       -0.4951
      3 C          -5.9914    2.6948    0.3894 C.ar    1  UNL1        0.1201
      4 C          -5.2053    3.2604   -0.5919 C.ar    1  UNL1       -0.0193
      5 C          -3.8774    2.8945   -0.7194 C.ar    1  UNL1       -0.0475
      6 C          -3.3004    1.9626    0.1203 C.ar    1  UNL1        0.0226
      7 C          -1.9226    1.6377    0.0083 C.2     1  UNL1        0.1955
      8 O          -1.1857    2.6368   -0.3783 O.2     1  UNL1       -0.2866
      9 C          -1.2306    0.4081    0.2533 C.ar    1  UNL1        0.0520
     10 C           0.1179    0.2962    0.6144 C.ar    1  UNL1        0.0293
     11 C           1.0085    1.4297    0.8434 C.3     1  UNL1       -0.0235
     12 N           0.4499   -1.0023    0.7235 N.ar    1  UNL1       -0.3241
     13 C           1.7642   -1.4619    1.1054 C.3     1  UNL1        0.0527
     14 C           2.7264   -1.5919   -0.0096 C.ar    1  UNL1        0.0109
     15 C           3.6579   -0.5881   -0.2014 C.ar    1  UNL1       -0.0123
     16 C           4.5759   -0.5962   -1.1949 C.ar    1  UNL1        0.1222
     17 O           5.5270    0.3847   -1.4262 O.3     1  UNL1       -0.4779
     18 C           5.7219    1.5493   -0.6973 C.3     1  UNL1        0.1931
     19 C           7.1277    1.5815   -0.1088 C.3     1  UNL1       -0.0172
     20 C           5.5402    2.7228   -1.5860 C.2     1  UNL1        0.3456
     21 O           5.2562    2.5462   -2.7864 O.2     1  UNL1       -0.2468
     22 O           5.6873    4.0102   -1.0764 O.3     1  UNL1       -0.4781
     23 C           4.5955   -1.6666   -2.0792 C.ar    1  UNL1       -0.0172
     24 C           3.6729   -2.6673   -1.8938 C.ar    1  UNL1       -0.0227
     25 C           2.7322   -2.6531   -0.8706 C.ar    1  UNL1        0.1285
     26 F           1.8545   -3.7009   -0.7439 F       1  UNL1       -0.2051
     27 C          -0.6153   -1.7724    0.4522 C.ar    1  UNL1        0.1457
     28 N          -0.8256   -3.0958    0.4153 N.ar    1  UNL1       -0.1949
     29 C          -1.9874   -3.6880    0.1100 C.ar    1  UNL1        0.2163
     30 O          -2.1338   -5.0840    0.0923 O.3     1  UNL1       -0.4796
     31 C          -1.0303   -5.9139    0.4043 C.3     1  UNL1        0.0804
     32 C          -3.0349   -2.8506   -0.1869 C.ar    1  UNL1        0.0007
     33 C          -2.8774   -1.4702   -0.1645 C.ar    1  UNL1       -0.0453
     34 C          -1.6698   -0.8887    0.1561 C.ar    1  UNL1        0.0302
     35 C          -4.1010    1.4125    1.0898 C.ar    1  UNL1       -0.0475
     36 C          -5.4371    1.7610    1.2408 C.ar    1  UNL1       -0.0193
     37 H          -7.6651    2.5298    2.5113 H       1  UNL1        0.0660
     38 H          -9.1242    3.0391    1.5286 H       1  UNL1        0.0660
     39 H          -8.4077    1.4225    1.3218 H       1  UNL1        0.0660
     40 H          -5.6700    3.9881   -1.2416 H       1  UNL1        0.0654
     41 H          -3.2525    3.3416   -1.4964 H       1  UNL1        0.0626
     42 H           1.6049    1.6682   -0.0618 H       1  UNL1        0.0292
     43 H           1.7698    1.1275    1.6265 H       1  UNL1        0.0292
     44 H           0.5122    2.3734    1.1444 H       1  UNL1        0.0292
     45 H           1.7136   -2.4733    1.5975 H       1  UNL1        0.0543
     46 H           2.2293   -0.8179    1.8981 H       1  UNL1        0.0543
     47 H           3.6553    0.2445    0.4758 H       1  UNL1        0.0658
     48 H           5.0350    1.6989    0.1577 H       1  UNL1        0.0849
     49 H           7.3116    0.5684    0.3202 H       1  UNL1        0.0271
     50 H           7.8462    1.7904   -0.9115 H       1  UNL1        0.0271
     51 H           7.1336    2.3407    0.6921 H       1  UNL1        0.0271
     52 H           5.7152    4.7636   -1.7679 H       1  UNL1        0.2952
     53 H           5.3168   -1.7187   -2.8973 H       1  UNL1        0.0655
     54 H           3.6533   -3.5343   -2.5718 H       1  UNL1        0.0647
     55 H          -1.1718   -6.4831    1.3398 H       1  UNL1        0.0660
     56 H          -0.1126   -5.2744    0.5588 H       1  UNL1        0.0660
     57 H          -0.7802   -6.5715   -0.4569 H       1  UNL1        0.0660
     58 H          -3.9912   -3.2795   -0.4403 H       1  UNL1        0.0671
     59 H          -3.6954   -0.8154   -0.4192 H       1  UNL1        0.0626
     60 H          -3.6613    0.6823    1.7531 H       1  UNL1        0.0626
     61 H          -6.0671    1.3396    1.9904 H       1  UNL1        0.0654
@<TRIPOS>BOND
     1     1     2    1
     2     2     3    1
     3     3     4   ar
     4     4     5   ar
     5     5     6   ar
     6     6     7    1
     7     7     8    2
     8     7     9    1
     9     9    10   ar
    10    10    11    1
    11    10    12   ar
    12    12    13    1
    13    13    14    1
    14    14    15   ar
    15    15    16   ar
    16    16    17    1
    17    17    18    1
    18    18    19    1
    19    18    20    1
    20    20    21    2
    21    20    22    1
    22    16    23   ar
    23    23    24   ar
    24    24    25   ar
    25    25    26    1
    26    12    27   ar
    27    27    28   ar
    28    28    29   ar
    29    29    30    1
    30    30    31    1
    31    29    32   ar
    32    32    33   ar
    33    33    34   ar
    34     6    35   ar
    35    35    36   ar
    36    36     3   ar
    37    34     9   ar
    38    25    14   ar
    39    34    27   ar
    40     1    37    1
    41     1    38    1
    42     1    39    1
    43     4    40    1
    44     5    41    1
    45    11    42    1
    46    11    43    1
    47    11    44    1
    48    13    45    1
    49    13    46    1
    50    15    47    1
    51    18    48    1
    52    19    49    1
    53    19    50    1
    54    19    51    1
    55    22    52    1
    56    23    53    1
    57    24    54    1
    58    31    55    1
    59    31    56    1
    60    31    57    1
    61    32    58    1
    62    33    59    1
    63    35    60    1
    64    36    61    1
