@<TRIPOS>MOLECULE
*****
 50 54 0 0 0
SMALL
GASTEIGER

@<TRIPOS>ATOM
      1 O           3.5153   -2.0452    0.9080 O.2     1  UNL1       -0.2699
      2 C           3.6507   -0.9572    0.2746 C.2     1  UNL1        0.2483
      3 N           2.5664   -0.0675    0.2411 N.am    1  UNL1       -0.2815
      4 C           1.3009   -0.2454    0.8487 C.ar    1  UNL1        0.0343
      5 C           0.9363   -1.3397    1.5784 C.ar    1  UNL1       -0.0404
      6 C          -0.3533   -1.3682    2.1164 C.ar    1  UNL1       -0.0594
      7 C          -1.2460   -0.3362    1.9295 C.ar    1  UNL1       -0.0524
      8 C          -0.8991    0.7787    1.1959 C.ar    1  UNL1        0.0023
      9 C          -1.8120    1.8939    0.9730 C.ar    1  UNL1        0.0763
     10 C          -1.3954    3.2155    1.1108 C.ar    1  UNL1       -0.0174
     11 C          -2.2907    4.2416    0.8908 C.ar    1  UNL1        0.0320
     12 N          -3.5648    3.9822    0.5439 N.ar    1  UNL1       -0.2360
     13 C          -3.9485    2.6825    0.4155 C.ar    1  UNL1        0.1566
     14 C          -5.1513    2.0805    0.0810 C.ar    1  UNL1        0.0102
     15 C          -4.9910    0.7119    0.0971 C.ar    1  UNL1        0.0954
     16 C          -6.0273   -0.2885   -0.2005 C.ar    1  UNL1        0.0050
     17 C          -7.3072    0.0954   -0.5363 C.ar    1  UNL1       -0.0344
     18 C          -8.2515   -0.8852   -0.8088 C.ar    1  UNL1        0.0282
     19 N          -7.9525   -2.2040   -0.7545 N.ar    1  UNL1       -0.2632
     20 C          -6.7014   -2.6121   -0.4269 C.ar    1  UNL1        0.0282
     21 C          -5.7622   -1.6396   -0.1559 C.ar    1  UNL1       -0.0344
     22 N          -3.7088    0.4981    0.4368 N.ar    1  UNL1       -0.1644
     23 N          -3.0851    1.6634    0.6270 N.ar    1  UNL1       -0.2135
     24 C           0.3708    0.7945    0.6728 C.ar    1  UNL1       -0.0313
     25 C           4.9402   -0.6829   -0.3940 C.ar    1  UNL1        0.0376
     26 C           5.1588    0.4695   -1.0955 C.ar    1  UNL1       -0.0496
     27 C           6.3867    0.7209   -1.7269 C.ar    1  UNL1       -0.0605
     28 C           7.4035   -0.2016   -1.6485 C.ar    1  UNL1       -0.0501
     29 C           7.1834   -1.3719   -0.9369 C.ar    1  UNL1        0.0555
     30 C           8.2960   -2.3501   -0.8676 C.3     1  UNL1        0.4174
     31 F           9.0616   -2.0626    0.2631 F       1  UNL1       -0.1659
     32 F           7.8429   -3.6397   -0.7494 F       1  UNL1       -0.1659
     33 F           9.1014   -2.2379   -1.9770 F       1  UNL1       -0.1659
     34 C           5.9707   -1.6022   -0.3228 C.ar    1  UNL1       -0.0380
     35 H           2.7507    0.8347   -0.3133 H       1  UNL1        0.1551
     36 H           1.5837   -2.1766    1.7611 H       1  UNL1        0.0636
     37 H          -0.6086   -2.2493    2.6884 H       1  UNL1        0.0618
     38 H          -2.2391   -0.3766    2.3535 H       1  UNL1        0.0624
     39 H          -0.3776    3.4480    1.3883 H       1  UNL1        0.0654
     40 H          -1.9906    5.2815    0.9917 H       1  UNL1        0.0831
     41 H          -6.0479    2.6464   -0.1483 H       1  UNL1        0.0677
     42 H          -7.5654    1.1369   -0.5851 H       1  UNL1        0.0639
     43 H          -9.2668   -0.5865   -1.0753 H       1  UNL1        0.0830
     44 H          -6.4804   -3.6782   -0.3886 H       1  UNL1        0.0830
     45 H          -4.7666   -1.9711    0.1046 H       1  UNL1        0.0639
     46 H           0.6513    1.6777    0.0894 H       1  UNL1        0.0643
     47 H           4.4250    1.2399   -1.2077 H       1  UNL1        0.0625
     48 H           6.5334    1.6362   -2.2731 H       1  UNL1        0.0618
     49 H           8.3629   -0.0364   -2.1252 H       1  UNL1        0.0623
     50 H           5.7984   -2.5177    0.2339 H       1  UNL1        0.0631
@<TRIPOS>BOND
     1     1     2    2
     2     2     3   am
     3     3     4    1
     4     4     5   ar
     5     5     6   ar
     6     6     7   ar
     7     7     8   ar
     8     8     9    1
     9     9    10   ar
    10    10    11   ar
    11    11    12   ar
    12    12    13   ar
    13    13    14   ar
    14    14    15   ar
    15    15    16    1
    16    16    17   ar
    17    17    18   ar
    18    18    19   ar
    19    19    20   ar
    20    20    21   ar
    21    15    22   ar
    22    22    23   ar
    23     8    24   ar
    24     2    25    1
    25    25    26   ar
    26    26    27   ar
    27    27    28   ar
    28    28    29   ar
    29    29    30    1
    30    30    31    1
    31    30    32    1
    32    30    33    1
    33    29    34   ar
    34    24     4   ar
    35    34    25   ar
    36    23     9   ar
    37    23    13   ar
    38    21    16   ar
    39     3    35    1
    40     5    36    1
    41     6    37    1
    42     7    38    1
    43    10    39    1
    44    11    40    1
    45    14    41    1
    46    17    42    1
    47    18    43    1
    48    20    44    1
    49    21    45    1
    50    24    46    1
    51    26    47    1
    52    27    48    1
    53    28    49    1
    54    34    50    1
