@<TRIPOS>MOLECULE
*****
 45 47 0 0 0
SMALL
GASTEIGER

@<TRIPOS>ATOM
      1 C           3.4515   -4.0659    0.6026 C.3     1  UNL1       -0.0307
      2 C           2.4109   -3.8022   -0.4473 C.3     1  UNL1        0.0868
      3 O           1.6367   -2.6717   -0.2579 O.3     1  UNL1       -0.4915
      4 C           2.0261   -1.3555   -0.1882 C.ar    1  UNL1        0.1311
      5 C           3.3947   -1.1407   -0.3383 C.ar    1  UNL1       -0.0185
      6 C           3.8799    0.1362   -0.2863 C.ar    1  UNL1       -0.0461
      7 C           3.0294    1.2033   -0.0880 C.ar    1  UNL1        0.0396
      8 C           3.5608    2.5364   -0.0312 C.2     1  UNL1        0.2665
      9 O           4.8085    2.7492   -0.1743 O.2     1  UNL1       -0.2681
     10 N           2.7335    3.6556    0.1831 N.am    1  UNL1       -0.1935
     11 O           3.2674    4.9260    0.2343 O.3     1  UNL1       -0.2949
     12 C           1.6869    0.9707    0.0570 C.ar    1  UNL1       -0.0354
     13 C           1.1506   -0.3305    0.0096 C.ar    1  UNL1        0.0597
     14 C          -0.2866   -0.5068    0.1955 C.ar    1  UNL1        0.1451
     15 N          -1.0728    0.6222    0.2321 N.ar    1  UNL1       -0.2254
     16 C          -2.3949    0.5836    0.3727 C.ar    1  UNL1        0.1192
     17 C          -3.4156    1.5059    0.4400 C.ar    1  UNL1        0.0889
     18 C          -3.2010    2.9686    0.3532 C.3     1  UNL1       -0.0094
     19 C          -2.9260    3.3857   -1.0957 C.3     1  UNL1       -0.0597
     20 N          -4.5600    0.8605    0.5859 N.ar    1  UNL1       -0.1736
     21 N          -4.3571   -0.4603    0.6201 N.ar    1  UNL1       -0.2598
     22 C          -5.3356   -1.5101    0.7676 C.3     1  UNL1        0.0311
     23 C          -3.0301   -0.6535    0.4902 C.ar    1  UNL1        0.1513
     24 C          -2.2383   -1.7724    0.4528 C.ar    1  UNL1        0.2775
     25 O          -2.7540   -2.9146    0.5538 O.2     1  UNL1       -0.2655
     26 N          -0.8734   -1.6958    0.3062 N.ar    1  UNL1       -0.3051
     27 H           3.1718   -5.0175    1.1378 H       1  UNL1        0.0262
     28 H           4.4272   -4.2368    0.1321 H       1  UNL1        0.0262
     29 H           3.4848   -3.2681    1.3920 H       1  UNL1        0.0262
     30 H           1.7540   -4.7217   -0.5111 H       1  UNL1        0.0694
     31 H           2.9301   -3.7651   -1.4392 H       1  UNL1        0.0694
     32 H           4.0885   -1.9689   -0.5028 H       1  UNL1        0.0654
     33 H           4.9457    0.3466   -0.3986 H       1  UNL1        0.0626
     34 H           1.7080    3.5969    0.3111 H       1  UNL1        0.1825
     35 H           4.2155    4.8100    0.4345 H       1  UNL1        0.2414
     36 H           0.9675    1.7617    0.2155 H       1  UNL1        0.0633
     37 H          -4.1294    3.5069    0.6471 H       1  UNL1        0.0327
     38 H          -2.3595    3.3141    0.9994 H       1  UNL1        0.0327
     39 H          -2.7017    2.4503   -1.6472 H       1  UNL1        0.0233
     40 H          -2.0461    4.0338   -1.1820 H       1  UNL1        0.0233
     41 H          -3.8416    3.8092   -1.5707 H       1  UNL1        0.0233
     42 H          -6.3285   -1.0305    0.9912 H       1  UNL1        0.0473
     43 H          -5.5066   -2.0530   -0.1995 H       1  UNL1        0.0473
     44 H          -5.0277   -2.1979    1.5566 H       1  UNL1        0.0473
     45 H          -0.3436   -2.5941    0.2967 H       1  UNL1        0.1704
@<TRIPOS>BOND
     1     1     2    1
     2     2     3    1
     3     3     4    1
     4     4     5   ar
     5     5     6   ar
     6     6     7   ar
     7     7     8    1
     8     8     9    2
     9     8    10   am
    10    10    11    1
    11     7    12   ar
    12    12    13   ar
    13    13    14    1
    14    14    15   ar
    15    15    16   ar
    16    16    17   ar
    17    17    18    1
    18    18    19    1
    19    17    20   ar
    20    20    21   ar
    21    21    22    1
    22    21    23   ar
    23    23    24   ar
    24    24    25    2
    25    24    26   ar
    26    13     4   ar
    27    26    14   ar
    28    23    16   ar
    29     1    27    1
    30     1    28    1
    31     1    29    1
    32     2    30    1
    33     2    31    1
    34     5    32    1
    35     6    33    1
    36    10    34    1
    37    11    35    1
    38    12    36    1
    39    18    37    1
    40    18    38    1
    41    19    39    1
    42    19    40    1
    43    19    41    1
    44    22    42    1
    45    22    43    1
    46    22    44    1
    47    26    45    1
