@<TRIPOS>MOLECULE
*****
 41 44 0 0 0
SMALL
GASTEIGER

@<TRIPOS>ATOM
      1 N          -5.4698   -1.7445    0.6693 N.pl3   1  UNL1       -0.3414
      2 C          -4.1515   -1.6441    0.1659 C.ar    1  UNL1        0.1442
      3 N          -3.5723   -2.7109   -0.4610 N.ar    1  UNL1       -0.2173
      4 C          -2.3250   -2.6486   -0.9491 C.ar    1  UNL1        0.1388
      5 N          -1.6251   -1.5175   -0.8226 N.ar    1  UNL1       -0.1543
      6 N          -2.1341   -0.4325   -0.2178 N.ar    1  UNL1       -0.2269
      7 C          -1.5861    0.7773   -0.0002 C.ar    1  UNL1        0.0740
      8 C          -0.2337    1.2229   -0.3913 C.ar    1  UNL1        0.0022
      9 C          -0.0917    2.4591   -0.9698 C.ar    1  UNL1       -0.0525
     10 C           1.1576    2.8895   -1.3394 C.ar    1  UNL1       -0.0594
     11 C           2.2571    2.0531   -1.1155 C.ar    1  UNL1       -0.0402
     12 C           2.1298    0.8292   -0.5448 C.ar    1  UNL1        0.0370
     13 N           3.2067   -0.0280   -0.3182 N.am    1  UNL1       -0.2673
     14 C           3.0426   -1.3253    0.3622 C.3     1  UNL1        0.0433
     15 C           4.3857   -2.0159    0.2524 C.3     1  UNL1        0.0644
     16 O           5.3948   -1.2716    0.8608 O.3     1  UNL1       -0.3690
     17 C           5.6463   -0.0855    0.2006 C.3     1  UNL1        0.1242
     18 C           4.5310    0.2860   -0.7217 C.2     1  UNL1        0.2456
     19 O           4.7495    0.8673   -1.8408 O.2     1  UNL1       -0.2727
     20 C           0.8682    0.4128   -0.1797 C.ar    1  UNL1       -0.0311
     21 C          -2.5518    1.5013    0.6598 C.ar    1  UNL1       -0.0219
     22 C          -3.6923    0.7354    0.8470 C.ar    1  UNL1        0.0855
     23 C          -4.9510    1.1554    1.5156 C.3     1  UNL1        0.4195
     24 F          -4.7886    2.4789    1.9334 F       1  UNL1       -0.1658
     25 F          -5.9996    1.1892    0.5924 F       1  UNL1       -0.1658
     26 F          -5.2190    0.3537    2.5889 F       1  UNL1       -0.1658
     27 C          -3.3870   -0.4852    0.2761 C.ar    1  UNL1        0.1171
     28 H          -5.6118   -2.1272    1.6229 H       1  UNL1        0.1438
     29 H          -6.2754   -1.4392    0.0864 H       1  UNL1        0.1438
     30 H          -1.8985   -3.5124   -1.4393 H       1  UNL1        0.1066
     31 H          -0.9518    3.0828   -1.1312 H       1  UNL1        0.0624
     32 H           1.3115    3.8756   -1.8066 H       1  UNL1        0.0618
     33 H           3.2014    2.4667   -1.4284 H       1  UNL1        0.0636
     34 H           2.7485   -1.1616    1.4028 H       1  UNL1        0.0491
     35 H           2.3120   -1.9583   -0.1801 H       1  UNL1        0.0491
     36 H           4.3360   -2.9848    0.7871 H       1  UNL1        0.0576
     37 H           4.6267   -2.1468   -0.8147 H       1  UNL1        0.0576
     38 H           6.6223   -0.1067   -0.3530 H       1  UNL1        0.0657
     39 H           5.7451    0.7350    0.9396 H       1  UNL1        0.0657
     40 H           0.6734   -0.5436    0.2798 H       1  UNL1        0.0643
     41 H          -2.4300    2.5191    0.9818 H       1  UNL1        0.0645
@<TRIPOS>BOND
     1     1     2    1
     2     2     3   ar
     3     3     4   ar
     4     4     5   ar
     5     5     6   ar
     6     6     7   ar
     7     7     8    1
     8     8     9   ar
     9     9    10   ar
    10    10    11   ar
    11    11    12   ar
    12    12    13    1
    13    13    14    1
    14    14    15    1
    15    15    16    1
    16    16    17    1
    17    17    18    1
    18    18    19    2
    19    12    20   ar
    20     7    21   ar
    21    21    22   ar
    22    22    23    1
    23    23    24    1
    24    23    25    1
    25    23    26    1
    26    22    27   ar
    27    27     2   ar
    28    27     6   ar
    29    20     8   ar
    30    18    13   am
    31     1    28    1
    32     1    29    1
    33     4    30    1
    34     9    31    1
    35    10    32    1
    36    11    33    1
    37    14    34    1
    38    14    35    1
    39    15    36    1
    40    15    37    1
    41    17    38    1
    42    17    39    1
    43    20    40    1
    44    21    41    1
