
     RDKit          3D

 41 44  0  0  0  0  0  0  0  0999 V2000
   -5.4698   -1.7445    0.6693 N   0  0  0  0  0  0  0  0  0  0  0  0
   -4.1515   -1.6441    0.1659 C   0  0  0  0  0  0  0  0  0  0  0  0
   -3.5723   -2.7109   -0.4610 N   0  0  0  0  0  0  0  0  0  0  0  0
   -2.3250   -2.6486   -0.9491 C   0  0  0  0  0  0  0  0  0  0  0  0
   -1.6251   -1.5175   -0.8226 N   0  0  0  0  0  0  0  0  0  0  0  0
   -2.1341   -0.4325   -0.2178 N   0  0  0  0  0  0  0  0  0  0  0  0
   -1.5861    0.7773   -0.0002 C   0  0  0  0  0  0  0  0  0  0  0  0
   -0.2337    1.2229   -0.3913 C   0  0  0  0  0  0  0  0  0  0  0  0
   -0.0917    2.4591   -0.9698 C   0  0  0  0  0  0  0  0  0  0  0  0
    1.1576    2.8895   -1.3394 C   0  0  0  0  0  0  0  0  0  0  0  0
    2.2571    2.0531   -1.1155 C   0  0  0  0  0  0  0  0  0  0  0  0
    2.1298    0.8292   -0.5448 C   0  0  0  0  0  0  0  0  0  0  0  0
    3.2067   -0.0280   -0.3182 N   0  0  0  0  0  0  0  0  0  0  0  0
    3.0426   -1.3253    0.3622 C   0  0  0  0  0  0  0  0  0  0  0  0
    4.3857   -2.0159    0.2524 C   0  0  0  0  0  0  0  0  0  0  0  0
    5.3948   -1.2716    0.8608 O   0  0  0  0  0  0  0  0  0  0  0  0
    5.6463   -0.0855    0.2006 C   0  0  0  0  0  0  0  0  0  0  0  0
    4.5310    0.2860   -0.7217 C   0  0  0  0  0  0  0  0  0  0  0  0
    4.7495    0.8673   -1.8408 O   0  0  0  0  0  0  0  0  0  0  0  0
    0.8682    0.4128   -0.1797 C   0  0  0  0  0  0  0  0  0  0  0  0
   -2.5518    1.5013    0.6598 C   0  0  0  0  0  0  0  0  0  0  0  0
   -3.6923    0.7354    0.8470 C   0  0  0  0  0  0  0  0  0  0  0  0
   -4.9510    1.1554    1.5156 C   0  0  0  0  0  0  0  0  0  0  0  0
   -4.7886    2.4789    1.9334 F   0  0  0  0  0  0  0  0  0  0  0  0
   -5.9996    1.1892    0.5924 F   0  0  0  0  0  0  0  0  0  0  0  0
   -5.2190    0.3537    2.5889 F   0  0  0  0  0  0  0  0  0  0  0  0
   -3.3870   -0.4852    0.2761 C   0  0  0  0  0  0  0  0  0  0  0  0
   -5.6118   -2.1272    1.6229 H   0  0  0  0  0  0  0  0  0  0  0  0
   -6.2754   -1.4392    0.0864 H   0  0  0  0  0  0  0  0  0  0  0  0
   -1.8985   -3.5124   -1.4393 H   0  0  0  0  0  0  0  0  0  0  0  0
   -0.9518    3.0828   -1.1312 H   0  0  0  0  0  0  0  0  0  0  0  0
    1.3115    3.8756   -1.8066 H   0  0  0  0  0  0  0  0  0  0  0  0
    3.2014    2.4667   -1.4284 H   0  0  0  0  0  0  0  0  0  0  0  0
    2.7485   -1.1616    1.4028 H   0  0  0  0  0  0  0  0  0  0  0  0
    2.3120   -1.9583   -0.1801 H   0  0  0  0  0  0  0  0  0  0  0  0
    4.3360   -2.9848    0.7871 H   0  0  0  0  0  0  0  0  0  0  0  0
    4.6267   -2.1468   -0.8147 H   0  0  0  0  0  0  0  0  0  0  0  0
    6.6223   -0.1067   -0.3530 H   0  0  0  0  0  0  0  0  0  0  0  0
    5.7451    0.7350    0.9396 H   0  0  0  0  0  0  0  0  0  0  0  0
    0.6734   -0.5436    0.2798 H   0  0  0  0  0  0  0  0  0  0  0  0
   -2.4300    2.5191    0.9818 H   0  0  0  0  0  0  0  0  0  0  0  0
  1  2  1  0
  2  3  2  0
  3  4  1  0
  4  5  2  0
  5  6  1  0
  6  7  1  0
  7  8  1  0
  8  9  2  0
  9 10  1  0
 10 11  2  0
 11 12  1  0
 12 13  1  0
 13 14  1  0
 14 15  1  0
 15 16  1  0
 16 17  1  0
 17 18  1  0
 18 19  2  0
 12 20  2  0
  7 21  2  0
 21 22  1  0
 22 23  1  0
 23 24  1  0
 23 25  1  0
 23 26  1  0
 22 27  2  0
 27  2  1  0
 27  6  1  0
 20  8  1  0
 18 13  1  0
  1 28  1  0
  1 29  1  0
  4 30  1  0
  9 31  1  0
 10 32  1  0
 11 33  1  0
 14 34  1  0
 14 35  1  0
 15 36  1  0
 15 37  1  0
 17 38  1  0
 17 39  1  0
 20 40  1  0
 21 41  1  0
M  END
$$$$
