
     RDKit          3D

 41 44  0  0  0  0  0  0  0  0999 V2000
   -2.6516   -3.8721   -1.2609 N   0  0  0  0  0  0  0  0  0  0  0  0
   -3.3699   -3.2613   -0.2197 C   0  0  0  0  0  0  0  0  0  0  0  0
   -4.4165   -3.8078    0.2022 O   0  0  0  0  0  0  0  0  0  0  0  0
   -2.8772   -2.0019    0.3458 C   0  0  0  0  0  0  0  0  0  0  0  0
   -3.5443   -1.3722    1.3604 C   0  0  0  0  0  0  0  0  0  0  0  0
   -3.0968   -0.1961    1.8986 C   0  0  0  0  0  0  0  0  0  0  0  0
   -3.9213    0.6232    3.1839 Cl  0  0  0  0  0  0  0  0  0  0  0  0
   -1.9197    0.3485    1.3706 C   0  0  0  0  0  0  0  0  0  0  0  0
   -1.2029    1.4870    1.6640 C   0  0  0  0  0  0  0  0  0  0  0  0
   -1.6990    2.6048    2.9292 Cl  0  0  0  0  0  0  0  0  0  0  0  0
   -0.1208    1.5202    0.8214 C   0  0  0  0  0  0  0  0  0  0  0  0
    0.9017    2.5934    0.8066 C   0  0  0  0  0  0  0  0  0  0  0  0
    0.9285    3.7033   -0.1376 C   0  0  0  0  0  0  0  0  0  0  0  0
    0.2885    3.9764    1.1460 C   0  0  0  0  0  0  0  0  0  0  0  0
   -0.1522    0.4500    0.0312 N   0  0  0  0  0  0  0  0  0  0  0  0
    0.7276    0.0208   -1.0008 C   0  0  2  0  0  0  0  0  0  0  0  0
    1.1852   -1.3982   -0.6279 C   0  0  0  0  0  0  0  0  0  0  0  0
    2.5990   -1.2913   -0.0400 C   0  0  0  0  0  0  0  0  0  0  0  0
    3.5312   -0.9849   -1.1683 C   0  0  0  0  0  0  0  0  0  0  0  0
    2.9192    0.0113   -2.0154 N   0  0  0  0  0  0  0  0  0  0  0  0
    1.9428    0.8159   -1.2507 C   0  0  0  0  0  0  0  0  0  0  0  0
   -1.2459   -0.2712    0.3583 C   0  0  0  0  0  0  0  0  0  0  0  0
   -1.7558   -1.4438   -0.1272 N   0  0  0  0  0  0  0  0  0  0  0  0
   -3.1714   -4.4304   -1.9695 H   0  0  0  0  0  0  0  0  0  0  0  0
   -1.6241   -3.7620   -1.3123 H   0  0  0  0  0  0  0  0  0  0  0  0
   -4.4420   -1.8278    1.7323 H   0  0  0  0  0  0  0  0  0  0  0  0
    1.7416    2.3706    1.5280 H   0  0  0  0  0  0  0  0  0  0  0  0
    1.9420    4.1689   -0.2989 H   0  0  0  0  0  0  0  0  0  0  0  0
    0.3868    3.5926   -1.0953 H   0  0  0  0  0  0  0  0  0  0  0  0
   -0.8110    4.0851    1.1090 H   0  0  0  0  0  0  0  0  0  0  0  0
    0.7715    4.6110    1.8834 H   0  0  0  0  0  0  0  0  0  0  0  0
    0.1227   -0.1132   -1.9214 H   0  0  0  0  0  0  0  0  0  0  0  0
    0.5698   -1.8437    0.1515 H   0  0  0  0  0  0  0  0  0  0  0  0
    1.2354   -2.0432   -1.5128 H   0  0  0  0  0  0  0  0  0  0  0  0
    2.6176   -0.5433    0.7616 H   0  0  0  0  0  0  0  0  0  0  0  0
    2.8235   -2.2935    0.4209 H   0  0  0  0  0  0  0  0  0  0  0  0
    4.5347   -0.6571   -0.8058 H   0  0  0  0  0  0  0  0  0  0  0  0
    3.6876   -1.8949   -1.7815 H   0  0  0  0  0  0  0  0  0  0  0  0
    2.3962   -0.4607   -2.7862 H   0  0  0  0  0  0  0  0  0  0  0  0
    2.4932    1.1602   -0.3823 H   0  0  0  0  0  0  0  0  0  0  0  0
    1.6760    1.6276   -1.9903 H   0  0  0  0  0  0  0  0  0  0  0  0
  1  2  1  0
  2  3  2  0
  2  4  1  0
  4  5  2  0
  5  6  1  0
  6  7  1  0
  6  8  2  0
  8  9  1  0
  9 10  1  0
  9 11  2  0
 11 12  1  0
 12 13  1  0
 13 14  1  0
 11 15  1  0
 15 16  1  0
 16 17  1  0
 17 18  1  0
 18 19  1  0
 19 20  1  0
 20 21  1  0
 15 22  1  0
 22 23  2  0
 23  4  1  0
 22  8  1  0
 14 12  1  0
 21 16  1  0
  1 24  1  0
  1 25  1  0
  5 26  1  0
 12 27  1  0
 13 28  1  0
 13 29  1  0
 14 30  1  0
 14 31  1  0
 16 32  1  6
 17 33  1  0
 17 34  1  0
 18 35  1  0
 18 36  1  0
 19 37  1  0
 19 38  1  0
 20 39  1  0
 21 40  1  0
 21 41  1  0
M  END
$$$$
