@<TRIPOS>MOLECULE
*****
 41 44 0 0 0
SMALL
GASTEIGER

@<TRIPOS>ATOM
      1 N          -2.6516   -3.8721   -1.2609 N.am    1  UNL1       -0.3241
      2 C          -3.3699   -3.2613   -0.2197 C.2     1  UNL1        0.2600
      3 O          -4.4165   -3.8078    0.2022 O.2     1  UNL1       -0.2687
      4 C          -2.8772   -2.0019    0.3458 C.ar    1  UNL1        0.1289
      5 C          -3.5443   -1.3722    1.3604 C.ar    1  UNL1       -0.0121
      6 C          -3.0968   -0.1961    1.8986 C.ar    1  UNL1        0.0552
      7 CL         -3.9213    0.6232    3.1839 Cl      1  UNL1       -0.0827
      8 C          -1.9197    0.3485    1.3706 C.ar    1  UNL1        0.0558
      9 C          -1.2029    1.4870    1.6640 C.ar    1  UNL1        0.0726
     10 CL         -1.6990    2.6048    2.9292 Cl      1  UNL1       -0.0810
     11 C          -0.1208    1.5202    0.8214 C.ar    1  UNL1        0.0430
     12 C           0.9017    2.5934    0.8066 C.3     1  UNL1        0.0010
     13 C           0.9285    3.7033   -0.1376 C.3     1  UNL1       -0.0442
     14 C           0.2885    3.9764    1.1460 C.3     1  UNL1       -0.0442
     15 N          -0.1522    0.4500    0.0312 N.ar    1  UNL1       -0.3230
     16 C           0.7276    0.0208   -1.0008 C.3     1  UNL1        0.0487
     17 C           1.1852   -1.3982   -0.6279 C.3     1  UNL1       -0.0297
     18 C           2.5990   -1.2913   -0.0400 C.3     1  UNL1       -0.0385
     19 C           3.5312   -0.9849   -1.1683 C.3     1  UNL1       -0.0040
     20 N           2.9192    0.0113   -2.0154 N.3     1  UNL1       -0.3140
     21 C           1.9428    0.8159   -1.2507 C.3     1  UNL1        0.0168
     22 C          -1.2459   -0.2712    0.3583 C.ar    1  UNL1        0.1449
     23 N          -1.7558   -1.4438   -0.1272 N.ar    1  UNL1       -0.2243
     24 H          -3.1714   -4.4304   -1.9695 H       1  UNL1        0.1453
     25 H          -1.6241   -3.7620   -1.3123 H       1  UNL1        0.1453
     26 H          -4.4420   -1.8278    1.7323 H       1  UNL1        0.0655
     27 H           1.7416    2.3706    1.5280 H       1  UNL1        0.0364
     28 H           1.9420    4.1689   -0.2989 H       1  UNL1        0.0272
     29 H           0.3868    3.5926   -1.0953 H       1  UNL1        0.0272
     30 H          -0.8110    4.0851    1.1090 H       1  UNL1        0.0272
     31 H           0.7715    4.6110    1.8834 H       1  UNL1        0.0272
     32 H           0.1227   -0.1132   -1.9214 H       1  UNL1        0.0541
     33 H           0.5698   -1.8437    0.1515 H       1  UNL1        0.0286
     34 H           1.2354   -2.0432   -1.5128 H       1  UNL1        0.0286
     35 H           2.6176   -0.5433    0.7616 H       1  UNL1        0.0278
     36 H           2.8235   -2.2935    0.4209 H       1  UNL1        0.0278
     37 H           4.5347   -0.6571   -0.8058 H       1  UNL1        0.0424
     38 H           3.6876   -1.8949   -1.7815 H       1  UNL1        0.0424
     39 H           2.3962   -0.4607   -2.7862 H       1  UNL1        0.1220
     40 H           2.4932    1.1602   -0.3823 H       1  UNL1        0.0444
     41 H           1.6760    1.6276   -1.9903 H       1  UNL1        0.0444
@<TRIPOS>BOND
     1     1     2   am
     2     2     3    2
     3     2     4    1
     4     4     5   ar
     5     5     6   ar
     6     6     7    1
     7     6     8   ar
     8     8     9   ar
     9     9    10    1
    10     9    11   ar
    11    11    12    1
    12    12    13    1
    13    13    14    1
    14    11    15   ar
    15    15    16    1
    16    16    17    1
    17    17    18    1
    18    18    19    1
    19    19    20    1
    20    20    21    1
    21    15    22   ar
    22    22    23   ar
    23    23     4   ar
    24    22     8   ar
    25    14    12    1
    26    21    16    1
    27     1    24    1
    28     1    25    1
    29     5    26    1
    30    12    27    1
    31    13    28    1
    32    13    29    1
    33    14    30    1
    34    14    31    1
    35    16    32    1
    36    17    33    1
    37    17    34    1
    38    18    35    1
    39    18    36    1
    40    19    37    1
    41    19    38    1
    42    20    39    1
    43    21    40    1
    44    21    41    1
