
     RDKit          3D

 47 50  0  0  0  0  0  0  0  0999 V2000
   -4.7944    1.9925    1.2092 C   0  0  0  0  0  0  0  0  0  0  0  0
   -5.7878    1.3780    0.3808 N   0  0  0  0  0  0  0  0  0  0  0  0
   -6.5572    0.3540    1.0276 C   0  0  0  0  0  0  0  0  0  0  0  0
   -5.1086    0.8069   -1.0732 S   0  0  0  0  0  6  0  0  0  0  0  0
   -4.5750    1.9707   -1.8450 O   0  0  0  0  0  0  0  0  0  0  0  0
   -6.1940    0.1653   -1.8899 O   0  0  0  0  0  0  0  0  0  0  0  0
   -3.8830   -0.4215   -0.8094 C   0  0  0  0  0  0  0  0  0  0  0  0
   -4.1639   -1.7698   -0.7577 C   0  0  0  0  0  0  0  0  0  0  0  0
   -3.1805   -2.7224   -0.5479 C   0  0  0  0  0  0  0  0  0  0  0  0
   -1.8612   -2.3179   -0.3825 C   0  0  0  0  0  0  0  0  0  0  0  0
   -1.5429   -0.9774   -0.4282 C   0  0  0  0  0  0  0  0  0  0  0  0
   -2.5524   -0.0538   -0.6398 C   0  0  0  0  0  0  0  0  0  0  0  0
   -0.0998   -0.8166   -0.2271 C   0  0  0  0  0  0  0  0  0  0  0  0
    0.5600    0.3188   -0.2398 C   0  0  0  0  0  0  0  0  0  0  0  0
    1.9944    0.4290   -0.0289 C   0  0  0  0  0  0  0  0  0  0  0  0
    2.7491   -0.0946    0.9887 C   0  0  0  0  0  0  0  0  0  0  0  0
    4.0626    0.2945    0.6915 C   0  0  0  0  0  0  0  0  0  0  0  0
    4.1026    1.0223   -0.4540 C   0  0  0  0  0  0  0  0  0  0  0  0
    2.8020    1.0915   -0.8824 N   0  0  0  0  0  0  0  0  0  0  0  0
    5.3544    1.5796   -1.0262 C   0  0  0  0  0  0  0  0  0  0  0  0
    6.5732    0.9121   -0.5198 C   0  0  0  0  0  0  0  0  0  0  0  0
    6.3709   -0.2673    0.3679 C   0  0  0  0  0  0  0  0  0  0  0  0
    5.3247    0.0107    1.4481 C   0  0  0  0  0  0  0  0  0  0  0  0
    0.4540   -2.1473   -0.0551 C   0  0  0  0  0  0  0  0  0  0  0  0
    1.6507   -2.4724    0.1400 O   0  0  0  0  0  0  0  0  0  0  0  0
   -0.6600   -3.0592   -0.1554 N   0  0  0  0  0  0  0  0  0  0  0  0
   -5.2356    2.8531    1.7834 H   0  0  0  0  0  0  0  0  0  0  0  0
   -4.0379    2.4618    0.5208 H   0  0  0  0  0  0  0  0  0  0  0  0
   -4.2669    1.2859    1.8778 H   0  0  0  0  0  0  0  0  0  0  0  0
   -6.4726   -0.6276    0.4972 H   0  0  0  0  0  0  0  0  0  0  0  0
   -6.2988    0.2330    2.1185 H   0  0  0  0  0  0  0  0  0  0  0  0
   -7.6434    0.6292    0.9287 H   0  0  0  0  0  0  0  0  0  0  0  0
   -5.1839   -2.0989   -0.8853 H   0  0  0  0  0  0  0  0  0  0  0  0
   -3.3815   -3.7777   -0.5047 H   0  0  0  0  0  0  0  0  0  0  0  0
   -2.3257    1.0000   -0.6793 H   0  0  0  0  0  0  0  0  0  0  0  0
   -0.0395    1.2311   -0.4244 H   0  0  0  0  0  0  0  0  0  0  0  0
    2.4810   -0.6638    1.8565 H   0  0  0  0  0  0  0  0  0  0  0  0
    2.5155    1.5929   -1.7477 H   0  0  0  0  0  0  0  0  0  0  0  0
    5.2824    1.6215   -2.1327 H   0  0  0  0  0  0  0  0  0  0  0  0
    5.3826    2.6546   -0.6822 H   0  0  0  0  0  0  0  0  0  0  0  0
    7.2833    1.6139   -0.0156 H   0  0  0  0  0  0  0  0  0  0  0  0
    7.1418    0.5390   -1.4207 H   0  0  0  0  0  0  0  0  0  0  0  0
    6.1123   -1.1517   -0.2323 H   0  0  0  0  0  0  0  0  0  0  0  0
    7.3479   -0.5007    0.8523 H   0  0  0  0  0  0  0  0  0  0  0  0
    5.6526    0.8900    2.0221 H   0  0  0  0  0  0  0  0  0  0  0  0
    5.2411   -0.9039    2.0507 H   0  0  0  0  0  0  0  0  0  0  0  0
   -0.5924   -4.0872   -0.0744 H   0  0  0  0  0  0  0  0  0  0  0  0
  1  2  1  0
  2  3  1  0
  2  4  1  0
  4  5  2  0
  4  6  2  0
  4  7  1  0
  7  8  2  0
  8  9  1  0
  9 10  2  0
 10 11  1  0
 11 12  2  0
 11 13  1  0
 13 14  2  0
 14 15  1  0
 15 16  2  0
 16 17  1  0
 17 18  2  0
 18 19  1  0
 18 20  1  0
 20 21  1  0
 21 22  1  0
 22 23  1  0
 13 24  1  0
 24 25  2  0
 24 26  1  0
 12  7  1  0
 19 15  1  0
 26 10  1  0
 23 17  1  0
  1 27  1  0
  1 28  1  0
  1 29  1  0
  3 30  1  0
  3 31  1  0
  3 32  1  0
  8 33  1  0
  9 34  1  0
 12 35  1  0
 14 36  1  0
 16 37  1  0
 19 38  1  0
 20 39  1  0
 20 40  1  0
 21 41  1  0
 21 42  1  0
 22 43  1  0
 22 44  1  0
 23 45  1  0
 23 46  1  0
 26 47  1  0
M  END
$$$$
