@<TRIPOS>MOLECULE
*****
 47 50 0 0 0
SMALL
GASTEIGER

@<TRIPOS>ATOM
      1 C          -4.7944    1.9925    1.2092 C.3     1  UNL1        0.0086
      2 N          -5.7878    1.3780    0.3808 N.3     1  UNL1       -0.1827
      3 C          -6.5572    0.3540    1.0276 C.3     1  UNL1        0.0086
      4 S          -5.1086    0.8069   -1.0732 S.O2    1  UNL1        0.0604
      5 O          -4.5750    1.9707   -1.8450 O.2     1  UNL1       -0.1529
      6 O          -6.1940    0.1653   -1.8899 O.2     1  UNL1       -0.1529
      7 C          -3.8830   -0.4215   -0.8094 C.ar    1  UNL1        0.1061
      8 C          -4.1639   -1.7698   -0.7577 C.ar    1  UNL1       -0.0336
      9 C          -3.1805   -2.7224   -0.5479 C.ar    1  UNL1       -0.0380
     10 C          -1.8612   -2.3179   -0.3825 C.ar    1  UNL1        0.0417
     11 C          -1.5429   -0.9774   -0.4282 C.ar    1  UNL1        0.0102
     12 C          -2.5524   -0.0538   -0.6398 C.ar    1  UNL1       -0.0257
     13 C          -0.0998   -0.8166   -0.2271 C.2     1  UNL1        0.0479
     14 C           0.5600    0.3188   -0.2398 C.2     1  UNL1       -0.0256
     15 C           1.9944    0.4290   -0.0289 C.ar    1  UNL1        0.0404
     16 C           2.7491   -0.0946    0.9887 C.ar    1  UNL1       -0.0335
     17 C           4.0626    0.2945    0.6915 C.ar    1  UNL1       -0.0263
     18 C           4.1026    1.0223   -0.4540 C.ar    1  UNL1        0.0196
     19 N           2.8020    1.0915   -0.8824 N.ar    1  UNL1       -0.3581
     20 C           5.3544    1.5796   -1.0262 C.3     1  UNL1       -0.0122
     21 C           6.5732    0.9121   -0.5198 C.3     1  UNL1       -0.0474
     22 C           6.3709   -0.2673    0.3679 C.3     1  UNL1       -0.0487
     23 C           5.3247    0.0107    1.4481 C.3     1  UNL1       -0.0260
     24 C           0.4540   -2.1473   -0.0551 C.2     1  UNL1        0.2490
     25 O           1.6507   -2.4724    0.1400 O.2     1  UNL1       -0.2698
     26 N          -0.6600   -3.0592   -0.1554 N.am    1  UNL1       -0.2809
     27 H          -5.2356    2.8531    1.7834 H       1  UNL1        0.0408
     28 H          -4.0379    2.4618    0.5208 H       1  UNL1        0.0408
     29 H          -4.2669    1.2859    1.8778 H       1  UNL1        0.0408
     30 H          -6.4726   -0.6276    0.4972 H       1  UNL1        0.0408
     31 H          -6.2988    0.2330    2.1185 H       1  UNL1        0.0408
     32 H          -7.6434    0.6292    0.9287 H       1  UNL1        0.0408
     33 H          -5.1839   -2.0989   -0.8853 H       1  UNL1        0.0638
     34 H          -3.3815   -3.7777   -0.5047 H       1  UNL1        0.0637
     35 H          -2.3257    1.0000   -0.6793 H       1  UNL1        0.0644
     36 H          -0.0395    1.2311   -0.4244 H       1  UNL1        0.0646
     37 H           2.4810   -0.6638    1.8565 H       1  UNL1        0.0641
     38 H           2.5155    1.5929   -1.7477 H       1  UNL1        0.1656
     39 H           5.2824    1.6215   -2.1327 H       1  UNL1        0.0328
     40 H           5.3826    2.6546   -0.6822 H       1  UNL1        0.0328
     41 H           7.2833    1.6139   -0.0156 H       1  UNL1        0.0269
     42 H           7.1418    0.5390   -1.4207 H       1  UNL1        0.0269
     43 H           6.1123   -1.1517   -0.2323 H       1  UNL1        0.0269
     44 H           7.3479   -0.5007    0.8523 H       1  UNL1        0.0269
     45 H           5.6526    0.8900    2.0221 H       1  UNL1        0.0314
     46 H           5.2411   -0.9039    2.0507 H       1  UNL1        0.0314
     47 H          -0.5924   -4.0872   -0.0744 H       1  UNL1        0.1552
@<TRIPOS>BOND
     1     1     2    1
     2     2     3    1
     3     2     4    1
     4     4     5    2
     5     4     6    2
     6     4     7    1
     7     7     8   ar
     8     8     9   ar
     9     9    10   ar
    10    10    11   ar
    11    11    12   ar
    12    11    13    1
    13    13    14    2
    14    14    15    1
    15    15    16   ar
    16    16    17   ar
    17    17    18   ar
    18    18    19   ar
    19    18    20    1
    20    20    21    1
    21    21    22    1
    22    22    23    1
    23    13    24    1
    24    24    25    2
    25    24    26   am
    26    12     7   ar
    27    19    15   ar
    28    26    10    1
    29    23    17    1
    30     1    27    1
    31     1    28    1
    32     1    29    1
    33     3    30    1
    34     3    31    1
    35     3    32    1
    36     8    33    1
    37     9    34    1
    38    12    35    1
    39    14    36    1
    40    16    37    1
    41    19    38    1
    42    20    39    1
    43    20    40    1
    44    21    41    1
    45    21    42    1
    46    22    43    1
    47    22    44    1
    48    23    45    1
    49    23    46    1
    50    26    47    1
