@<TRIPOS>MOLECULE
*****
 52 55 0 0 0
SMALL
GASTEIGER

@<TRIPOS>ATOM
      1 C           8.1216   -1.4940   -1.5481 C.3     1  UNL1        0.0790
      2 O           7.3926   -0.7964   -0.5849 O.3     1  UNL1       -0.4914
      3 C           6.0192   -0.6686   -0.5467 C.ar    1  UNL1        0.1635
      4 C           5.3016   -1.2985   -1.5714 C.ar    1  UNL1        0.0098
      5 C           3.9241   -1.2065   -1.5875 C.ar    1  UNL1        0.0782
      6 N           3.2277   -1.8151   -2.5795 N.ar    1  UNL1       -0.2546
      7 C           1.8964   -1.7389   -2.6158 C.ar    1  UNL1        0.0318
      8 C           1.1948   -1.0368   -1.6414 C.ar    1  UNL1       -0.0006
      9 C           1.8851   -0.4020   -0.6106 C.ar    1  UNL1        0.1391
     10 O           1.2559    0.3154    0.3945 O.3     1  UNL1       -0.4553
     11 C          -0.1125    0.4853    0.4832 C.ar    1  UNL1        0.1291
     12 C          -0.9587   -0.3689    1.1542 C.ar    1  UNL1       -0.0187
     13 C          -2.3262   -0.1033    1.1815 C.ar    1  UNL1       -0.0498
     14 C          -2.8705    0.9930    0.5565 C.ar    1  UNL1       -0.0056
     15 C          -4.2246    1.2462    0.5905 C.ar    1  UNL1        0.0444
     16 C          -5.0920    0.3270    1.3064 C.2     1  UNL1        0.2449
     17 O          -4.9791    0.0912    2.5480 O.2     1  UNL1       -0.2702
     18 N          -6.1521   -0.3893    0.6507 N.am    1  UNL1       -0.3027
     19 C          -7.0141   -1.3031    1.3644 C.3     1  UNL1        0.1071
     20 C          -8.0082   -1.8760    0.3786 C.3     1  UNL1        0.4050
     21 F          -8.8729   -2.7686    1.0059 F       1  UNL1       -0.1690
     22 F          -7.3258   -2.5986   -0.5809 F       1  UNL1       -0.1690
     23 F          -8.6991   -0.8832   -0.2728 F       1  UNL1       -0.1690
     24 C          -4.7072    2.3697   -0.0604 C.ar    1  UNL1       -0.0490
     25 C          -3.8888    3.2404   -0.7379 C.ar    1  UNL1       -0.0605
     26 C          -2.5415    2.9854   -0.7697 C.ar    1  UNL1       -0.0539
     27 C          -2.0242    1.8578   -0.1212 C.ar    1  UNL1       -0.0137
     28 C          -0.6748    1.5910   -0.1451 C.ar    1  UNL1       -0.0116
     29 C           3.2535   -0.5055   -0.6110 C.ar    1  UNL1        0.0463
     30 C           3.9861    0.1145    0.4007 C.ar    1  UNL1       -0.0036
     31 C           5.3602    0.0356    0.4357 C.ar    1  UNL1        0.1623
     32 O           6.1049    0.6414    1.4274 O.3     1  UNL1       -0.4914
     33 C           5.5115    1.3884    2.4801 C.3     1  UNL1        0.0790
     34 H           9.1426   -1.7234   -1.1240 H       1  UNL1        0.0660
     35 H           8.2559   -0.7930   -2.4217 H       1  UNL1        0.0660
     36 H           7.6842   -2.4396   -1.8863 H       1  UNL1        0.0660
     37 H           5.7936   -1.8567   -2.3546 H       1  UNL1        0.0677
     38 H           1.3401   -2.2360   -3.4256 H       1  UNL1        0.0831
     39 H           0.1236   -0.9773   -1.6728 H       1  UNL1        0.0670
     40 H          -0.5358   -1.2414    1.6529 H       1  UNL1        0.0654
     41 H          -2.9833   -0.7807    1.7102 H       1  UNL1        0.0625
     42 H          -6.2776   -0.2265   -0.3556 H       1  UNL1        0.1493
     43 H          -7.5617   -0.7766    2.1968 H       1  UNL1        0.0551
     44 H          -6.4588   -2.1195    1.8572 H       1  UNL1        0.0551
     45 H          -5.7538    2.5568   -0.0287 H       1  UNL1        0.0625
     46 H          -4.3288    4.0975   -1.2238 H       1  UNL1        0.0618
     47 H          -1.8606    3.6342   -1.2852 H       1  UNL1        0.0624
     48 H          -0.0416    2.2844   -0.6812 H       1  UNL1        0.0660
     49 H           3.4524    0.6578    1.1565 H       1  UNL1        0.0663
     50 H           6.2634    2.0768    2.9232 H       1  UNL1        0.0660
     51 H           4.7395    2.0472    1.9867 H       1  UNL1        0.0660
     52 H           5.0438    0.7121    3.2027 H       1  UNL1        0.0660
@<TRIPOS>BOND
     1     1     2    1
     2     2     3    1
     3     3     4   ar
     4     4     5   ar
     5     5     6   ar
     6     6     7   ar
     7     7     8   ar
     8     8     9   ar
     9     9    10    1
    10    10    11    1
    11    11    12   ar
    12    12    13   ar
    13    13    14   ar
    14    14    15   ar
    15    15    16    1
    16    16    17    2
    17    16    18   am
    18    18    19    1
    19    19    20    1
    20    20    21    1
    21    20    22    1
    22    20    23    1
    23    15    24   ar
    24    24    25   ar
    25    25    26   ar
    26    26    27   ar
    27    27    28   ar
    28     9    29   ar
    29    29    30   ar
    30    30    31   ar
    31    31    32    1
    32    32    33    1
    33    31     3   ar
    34    29     5   ar
    35    28    11   ar
    36    27    14   ar
    37     1    34    1
    38     1    35    1
    39     1    36    1
    40     4    37    1
    41     7    38    1
    42     8    39    1
    43    12    40    1
    44    13    41    1
    45    18    42    1
    46    19    43    1
    47    19    44    1
    48    24    45    1
    49    25    46    1
    50    26    47    1
    51    28    48    1
    52    30    49    1
    53    33    50    1
    54    33    51    1
    55    33    52    1
