
     RDKit          3D

 52 55  0  0  0  0  0  0  0  0999 V2000
    8.1216   -1.4940   -1.5481 C   0  0  0  0  0  0  0  0  0  0  0  0
    7.3926   -0.7964   -0.5849 O   0  0  0  0  0  0  0  0  0  0  0  0
    6.0192   -0.6686   -0.5467 C   0  0  0  0  0  0  0  0  0  0  0  0
    5.3016   -1.2985   -1.5714 C   0  0  0  0  0  0  0  0  0  0  0  0
    3.9241   -1.2065   -1.5875 C   0  0  0  0  0  0  0  0  0  0  0  0
    3.2277   -1.8151   -2.5795 N   0  0  0  0  0  0  0  0  0  0  0  0
    1.8964   -1.7389   -2.6158 C   0  0  0  0  0  0  0  0  0  0  0  0
    1.1948   -1.0368   -1.6414 C   0  0  0  0  0  0  0  0  0  0  0  0
    1.8851   -0.4020   -0.6106 C   0  0  0  0  0  0  0  0  0  0  0  0
    1.2559    0.3154    0.3945 O   0  0  0  0  0  0  0  0  0  0  0  0
   -0.1125    0.4853    0.4832 C   0  0  0  0  0  0  0  0  0  0  0  0
   -0.9587   -0.3689    1.1542 C   0  0  0  0  0  0  0  0  0  0  0  0
   -2.3262   -0.1033    1.1815 C   0  0  0  0  0  0  0  0  0  0  0  0
   -2.8705    0.9930    0.5565 C   0  0  0  0  0  0  0  0  0  0  0  0
   -4.2246    1.2462    0.5905 C   0  0  0  0  0  0  0  0  0  0  0  0
   -5.0920    0.3270    1.3064 C   0  0  0  0  0  0  0  0  0  0  0  0
   -4.9791    0.0912    2.5480 O   0  0  0  0  0  0  0  0  0  0  0  0
   -6.1521   -0.3893    0.6507 N   0  0  0  0  0  0  0  0  0  0  0  0
   -7.0141   -1.3031    1.3644 C   0  0  0  0  0  0  0  0  0  0  0  0
   -8.0082   -1.8760    0.3786 C   0  0  0  0  0  0  0  0  0  0  0  0
   -8.8729   -2.7686    1.0059 F   0  0  0  0  0  0  0  0  0  0  0  0
   -7.3258   -2.5986   -0.5809 F   0  0  0  0  0  0  0  0  0  0  0  0
   -8.6991   -0.8832   -0.2728 F   0  0  0  0  0  0  0  0  0  0  0  0
   -4.7072    2.3697   -0.0604 C   0  0  0  0  0  0  0  0  0  0  0  0
   -3.8888    3.2404   -0.7379 C   0  0  0  0  0  0  0  0  0  0  0  0
   -2.5415    2.9854   -0.7697 C   0  0  0  0  0  0  0  0  0  0  0  0
   -2.0242    1.8578   -0.1212 C   0  0  0  0  0  0  0  0  0  0  0  0
   -0.6748    1.5910   -0.1451 C   0  0  0  0  0  0  0  0  0  0  0  0
    3.2535   -0.5055   -0.6110 C   0  0  0  0  0  0  0  0  0  0  0  0
    3.9861    0.1145    0.4007 C   0  0  0  0  0  0  0  0  0  0  0  0
    5.3602    0.0356    0.4357 C   0  0  0  0  0  0  0  0  0  0  0  0
    6.1049    0.6414    1.4274 O   0  0  0  0  0  0  0  0  0  0  0  0
    5.5115    1.3884    2.4801 C   0  0  0  0  0  0  0  0  0  0  0  0
    9.1426   -1.7234   -1.1240 H   0  0  0  0  0  0  0  0  0  0  0  0
    8.2559   -0.7930   -2.4217 H   0  0  0  0  0  0  0  0  0  0  0  0
    7.6842   -2.4396   -1.8863 H   0  0  0  0  0  0  0  0  0  0  0  0
    5.7936   -1.8567   -2.3546 H   0  0  0  0  0  0  0  0  0  0  0  0
    1.3401   -2.2360   -3.4256 H   0  0  0  0  0  0  0  0  0  0  0  0
    0.1236   -0.9773   -1.6728 H   0  0  0  0  0  0  0  0  0  0  0  0
   -0.5358   -1.2414    1.6529 H   0  0  0  0  0  0  0  0  0  0  0  0
   -2.9833   -0.7807    1.7102 H   0  0  0  0  0  0  0  0  0  0  0  0
   -6.2776   -0.2265   -0.3556 H   0  0  0  0  0  0  0  0  0  0  0  0
   -7.5617   -0.7766    2.1968 H   0  0  0  0  0  0  0  0  0  0  0  0
   -6.4588   -2.1195    1.8572 H   0  0  0  0  0  0  0  0  0  0  0  0
   -5.7538    2.5568   -0.0287 H   0  0  0  0  0  0  0  0  0  0  0  0
   -4.3288    4.0975   -1.2238 H   0  0  0  0  0  0  0  0  0  0  0  0
   -1.8606    3.6342   -1.2852 H   0  0  0  0  0  0  0  0  0  0  0  0
   -0.0416    2.2844   -0.6812 H   0  0  0  0  0  0  0  0  0  0  0  0
    3.4524    0.6578    1.1565 H   0  0  0  0  0  0  0  0  0  0  0  0
    6.2634    2.0768    2.9232 H   0  0  0  0  0  0  0  0  0  0  0  0
    4.7395    2.0472    1.9867 H   0  0  0  0  0  0  0  0  0  0  0  0
    5.0438    0.7121    3.2027 H   0  0  0  0  0  0  0  0  0  0  0  0
  1  2  1  0
  2  3  1  0
  3  4  2  0
  4  5  1  0
  5  6  2  0
  6  7  1  0
  7  8  2  0
  8  9  1  0
  9 10  1  0
 10 11  1  0
 11 12  2  0
 12 13  1  0
 13 14  2  0
 14 15  1  0
 15 16  1  0
 16 17  2  0
 16 18  1  0
 18 19  1  0
 19 20  1  0
 20 21  1  0
 20 22  1  0
 20 23  1  0
 15 24  2  0
 24 25  1  0
 25 26  2  0
 26 27  1  0
 27 28  2  0
  9 29  2  0
 29 30  1  0
 30 31  2  0
 31 32  1  0
 32 33  1  0
 31  3  1  0
 29  5  1  0
 28 11  1  0
 27 14  1  0
  1 34  1  0
  1 35  1  0
  1 36  1  0
  4 37  1  0
  7 38  1  0
  8 39  1  0
 12 40  1  0
 13 41  1  0
 18 42  1  0
 19 43  1  0
 19 44  1  0
 24 45  1  0
 25 46  1  0
 26 47  1  0
 28 48  1  0
 30 49  1  0
 33 50  1  0
 33 51  1  0
 33 52  1  0
M  END
$$$$
