@<TRIPOS>MOLECULE
*****
 31 32 0 0 0
SMALL
GASTEIGER

@<TRIPOS>ATOM
      1 C           1.0120   -1.5143   -1.6702 C.3     1  UNL1       -0.0529
      2 C           0.9440   -0.1149   -1.0993 C.3     1  UNL1        0.0253
      3 C           2.1865   -0.0530   -0.2238 C.ar    1  UNL1        0.0659
      4 C           3.0799    0.9670   -0.0429 C.ar    1  UNL1        0.0249
      5 N           4.0337    0.5886    0.8260 N.ar    1  UNL1       -0.3506
      6 C           3.7462   -0.6602    1.1916 C.ar    1  UNL1        0.0936
      7 N           2.6316   -1.0703    0.5686 N.ar    1  UNL1       -0.2403
      8 C          -0.1999    0.1769   -0.2441 C.ar    1  UNL1       -0.0355
      9 C          -1.4960   -0.2892   -0.2896 C.ar    1  UNL1       -0.0437
     10 C          -1.8288   -1.1980   -1.3941 C.3     1  UNL1       -0.0392
     11 C          -2.4666    0.0783    0.6271 C.ar    1  UNL1       -0.0473
     12 C          -3.8313   -0.4907    0.4785 C.3     1  UNL1       -0.0395
     13 C          -2.1990    0.9375    1.6469 C.ar    1  UNL1       -0.0586
     14 C          -0.9320    1.4340    1.7439 C.ar    1  UNL1       -0.0612
     15 C           0.0184    1.0589    0.8269 C.ar    1  UNL1       -0.0577
     16 H           2.0983   -1.6535   -1.9977 H       1  UNL1        0.0239
     17 H           0.4658   -1.6486   -2.6202 H       1  UNL1        0.0239
     18 H           0.8806   -2.3136   -0.9261 H       1  UNL1        0.0239
     19 H           1.1412    0.5887   -1.9124 H       1  UNL1        0.0410
     20 H           2.9068    1.8848   -0.5916 H       1  UNL1        0.0826
     21 H           4.7713    1.3174    1.0277 H       1  UNL1        0.1662
     22 H           4.4092   -1.1465    1.8981 H       1  UNL1        0.1027
     23 H          -2.9533   -1.3610   -1.3827 H       1  UNL1        0.0278
     24 H          -1.6742   -0.7309   -2.3974 H       1  UNL1        0.0278
     25 H          -1.4368   -2.2248   -1.3006 H       1  UNL1        0.0278
     26 H          -4.4711   -0.1409    1.3072 H       1  UNL1        0.0278
     27 H          -3.7190   -1.6070    0.4865 H       1  UNL1        0.0278
     28 H          -4.3428   -0.2036   -0.4504 H       1  UNL1        0.0278
     29 H          -2.9952    1.1811    2.3221 H       1  UNL1        0.0620
     30 H          -0.7515    2.1148    2.5650 H       1  UNL1        0.0618
     31 H           0.9720    1.5305    1.0273 H       1  UNL1        0.0621
@<TRIPOS>BOND
     1     1     2    1
     2     2     3    1
     3     3     4   ar
     4     4     5   ar
     5     5     6   ar
     6     6     7   ar
     7     2     8    1
     8     8     9   ar
     9     9    10    1
    10     9    11   ar
    11    11    12    1
    12    11    13   ar
    13    13    14   ar
    14    14    15   ar
    15     7     3   ar
    16    15     8   ar
    17     1    16    1
    18     1    17    1
    19     1    18    1
    20     2    19    1
    21     4    20    1
    22     5    21    1
    23     6    22    1
    24    10    23    1
    25    10    24    1
    26    10    25    1
    27    12    26    1
    28    12    27    1
    29    12    28    1
    30    13    29    1
    31    14    30    1
    32    15    31    1
