@<TRIPOS>MOLECULE
*****
 40 41 0 0 0
SMALL
GASTEIGER

@<TRIPOS>ATOM
      1 C           0.6126   -0.2284   -0.2337 C.3     1  UNL1        0.0000
      2 C           1.2925   -0.7392    0.9942 C.3     1  UNL1        0.0000
      3 C           2.7432   -1.0973    0.7640 C.3     1  UNL1        0.0000
      4 N           3.4492   -0.2166   -0.1077 N.3     1  UNL1        1.0000
      5 C           3.8498    1.0297    0.5241 C.3     1  UNL1        0.0000
      6 O           4.6157   -0.8431   -0.4373 O.co2   1  UNL1       -1.0000
      7 C           2.7531    0.0831   -1.3350 C.3     1  UNL1        0.0000
      8 C           1.4659   -0.7093   -1.4153 C.3     1  UNL1        0.0000
      9 SI         -1.1443   -0.7711   -0.4303 Si      1  UNL1        0.0000
     10 C          -1.5380   -2.3291    0.4847 C.3     1  UNL1        0.0000
     11 C          -1.5245   -1.0460   -2.2566 C.3     1  UNL1        0.0000
     12 C          -2.2428    0.6165    0.0997 C.ar    1  UNL1        0.0000
     13 C          -3.5060    0.2540    0.5794 C.ar    1  UNL1        0.0000
     14 C          -4.3321    1.2710    0.9763 C.ar    1  UNL1        0.0000
     15 C          -4.0176    2.6151    0.9399 C.ar    1  UNL1        0.0000
     16 C          -2.7764    2.9193    0.4651 C.ar    1  UNL1        0.0000
     17 C          -1.8697    1.9430    0.0388 C.ar    1  UNL1        0.0000
     18 H           0.6851    0.8780   -0.2155 H       1  UNL1        0.0000
     19 H           1.2070   -0.0210    1.8442 H       1  UNL1        0.0000
     20 H           0.7871   -1.6781    1.3237 H       1  UNL1        0.0000
     21 H           3.2448   -1.0838    1.7493 H       1  UNL1        0.0000
     22 H           2.8701   -2.1416    0.3749 H       1  UNL1        0.0000
     23 H           4.6861    0.8865    1.2147 H       1  UNL1        0.0000
     24 H           4.1879    1.7113   -0.2931 H       1  UNL1        0.0000
     25 H           2.9771    1.4989    1.0012 H       1  UNL1        0.0000
     26 H           2.4464    1.1490   -1.3498 H       1  UNL1        0.0000
     27 H           3.3748   -0.0848   -2.2355 H       1  UNL1        0.0000
     28 H           0.9718   -0.5553   -2.3750 H       1  UNL1        0.0000
     29 H           1.7033   -1.7920   -1.2640 H       1  UNL1        0.0000
     30 H          -2.4134   -2.8392    0.0328 H       1  UNL1        0.0000
     31 H          -0.6512   -2.9966    0.4056 H       1  UNL1        0.0000
     32 H          -1.7348   -2.1674    1.5488 H       1  UNL1        0.0000
     33 H          -1.2415   -2.0383   -2.6054 H       1  UNL1        0.0000
     34 H          -1.1365   -0.1966   -2.8367 H       1  UNL1        0.0000
     35 H          -2.6360   -0.9785   -2.3410 H       1  UNL1        0.0000
     36 H          -3.8041   -0.7932    0.6290 H       1  UNL1        0.0000
     37 H          -5.3220    0.9810    1.3518 H       1  UNL1        0.0000
     38 H          -4.7086    3.3887    1.2667 H       1  UNL1        0.0000
     39 H          -2.4387    3.9473    0.3985 H       1  UNL1        0.0000
     40 H          -0.8856    2.1740   -0.3384 H       1  UNL1        0.0000
@<TRIPOS>UNITY_ATOM_ATTR
4 1
charge 1
6 1
charge -1
@<TRIPOS>BOND
     1     1     2    1
     2     2     3    1
     3     3     4    1
     4     4     5    1
     5     4     6    1
     6     4     7    1
     7     7     8    1
     8     1     9    1
     9     9    10    1
    10     9    11    1
    11     9    12    1
    12    12    13   ar
    13    13    14   ar
    14    14    15   ar
    15    15    16   ar
    16    16    17   ar
    17     8     1    1
    18    17    12   ar
    19     1    18    1
    20     2    19    1
    21     2    20    1
    22     3    21    1
    23     3    22    1
    24     5    23    1
    25     5    24    1
    26     5    25    1
    27     7    26    1
    28     7    27    1
    29     8    28    1
    30     8    29    1
    31    10    30    1
    32    10    31    1
    33    10    32    1
    34    11    33    1
    35    11    34    1
    36    11    35    1
    37    13    36    1
    38    14    37    1
    39    15    38    1
    40    16    39    1
    41    17    40    1
