
     RDKit          3D

 67 71  0  0  0  0  0  0  0  0999 V2000
    4.1048   -1.9939    0.5078 N   0  0  0  0  0  0  0  0  0  0  0  0
    5.4199   -1.5178    0.5485 C   0  0  0  0  0  0  0  0  0  0  0  0
    6.3143   -2.3553    0.7994 O   0  0  0  0  0  0  0  0  0  0  0  0
    5.7618   -0.1394    0.3141 C   0  0  0  0  0  0  0  0  0  0  0  0
    7.1308    0.1577    0.2776 C   0  0  0  0  0  0  0  0  0  0  0  0
    8.0754   -0.8618    0.4856 N   0  0  0  0  0  0  0  0  0  0  0  0
    7.5089    1.3993    0.0474 N   0  0  0  0  0  0  0  0  0  0  0  0
    6.6474    2.4003   -0.1550 C   0  0  0  0  0  0  0  0  0  0  0  0
    5.3502    2.1182   -0.1192 N   0  0  0  0  0  0  0  0  0  0  0  0
    4.8600    0.8639    0.1127 C   0  0  0  0  0  0  0  0  0  0  0  0
    3.4601    0.6947    0.1763 N   0  0  0  0  0  0  0  0  0  0  0  0
    2.7038    0.4988    1.4016 C   0  0  0  0  0  0  0  0  0  0  0  0
    1.3339   -0.0591    0.9915 C   0  0  0  0  0  0  0  0  0  0  0  0
    0.6568    1.0640    0.2810 C   0  0  0  0  0  0  0  0  0  0  0  0
   -0.7799    0.8788    0.0123 C   0  0  0  0  0  0  0  0  0  0  0  0
   -1.7794    1.6435    0.4872 N   0  0  0  0  0  0  0  0  0  0  0  0
   -2.9610    1.2361    0.0510 C   0  0  0  0  0  0  0  0  0  0  0  0
   -4.2998    1.7993    0.3388 C   0  0  0  0  0  0  0  0  0  0  0  0
   -4.3764    2.9024    1.1735 C   0  0  0  0  0  0  0  0  0  0  0  0
   -5.5883    3.4997    1.5016 C   0  0  0  0  0  0  0  0  0  0  0  0
   -6.7304    2.9667    0.9736 C   0  0  0  0  0  0  0  0  0  0  0  0
   -7.9506    3.4920    1.2459 O   0  0  0  0  0  0  0  0  0  0  0  0
   -8.1798    4.5881    2.0594 C   0  0  0  0  0  0  0  0  0  0  0  0
   -8.8776    5.5216    1.2969 F   0  0  0  0  0  0  0  0  0  0  0  0
   -9.0644    4.1817    3.0563 F   0  0  0  0  0  0  0  0  0  0  0  0
   -6.6442    1.8448    0.1255 C   0  0  0  0  0  0  0  0  0  0  0  0
   -5.4476    1.2879   -0.1734 C   0  0  0  0  0  0  0  0  0  0  0  0
   -2.7247    0.1460   -0.7526 C   0  0  0  0  0  0  0  0  0  0  0  0
   -1.3693   -0.0473   -0.7539 N   0  0  0  0  0  0  0  0  0  0  0  0
   -0.7847   -1.1318   -1.4798 C   0  0  0  0  0  0  0  0  0  0  0  0
   -0.8086   -2.3775   -0.6236 C   0  0  0  0  0  0  0  0  0  0  0  0
   -0.2061   -3.5114   -1.3381 N   0  0  0  0  0  0  0  0  0  0  0  0
   -0.2377   -4.6939   -0.5068 C   0  0  0  0  0  0  0  0  0  0  0  0
   -0.7473   -5.4828   -1.6891 C   0  0  0  0  0  0  0  0  0  0  0  0
   -1.1469   -4.1431   -2.2265 C   0  0  0  0  0  0  0  0  0  0  0  0
    1.4390    1.5023   -0.9406 C   0  0  0  0  0  0  0  0  0  0  0  0
    2.7474    0.7478   -1.0929 C   0  0  0  0  0  0  0  0  0  0  0  0
    3.6086   -2.2490    1.3856 H   0  0  0  0  0  0  0  0  0  0  0  0
    3.5748   -2.1219   -0.3718 H   0  0  0  0  0  0  0  0  0  0  0  0
    8.5638   -1.2746   -0.3198 H   0  0  0  0  0  0  0  0  0  0  0  0
    8.3069   -1.2246    1.4411 H   0  0  0  0  0  0  0  0  0  0  0  0
    7.0390    3.4048   -0.3410 H   0  0  0  0  0  0  0  0  0  0  0  0
    2.4299    1.5269    1.8203 H   0  0  0  0  0  0  0  0  0  0  0  0
    3.1873   -0.0664    2.1805 H   0  0  0  0  0  0  0  0  0  0  0  0
    1.5580   -0.9268    0.3488 H   0  0  0  0  0  0  0  0  0  0  0  0
    0.7994   -0.3512    1.8915 H   0  0  0  0  0  0  0  0  0  0  0  0
    0.7739    1.9401    0.9980 H   0  0  0  0  0  0  0  0  0  0  0  0
   -3.4720    3.3219    1.5892 H   0  0  0  0  0  0  0  0  0  0  0  0
   -5.5301    4.3499    2.1574 H   0  0  0  0  0  0  0  0  0  0  0  0
   -7.2898    5.0572    2.5089 H   0  0  0  0  0  0  0  0  0  0  0  0
   -7.5786    1.4714   -0.2584 H   0  0  0  0  0  0  0  0  0  0  0  0
   -5.4133    0.4347   -0.8219 H   0  0  0  0  0  0  0  0  0  0  0  0
   -3.4566   -0.4400   -1.2772 H   0  0  0  0  0  0  0  0  0  0  0  0
    0.2170   -0.9338   -1.8985 H   0  0  0  0  0  0  0  0  0  0  0  0
   -1.4146   -1.3790   -2.3836 H   0  0  0  0  0  0  0  0  0  0  0  0
   -0.4044   -2.2549    0.3741 H   0  0  0  0  0  0  0  0  0  0  0  0
   -1.8809   -2.7156   -0.4672 H   0  0  0  0  0  0  0  0  0  0  0  0
    0.7749   -5.0090   -0.1967 H   0  0  0  0  0  0  0  0  0  0  0  0
   -0.9429   -4.6114    0.3238 H   0  0  0  0  0  0  0  0  0  0  0  0
    0.0922   -5.8951   -2.2793 H   0  0  0  0  0  0  0  0  0  0  0  0
   -1.5762   -6.1825   -1.4704 H   0  0  0  0  0  0  0  0  0  0  0  0
   -0.9584   -4.0310   -3.2999 H   0  0  0  0  0  0  0  0  0  0  0  0
   -2.2167   -3.9439   -2.0034 H   0  0  0  0  0  0  0  0  0  0  0  0
    0.8263    1.3732   -1.8527 H   0  0  0  0  0  0  0  0  0  0  0  0
    1.6946    2.5880   -0.9231 H   0  0  0  0  0  0  0  0  0  0  0  0
    2.5483   -0.2812   -1.4055 H   0  0  0  0  0  0  0  0  0  0  0  0
    3.3297    1.3031   -1.8625 H   0  0  0  0  0  0  0  0  0  0  0  0
  1  2  1  0
  2  3  2  0
  2  4  1  0
  4  5  2  0
  5  6  1  0
  5  7  1  0
  7  8  2  0
  8  9  1  0
  9 10  2  0
 10 11  1  0
 11 12  1  0
 12 13  1  0
 13 14  1  0
 14 15  1  0
 15 16  2  0
 16 17  1  0
 17 18  1  0
 18 19  2  0
 19 20  1  0
 20 21  2  0
 21 22  1  0
 22 23  1  0
 23 24  1  0
 23 25  1  0
 21 26  1  0
 26 27  2  0
 17 28  2  0
 28 29  1  0
 29 30  1  0
 30 31  1  0
 31 32  1  0
 32 33  1  0
 33 34  1  0
 34 35  1  0
 14 36  1  0
 36 37  1  0
 10  4  1  0
 37 11  1  0
 29 15  1  0
 35 32  1  0
 27 18  1  0
  1 38  1  0
  1 39  1  0
  6 40  1  0
  6 41  1  0
  8 42  1  0
 12 43  1  0
 12 44  1  0
 13 45  1  0
 13 46  1  0
 14 47  1  0
 19 48  1  0
 20 49  1  0
 23 50  1  0
 26 51  1  0
 27 52  1  0
 28 53  1  0
 30 54  1  0
 30 55  1  0
 31 56  1  0
 31 57  1  0
 33 58  1  0
 33 59  1  0
 34 60  1  0
 34 61  1  0
 35 62  1  0
 35 63  1  0
 36 64  1  0
 36 65  1  0
 37 66  1  0
 37 67  1  0
M  END
$$$$
