@<TRIPOS>MOLECULE
*****
 67 71 0 0 0
SMALL
GASTEIGER

@<TRIPOS>ATOM
      1 N           4.1048   -1.9939    0.5078 N.am    1  UNL1       -0.3252
      2 C           5.4199   -1.5178    0.5485 C.2     1  UNL1        0.2482
      3 O           6.3143   -2.3553    0.7994 O.2     1  UNL1       -0.2702
      4 C           5.7618   -0.1394    0.3141 C.ar    1  UNL1        0.1157
      5 C           7.1308    0.1577    0.2776 C.ar    1  UNL1        0.1334
      6 N           8.0754   -0.8618    0.4856 N.pl3   1  UNL1       -0.3424
      7 N           7.5089    1.3993    0.0474 N.ar    1  UNL1       -0.2203
      8 C           6.6474    2.4003   -0.1550 C.ar    1  UNL1        0.1202
      9 N           5.3502    2.1182   -0.1192 N.ar    1  UNL1       -0.2199
     10 C           4.8600    0.8639    0.1127 C.ar    1  UNL1        0.1385
     11 N           3.4601    0.6947    0.1763 N.pl3   1  UNL1       -0.3144
     12 C           2.7038    0.4988    1.4016 C.3     1  UNL1        0.0142
     13 C           1.3339   -0.0591    0.9915 C.3     1  UNL1       -0.0275
     14 C           0.6568    1.0640    0.2810 C.3     1  UNL1        0.0201
     15 C          -0.7799    0.8788    0.0123 C.ar    1  UNL1        0.1136
     16 N          -1.7794    1.6435    0.4872 N.ar    1  UNL1       -0.2320
     17 C          -2.9610    1.2361    0.0510 C.ar    1  UNL1        0.0891
     18 C          -4.2998    1.7993    0.3388 C.ar    1  UNL1        0.0021
     19 C          -4.3764    2.9024    1.1735 C.ar    1  UNL1       -0.0491
     20 C          -5.5883    3.4997    1.5016 C.ar    1  UNL1       -0.0191
     21 C          -6.7304    2.9667    0.9736 C.ar    1  UNL1        0.1269
     22 O          -7.9506    3.4920    1.2459 O.3     1  UNL1       -0.4342
     23 C          -8.1798    4.5881    2.0594 C.3     1  UNL1        0.3893
     24 F          -8.8776    5.5216    1.2969 F       1  UNL1       -0.1663
     25 F          -9.0644    4.1817    3.0563 F       1  UNL1       -0.1663
     26 C          -6.6442    1.8448    0.1255 C.ar    1  UNL1       -0.0191
     27 C          -5.4476    1.2879   -0.1734 C.ar    1  UNL1       -0.0491
     28 C          -2.7247    0.1460   -0.7526 C.ar    1  UNL1        0.0322
     29 N          -1.3693   -0.0473   -0.7539 N.ar    1  UNL1       -0.3322
     30 C          -0.7847   -1.1318   -1.4798 C.3     1  UNL1        0.0372
     31 C          -0.8086   -2.3775   -0.6236 C.3     1  UNL1        0.0169
     32 N          -0.2061   -3.5114   -1.3381 N.3     1  UNL1       -0.3006
     33 C          -0.2377   -4.6939   -0.5068 C.3     1  UNL1        0.0001
     34 C          -0.7473   -5.4828   -1.6891 C.3     1  UNL1       -0.0274
     35 C          -1.1469   -4.1431   -2.2265 C.3     1  UNL1        0.0001
     36 C           1.4390    1.5023   -0.9406 C.3     1  UNL1       -0.0275
     37 C           2.7474    0.7478   -1.0929 C.3     1  UNL1        0.0142
     38 H           3.6086   -2.2490    1.3856 H       1  UNL1        0.1453
     39 H           3.5748   -2.1219   -0.3718 H       1  UNL1        0.1453
     40 H           8.5638   -1.2746   -0.3198 H       1  UNL1        0.1437
     41 H           8.3069   -1.2246    1.4411 H       1  UNL1        0.1437
     42 H           7.0390    3.4048   -0.3410 H       1  UNL1        0.1048
     43 H           2.4299    1.5269    1.8203 H       1  UNL1        0.0464
     44 H           3.1873   -0.0664    2.1805 H       1  UNL1        0.0464
     45 H           1.5580   -0.9268    0.3488 H       1  UNL1        0.0287
     46 H           0.7994   -0.3512    1.8915 H       1  UNL1        0.0287
     47 H           0.7739    1.9401    0.9980 H       1  UNL1        0.0380
     48 H          -3.4720    3.3219    1.5892 H       1  UNL1        0.0625
     49 H          -5.5301    4.3499    2.1574 H       1  UNL1        0.0654
     50 H          -7.2898    5.0572    2.5089 H       1  UNL1        0.1520
     51 H          -7.5786    1.4714   -0.2584 H       1  UNL1        0.0654
     52 H          -5.4133    0.4347   -0.8219 H       1  UNL1        0.0625
     53 H          -3.4566   -0.4400   -1.2772 H       1  UNL1        0.0831
     54 H           0.2170   -0.9338   -1.8985 H       1  UNL1        0.0505
     55 H          -1.4146   -1.3790   -2.3836 H       1  UNL1        0.0505
     56 H          -0.4044   -2.2549    0.3741 H       1  UNL1        0.0444
     57 H          -1.8809   -2.7156   -0.4672 H       1  UNL1        0.0444
     58 H           0.7749   -5.0090   -0.1967 H       1  UNL1        0.0427
     59 H          -0.9429   -4.6114    0.3238 H       1  UNL1        0.0427
     60 H           0.0922   -5.8951   -2.2793 H       1  UNL1        0.0290
     61 H          -1.5762   -6.1825   -1.4704 H       1  UNL1        0.0290
     62 H          -0.9584   -4.0310   -3.2999 H       1  UNL1        0.0427
     63 H          -2.2167   -3.9439   -2.0034 H       1  UNL1        0.0427
     64 H           0.8263    1.3732   -1.8527 H       1  UNL1        0.0287
     65 H           1.6946    2.5880   -0.9231 H       1  UNL1        0.0287
     66 H           2.5483   -0.2812   -1.4055 H       1  UNL1        0.0464
     67 H           3.3297    1.3031   -1.8625 H       1  UNL1        0.0464
@<TRIPOS>BOND
     1     1     2   am
     2     2     3    2
     3     2     4    1
     4     4     5   ar
     5     5     6    1
     6     5     7   ar
     7     7     8   ar
     8     8     9   ar
     9     9    10   ar
    10    10    11    1
    11    11    12    1
    12    12    13    1
    13    13    14    1
    14    14    15    1
    15    15    16   ar
    16    16    17   ar
    17    17    18    1
    18    18    19   ar
    19    19    20   ar
    20    20    21   ar
    21    21    22    1
    22    22    23    1
    23    23    24    1
    24    23    25    1
    25    21    26   ar
    26    26    27   ar
    27    17    28   ar
    28    28    29   ar
    29    29    30    1
    30    30    31    1
    31    31    32    1
    32    32    33    1
    33    33    34    1
    34    34    35    1
    35    14    36    1
    36    36    37    1
    37    10     4   ar
    38    37    11    1
    39    29    15   ar
    40    35    32    1
    41    27    18   ar
    42     1    38    1
    43     1    39    1
    44     6    40    1
    45     6    41    1
    46     8    42    1
    47    12    43    1
    48    12    44    1
    49    13    45    1
    50    13    46    1
    51    14    47    1
    52    19    48    1
    53    20    49    1
    54    23    50    1
    55    26    51    1
    56    27    52    1
    57    28    53    1
    58    30    54    1
    59    30    55    1
    60    31    56    1
    61    31    57    1
    62    33    58    1
    63    33    59    1
    64    34    60    1
    65    34    61    1
    66    35    62    1
    67    35    63    1
    68    36    64    1
    69    36    65    1
    70    37    66    1
    71    37    67    1
