@<TRIPOS>MOLECULE
*****
 56 60 0 0 0
SMALL
GASTEIGER

@<TRIPOS>ATOM
      1 C          -6.6072   -1.3569    1.2319 C.3     1  UNL1       -0.0199
      2 C          -5.9716   -0.1503    0.6236 C.ar    1  UNL1        0.0708
      3 N          -6.6282    0.9690    0.2255 N.ar    1  UNL1       -0.1758
      4 N          -5.8001    1.8632   -0.2729 N.ar    1  UNL1       -0.2707
      5 C          -6.1360    3.1818   -0.8002 C.3     1  UNL1        0.0305
      6 C          -4.5693    1.3307   -0.2060 C.ar    1  UNL1        0.0467
      7 C          -3.3201    1.9914   -0.6592 C.3     1  UNL1       -0.0220
      8 C          -4.6436    0.0686    0.3516 C.ar    1  UNL1        0.0605
      9 C          -3.5188   -0.8154    0.5852 C.ar    1  UNL1        0.1440
     10 N          -2.2210   -0.5137    0.2812 N.ar    1  UNL1       -0.2241
     11 C          -1.4270   -1.5195    0.6117 C.ar    1  UNL1        0.1304
     12 C          -0.0625   -1.6977    0.5071 C.ar    1  UNL1        0.0748
     13 N           0.7522   -0.7057   -0.0283 N.pl3   1  UNL1       -0.3248
     14 C           1.3874    0.3470    0.7635 C.3     1  UNL1        0.0251
     15 C           2.8836    0.3450    0.5633 C.3     1  UNL1        0.0150
     16 N           3.3227    0.0565   -0.7284 N.3     1  UNL1       -0.2951
     17 C           4.6782   -0.4152   -0.8289 C.3     1  UNL1        0.0256
     18 C           5.6976    0.5382   -0.3594 C.ar    1  UNL1       -0.0153
     19 C           6.1108    0.4855    0.9487 C.ar    1  UNL1       -0.0545
     20 C           7.0649    1.3870    1.3842 C.ar    1  UNL1       -0.0433
     21 C           7.5498    2.2957    0.4660 C.ar    1  UNL1        0.0276
     22 N           7.1299    2.3275   -0.8092 N.ar    1  UNL1       -0.2629
     23 C           6.2129    1.4623   -1.2304 C.ar    1  UNL1        0.0320
     24 C           2.5044   -0.6143   -1.6332 C.3     1  UNL1        0.0150
     25 C           1.0419   -0.6002   -1.4469 C.3     1  UNL1        0.0251
     26 C           0.4357   -2.8880    0.9573 C.ar    1  UNL1        0.0591
     27 BR          2.2811   -3.2352    0.8694 Br      1  UNL1       -0.0467
     28 C          -0.4068   -3.8704    1.4959 C.ar    1  UNL1        0.0458
     29 N          -1.7246   -3.6478    1.5750 N.ar    1  UNL1       -0.2347
     30 C          -2.2340   -2.5020    1.1457 C.ar    1  UNL1        0.1600
     31 N          -3.5023   -2.0395    1.1141 N.ar    1  UNL1       -0.3226
     32 H          -6.5412   -2.2526    0.5870 H       1  UNL1        0.0293
     33 H          -6.3162   -1.5169    2.2847 H       1  UNL1        0.0293
     34 H          -7.7177   -1.1455    1.2873 H       1  UNL1        0.0293
     35 H          -7.1297    3.1110   -1.3270 H       1  UNL1        0.0473
     36 H          -6.3144    3.8994    0.0368 H       1  UNL1        0.0473
     37 H          -5.3481    3.5415   -1.4703 H       1  UNL1        0.0473
     38 H          -3.4639    3.0581   -0.8556 H       1  UNL1        0.0293
     39 H          -2.4767    1.8411    0.0475 H       1  UNL1        0.0293
     40 H          -2.9971    1.5329   -1.6279 H       1  UNL1        0.0293
     41 H           0.9686    1.3004    0.3767 H       1  UNL1        0.0476
     42 H           1.1225    0.2924    1.8298 H       1  UNL1        0.0476
     43 H           3.3669   -0.3720    1.2898 H       1  UNL1        0.0442
     44 H           3.2583    1.3445    0.8725 H       1  UNL1        0.0442
     45 H           4.8581   -0.6224   -1.9230 H       1  UNL1        0.0476
     46 H           4.7960   -1.4259   -0.3418 H       1  UNL1        0.0476
     47 H           5.7067   -0.2561    1.6591 H       1  UNL1        0.0622
     48 H           7.4014    1.3631    2.4020 H       1  UNL1        0.0633
     49 H           8.2940    3.0064    0.7864 H       1  UNL1        0.0829
     50 H           5.8861    1.5116   -2.2849 H       1  UNL1        0.0833
     51 H           2.6946   -0.1588   -2.6602 H       1  UNL1        0.0442
     52 H           2.8378   -1.6905   -1.7269 H       1  UNL1        0.0442
     53 H           0.5982   -1.4511   -2.0061 H       1  UNL1        0.0476
     54 H           0.5589    0.3604   -1.7808 H       1  UNL1        0.0476
     55 H           0.0394   -4.7836    1.8327 H       1  UNL1        0.0842
     56 H          -4.3625   -2.5648    1.4568 H       1  UNL1        0.1688
@<TRIPOS>BOND
     1     1     2    1
     2     2     3   ar
     3     3     4   ar
     4     4     5    1
     5     4     6   ar
     6     6     7    1
     7     6     8   ar
     8     8     9    1
     9     9    10   ar
    10    10    11   ar
    11    11    12   ar
    12    12    13    1
    13    13    14    1
    14    14    15    1
    15    15    16    1
    16    16    17    1
    17    17    18    1
    18    18    19   ar
    19    19    20   ar
    20    20    21   ar
    21    21    22   ar
    22    22    23   ar
    23    16    24    1
    24    24    25    1
    25    12    26   ar
    26    26    27    1
    27    26    28   ar
    28    28    29   ar
    29    29    30   ar
    30    30    31   ar
    31     8     2   ar
    32    31     9   ar
    33    30    11   ar
    34    25    13    1
    35    23    18   ar
    36     1    32    1
    37     1    33    1
    38     1    34    1
    39     5    35    1
    40     5    36    1
    41     5    37    1
    42     7    38    1
    43     7    39    1
    44     7    40    1
    45    14    41    1
    46    14    42    1
    47    15    43    1
    48    15    44    1
    49    17    45    1
    50    17    46    1
    51    19    47    1
    52    20    48    1
    53    21    49    1
    54    23    50    1
    55    24    51    1
    56    24    52    1
    57    25    53    1
    58    25    54    1
    59    28    55    1
    60    31    56    1
