
     RDKit          3D

 56 60  0  0  0  0  0  0  0  0999 V2000
   -6.6072   -1.3569    1.2319 C   0  0  0  0  0  0  0  0  0  0  0  0
   -5.9716   -0.1503    0.6236 C   0  0  0  0  0  0  0  0  0  0  0  0
   -6.6282    0.9690    0.2255 N   0  0  0  0  0  0  0  0  0  0  0  0
   -5.8001    1.8632   -0.2729 N   0  0  0  0  0  0  0  0  0  0  0  0
   -6.1360    3.1818   -0.8002 C   0  0  0  0  0  0  0  0  0  0  0  0
   -4.5693    1.3307   -0.2060 C   0  0  0  0  0  0  0  0  0  0  0  0
   -3.3201    1.9914   -0.6592 C   0  0  0  0  0  0  0  0  0  0  0  0
   -4.6436    0.0686    0.3516 C   0  0  0  0  0  0  0  0  0  0  0  0
   -3.5188   -0.8154    0.5852 C   0  0  0  0  0  0  0  0  0  0  0  0
   -2.2210   -0.5137    0.2812 N   0  0  0  0  0  0  0  0  0  0  0  0
   -1.4270   -1.5195    0.6117 C   0  0  0  0  0  0  0  0  0  0  0  0
   -0.0625   -1.6977    0.5071 C   0  0  0  0  0  0  0  0  0  0  0  0
    0.7522   -0.7057   -0.0283 N   0  0  0  0  0  0  0  0  0  0  0  0
    1.3874    0.3470    0.7635 C   0  0  0  0  0  0  0  0  0  0  0  0
    2.8836    0.3450    0.5633 C   0  0  0  0  0  0  0  0  0  0  0  0
    3.3227    0.0565   -0.7284 N   0  0  0  0  0  0  0  0  0  0  0  0
    4.6782   -0.4152   -0.8289 C   0  0  0  0  0  0  0  0  0  0  0  0
    5.6976    0.5382   -0.3594 C   0  0  0  0  0  0  0  0  0  0  0  0
    6.1108    0.4855    0.9487 C   0  0  0  0  0  0  0  0  0  0  0  0
    7.0649    1.3870    1.3842 C   0  0  0  0  0  0  0  0  0  0  0  0
    7.5498    2.2957    0.4660 C   0  0  0  0  0  0  0  0  0  0  0  0
    7.1299    2.3275   -0.8092 N   0  0  0  0  0  0  0  0  0  0  0  0
    6.2129    1.4623   -1.2304 C   0  0  0  0  0  0  0  0  0  0  0  0
    2.5044   -0.6143   -1.6332 C   0  0  0  0  0  0  0  0  0  0  0  0
    1.0419   -0.6002   -1.4469 C   0  0  0  0  0  0  0  0  0  0  0  0
    0.4357   -2.8880    0.9573 C   0  0  0  0  0  0  0  0  0  0  0  0
    2.2811   -3.2352    0.8694 Br  0  0  0  0  0  0  0  0  0  0  0  0
   -0.4068   -3.8704    1.4959 C   0  0  0  0  0  0  0  0  0  0  0  0
   -1.7246   -3.6478    1.5750 N   0  0  0  0  0  0  0  0  0  0  0  0
   -2.2340   -2.5020    1.1457 C   0  0  0  0  0  0  0  0  0  0  0  0
   -3.5023   -2.0395    1.1141 N   0  0  0  0  0  0  0  0  0  0  0  0
   -6.5412   -2.2526    0.5870 H   0  0  0  0  0  0  0  0  0  0  0  0
   -6.3162   -1.5169    2.2847 H   0  0  0  0  0  0  0  0  0  0  0  0
   -7.7177   -1.1455    1.2873 H   0  0  0  0  0  0  0  0  0  0  0  0
   -7.1297    3.1110   -1.3270 H   0  0  0  0  0  0  0  0  0  0  0  0
   -6.3144    3.8994    0.0368 H   0  0  0  0  0  0  0  0  0  0  0  0
   -5.3481    3.5415   -1.4703 H   0  0  0  0  0  0  0  0  0  0  0  0
   -3.4639    3.0581   -0.8556 H   0  0  0  0  0  0  0  0  0  0  0  0
   -2.4767    1.8411    0.0475 H   0  0  0  0  0  0  0  0  0  0  0  0
   -2.9971    1.5329   -1.6279 H   0  0  0  0  0  0  0  0  0  0  0  0
    0.9686    1.3004    0.3767 H   0  0  0  0  0  0  0  0  0  0  0  0
    1.1225    0.2924    1.8298 H   0  0  0  0  0  0  0  0  0  0  0  0
    3.3669   -0.3720    1.2898 H   0  0  0  0  0  0  0  0  0  0  0  0
    3.2583    1.3445    0.8725 H   0  0  0  0  0  0  0  0  0  0  0  0
    4.8581   -0.6224   -1.9230 H   0  0  0  0  0  0  0  0  0  0  0  0
    4.7960   -1.4259   -0.3418 H   0  0  0  0  0  0  0  0  0  0  0  0
    5.7067   -0.2561    1.6591 H   0  0  0  0  0  0  0  0  0  0  0  0
    7.4014    1.3631    2.4020 H   0  0  0  0  0  0  0  0  0  0  0  0
    8.2940    3.0064    0.7864 H   0  0  0  0  0  0  0  0  0  0  0  0
    5.8861    1.5116   -2.2849 H   0  0  0  0  0  0  0  0  0  0  0  0
    2.6946   -0.1588   -2.6602 H   0  0  0  0  0  0  0  0  0  0  0  0
    2.8378   -1.6905   -1.7269 H   0  0  0  0  0  0  0  0  0  0  0  0
    0.5982   -1.4511   -2.0061 H   0  0  0  0  0  0  0  0  0  0  0  0
    0.5589    0.3604   -1.7808 H   0  0  0  0  0  0  0  0  0  0  0  0
    0.0394   -4.7836    1.8327 H   0  0  0  0  0  0  0  0  0  0  0  0
   -4.3625   -2.5648    1.4568 H   0  0  0  0  0  0  0  0  0  0  0  0
  1  2  1  0
  2  3  2  0
  3  4  1  0
  4  5  1  0
  4  6  1  0
  6  7  1  0
  6  8  2  0
  8  9  1  0
  9 10  2  0
 10 11  1  0
 11 12  2  0
 12 13  1  0
 13 14  1  0
 14 15  1  0
 15 16  1  0
 16 17  1  0
 17 18  1  0
 18 19  2  0
 19 20  1  0
 20 21  2  0
 21 22  1  0
 22 23  2  0
 16 24  1  0
 24 25  1  0
 12 26  1  0
 26 27  1  0
 26 28  2  0
 28 29  1  0
 29 30  2  0
 30 31  1  0
  8  2  1  0
 31  9  1  0
 30 11  1  0
 25 13  1  0
 23 18  1  0
  1 32  1  0
  1 33  1  0
  1 34  1  0
  5 35  1  0
  5 36  1  0
  5 37  1  0
  7 38  1  0
  7 39  1  0
  7 40  1  0
 14 41  1  0
 14 42  1  0
 15 43  1  0
 15 44  1  0
 17 45  1  0
 17 46  1  0
 19 47  1  0
 20 48  1  0
 21 49  1  0
 23 50  1  0
 24 51  1  0
 24 52  1  0
 25 53  1  0
 25 54  1  0
 28 55  1  0
 31 56  1  0
M  END
$$$$
