
     RDKit          3D

 38 41  0  0  0  0  0  0  0  0999 V2000
    1.3348   -3.6821    3.8741 N   0  0  0  0  0  0  0  0  0  0  0  0
    1.7410   -3.3450    2.7965 C   0  0  0  0  0  0  0  0  0  0  0  0
    2.1972   -2.9454    1.5160 C   0  0  0  0  0  0  0  0  0  0  0  0
    3.1883   -3.5744    0.7658 C   0  0  0  0  0  0  0  0  0  0  0  0
    3.3713   -2.8938   -0.3706 N   0  0  0  0  0  0  0  0  0  0  0  0
    2.5324   -1.8750   -0.3466 C   0  0  0  0  0  0  0  0  0  0  0  0
    2.3262   -0.8567   -1.2867 C   0  0  0  0  0  0  0  0  0  0  0  0
    1.3731    0.0794   -0.9746 C   0  0  0  0  0  0  0  0  0  0  0  0
    0.6494    0.0447    0.1827 C   0  0  0  0  0  0  0  0  0  0  0  0
   -0.3397    1.0276    0.4638 C   0  0  0  0  0  0  0  0  0  0  0  0
   -1.6069    1.1442   -0.0464 C   0  0  0  0  0  0  0  0  0  0  0  0
   -2.3062    0.2974   -0.9946 C   0  0  0  0  0  0  0  0  0  0  0  0
   -1.8275    0.1384   -2.2871 C   0  0  0  0  0  0  0  0  0  0  0  0
   -2.4919   -0.6624   -3.1897 C   0  0  0  0  0  0  0  0  0  0  0  0
   -3.6485   -1.3375   -2.8676 C   0  0  0  0  0  0  0  0  0  0  0  0
   -4.3008   -2.1250   -3.7664 F   0  0  0  0  0  0  0  0  0  0  0  0
   -4.1153   -1.1692   -1.5745 C   0  0  0  0  0  0  0  0  0  0  0  0
   -3.4467   -0.3676   -0.6748 C   0  0  0  0  0  0  0  0  0  0  0  0
   -2.1432    2.2380    0.5115 N   0  0  0  0  0  0  0  0  0  0  0  0
   -1.2752    2.8106    1.3443 C   0  0  0  0  0  0  0  0  0  0  0  0
   -0.1621    2.0610    1.3134 N   0  0  0  0  0  0  0  0  0  0  0  0
    1.0042    2.3786    2.1067 C   0  0  0  0  0  0  0  0  0  0  0  0
    1.9074    3.2614    1.3103 C   0  0  0  0  0  0  0  0  0  0  0  0
    3.0415    3.5917    2.0372 F   0  0  0  0  0  0  0  0  0  0  0  0
    0.8802   -0.9514    1.0591 N   0  0  0  0  0  0  0  0  0  0  0  0
    1.8020   -1.8681    0.7750 N   0  0  0  0  0  0  0  0  0  0  0  0
    3.6956   -4.4722    1.1060 H   0  0  0  0  0  0  0  0  0  0  0  0
    2.8940   -0.8326   -2.1876 H   0  0  0  0  0  0  0  0  0  0  0  0
    1.1949    0.8972   -1.6813 H   0  0  0  0  0  0  0  0  0  0  0  0
   -0.9337    0.6357   -2.6286 H   0  0  0  0  0  0  0  0  0  0  0  0
   -2.0733   -0.7606   -4.2046 H   0  0  0  0  0  0  0  0  0  0  0  0
   -5.0338   -1.6887   -1.2928 H   0  0  0  0  0  0  0  0  0  0  0  0
   -3.8308   -0.2517    0.3406 H   0  0  0  0  0  0  0  0  0  0  0  0
   -1.4398    3.7256    1.9434 H   0  0  0  0  0  0  0  0  0  0  0  0
    0.6900    2.9221    3.0297 H   0  0  0  0  0  0  0  0  0  0  0  0
    1.5096    1.4569    2.4703 H   0  0  0  0  0  0  0  0  0  0  0  0
    2.2450    2.7549    0.3830 H   0  0  0  0  0  0  0  0  0  0  0  0
    1.3972    4.1941    1.0453 H   0  0  0  0  0  0  0  0  0  0  0  0
  1  2  3  0
  2  3  1  0
  3  4  2  0
  4  5  1  0
  5  6  2  0
  6  7  1  0
  7  8  2  0
  8  9  1  0
  9 10  1  0
 10 11  2  0
 11 12  1  0
 12 13  2  0
 13 14  1  0
 14 15  2  0
 15 16  1  0
 15 17  1  0
 17 18  2  0
 11 19  1  0
 19 20  2  0
 20 21  1  0
 21 22  1  0
 22 23  1  0
 23 24  1  0
  9 25  2  0
 25 26  1  0
 26  3  1  0
 26  6  1  0
 21 10  1  0
 18 12  1  0
  4 27  1  0
  7 28  1  0
  8 29  1  0
 13 30  1  0
 14 31  1  0
 17 32  1  0
 18 33  1  0
 20 34  1  0
 22 35  1  0
 22 36  1  0
 23 37  1  0
 23 38  1  0
M  END
$$$$
