@<TRIPOS>MOLECULE
*****
 38 41 0 0 0
SMALL
GASTEIGER

@<TRIPOS>ATOM
      1 N           1.3348   -3.6821    3.8741 N.1     1  UNL1       -0.1892
      2 C           1.7410   -3.3450    2.7965 C.1     1  UNL1        0.1208
      3 C           2.1972   -2.9454    1.5160 C.ar    1  UNL1        0.1618
      4 C           3.1883   -3.5744    0.7658 C.ar    1  UNL1        0.0659
      5 N           3.3713   -2.8938   -0.3706 N.ar    1  UNL1       -0.2333
      6 C           2.5324   -1.8750   -0.3466 C.ar    1  UNL1        0.1555
      7 C           2.3262   -0.8567   -1.2867 C.ar    1  UNL1       -0.0153
      8 C           1.3731    0.0794   -0.9746 C.ar    1  UNL1       -0.0290
      9 C           0.6494    0.0447    0.1827 C.ar    1  UNL1        0.1103
     10 C          -0.3397    1.0276    0.4638 C.ar    1  UNL1        0.0967
     11 C          -1.6069    1.1442   -0.0464 C.ar    1  UNL1        0.0982
     12 C          -2.3062    0.2974   -0.9946 C.ar    1  UNL1        0.0027
     13 C          -1.8275    0.1384   -2.2871 C.ar    1  UNL1       -0.0498
     14 C          -2.4919   -0.6624   -3.1897 C.ar    1  UNL1       -0.0258
     15 C          -3.6485   -1.3375   -2.8676 C.ar    1  UNL1        0.1234
     16 F          -4.3008   -2.1250   -3.7664 F       1  UNL1       -0.2055
     17 C          -4.1153   -1.1692   -1.5745 C.ar    1  UNL1       -0.0258
     18 C          -3.4467   -0.3676   -0.6748 C.ar    1  UNL1       -0.0498
     19 N          -2.1432    2.2380    0.5115 N.ar    1  UNL1       -0.2351
     20 C          -1.2752    2.8106    1.3443 C.ar    1  UNL1        0.0972
     21 N          -0.1621    2.0610    1.3134 N.ar    1  UNL1       -0.3259
     22 C           1.0042    2.3786    2.1067 C.3     1  UNL1        0.0530
     23 C           1.9074    3.2614    1.3103 C.3     1  UNL1        0.1080
     24 F           3.0415    3.5917    2.0372 F       1  UNL1       -0.2472
     25 N           0.8802   -0.9514    1.0591 N.ar    1  UNL1       -0.1623
     26 N           1.8020   -1.8681    0.7750 N.ar    1  UNL1       -0.2023
     27 H           3.6956   -4.4722    1.1060 H       1  UNL1        0.0859
     28 H           2.8940   -0.8326   -2.1876 H       1  UNL1        0.0655
     29 H           1.1949    0.8972   -1.6813 H       1  UNL1        0.0641
     30 H          -0.9337    0.6357   -2.6286 H       1  UNL1        0.0625
     31 H          -2.0733   -0.7606   -4.2046 H       1  UNL1        0.0646
     32 H          -5.0338   -1.6887   -1.2928 H       1  UNL1        0.0646
     33 H          -3.8308   -0.2517    0.3406 H       1  UNL1        0.0625
     34 H          -1.4398    3.7256    1.9434 H       1  UNL1        0.1029
     35 H           0.6900    2.9221    3.0297 H       1  UNL1        0.0518
     36 H           1.5096    1.4569    2.4703 H       1  UNL1        0.0518
     37 H           2.2450    2.7549    0.3830 H       1  UNL1        0.0633
     38 H           1.3972    4.1941    1.0453 H       1  UNL1        0.0633
@<TRIPOS>BOND
     1     1     2    3
     2     2     3    1
     3     3     4   ar
     4     4     5   ar
     5     5     6   ar
     6     6     7   ar
     7     7     8   ar
     8     8     9   ar
     9     9    10    1
    10    10    11   ar
    11    11    12    1
    12    12    13   ar
    13    13    14   ar
    14    14    15   ar
    15    15    16    1
    16    15    17   ar
    17    17    18   ar
    18    11    19   ar
    19    19    20   ar
    20    20    21   ar
    21    21    22    1
    22    22    23    1
    23    23    24    1
    24     9    25   ar
    25    25    26   ar
    26    26     3   ar
    27    26     6   ar
    28    21    10   ar
    29    18    12   ar
    30     4    27    1
    31     7    28    1
    32     8    29    1
    33    13    30    1
    34    14    31    1
    35    17    32    1
    36    18    33    1
    37    20    34    1
    38    22    35    1
    39    22    36    1
    40    23    37    1
    41    23    38    1
