
     RDKit          3D

 24 24  0  0  0  0  0  0  0  0999 V2000
   -4.1394   -1.0912   -0.1018 O   0  0  0  0  0  0  0  0  0  0  0  0
   -3.5005    0.1420   -0.0085 C   0  0  0  0  0  0  0  0  0  0  0  0
   -2.0293    0.0300    0.3222 C   0  0  0  0  0  0  0  0  0  0  0  0
   -1.5338    1.3141    0.3816 O   0  0  0  0  0  0  0  0  0  0  0  0
   -1.2821   -0.7777   -0.7074 C   0  0  0  0  0  0  0  0  0  0  0  0
    0.0192   -0.8716   -0.4070 O   0  0  0  0  0  0  0  0  0  0  0  0
    1.1497   -0.2274   -0.2248 C   0  0  0  0  0  0  0  0  0  0  0  0
    2.1304   -1.1819    0.1191 C   0  0  0  0  0  0  0  0  0  0  0  0
    3.4549   -0.8559    0.3843 C   0  0  0  0  0  0  0  0  0  0  0  0
    3.7925    0.4850    0.2965 C   0  0  0  0  0  0  0  0  0  0  0  0
    5.4427    1.0245    0.6108 Cl  0  0  0  0  0  0  0  0  0  0  0  0
    2.9095    1.4806   -0.0304 C   0  0  0  0  0  0  0  0  0  0  0  0
    1.6233    1.0628   -0.2756 C   0  0  0  0  0  0  0  0  0  0  0  0
   -3.7552   -1.6775   -0.7702 H   0  0  0  0  0  0  0  0  0  0  0  0
   -3.5747    0.6234   -1.0034 H   0  0  0  0  0  0  0  0  0  0  0  0
   -3.9548    0.7916    0.7558 H   0  0  0  0  0  0  0  0  0  0  0  0
   -1.8679   -0.4366    1.3224 H   0  0  0  0  0  0  0  0  0  0  0  0
   -1.9440    1.8490   -0.3504 H   0  0  0  0  0  0  0  0  0  0  0  0
   -1.7229   -1.8346   -0.6858 H   0  0  0  0  0  0  0  0  0  0  0  0
   -1.5206   -0.3621   -1.7255 H   0  0  0  0  0  0  0  0  0  0  0  0
    2.0331   -2.2793    0.2322 H   0  0  0  0  0  0  0  0  0  0  0  0
    4.2632   -1.5038    0.6506 H   0  0  0  0  0  0  0  0  0  0  0  0
    3.1245    2.5215   -0.1094 H   0  0  0  0  0  0  0  0  0  0  0  0
    0.8821    1.7752   -0.5496 H   0  0  0  0  0  0  0  0  0  0  0  0
  1  2  1  0
  2  3  1  0
  3  4  1  0
  3  5  1  0
  5  6  1  0
  6  7  1  0
  7  8  2  0
  8  9  1  0
  9 10  2  0
 10 11  1  0
 10 12  1  0
 12 13  2  0
 13  7  1  0
  1 14  1  0
  2 15  1  0
  2 16  1  0
  3 17  1  0
  4 18  1  0
  5 19  1  0
  5 20  1  0
  8 21  1  0
  9 22  1  0
 12 23  1  0
 13 24  1  0
M  END
$$$$
