@<TRIPOS>MOLECULE
*****
 24 24 0 0 0
SMALL
GASTEIGER

@<TRIPOS>ATOM
      1 O          -4.1394   -1.0912   -0.1018 O.3     1  UNL1       -0.3923
      2 C          -3.5005    0.1420   -0.0085 C.3     1  UNL1        0.0733
      3 C          -2.0293    0.0300    0.3222 C.3     1  UNL1        0.1120
      4 O          -1.5338    1.3141    0.3816 O.3     1  UNL1       -0.3861
      5 C          -1.2821   -0.7777   -0.7074 C.3     1  UNL1        0.1175
      6 O           0.0192   -0.8716   -0.4070 O.3     1  UNL1       -0.4893
      7 C           1.1497   -0.2274   -0.2248 C.ar    1  UNL1        0.1207
      8 C           2.1304   -1.1819    0.1191 C.ar    1  UNL1       -0.0186
      9 C           3.4549   -0.8559    0.3843 C.ar    1  UNL1       -0.0399
     10 C           3.7925    0.4850    0.2965 C.ar    1  UNL1        0.0412
     11 CL          5.4427    1.0245    0.6108 Cl      1  UNL1       -0.0835
     12 C           2.9095    1.4806   -0.0304 C.ar    1  UNL1       -0.0399
     13 C           1.6233    1.0628   -0.2756 C.ar    1  UNL1       -0.0186
     14 H          -3.7552   -1.6775   -0.7702 H       1  UNL1        0.2095
     15 H          -3.5747    0.6234   -1.0034 H       1  UNL1        0.0584
     16 H          -3.9548    0.7916    0.7558 H       1  UNL1        0.0584
     17 H          -1.8679   -0.4366    1.3224 H       1  UNL1        0.0650
     18 H          -1.9440    1.8490   -0.3504 H       1  UNL1        0.2100
     19 H          -1.7229   -1.8346   -0.6858 H       1  UNL1        0.0723
     20 H          -1.5206   -0.3621   -1.7255 H       1  UNL1        0.0723
     21 H           2.0331   -2.2793    0.2322 H       1  UNL1        0.0654
     22 H           4.2632   -1.5038    0.6506 H       1  UNL1        0.0633
     23 H           3.1245    2.5215   -0.1094 H       1  UNL1        0.0633
     24 H           0.8821    1.7752   -0.5496 H       1  UNL1        0.0654
@<TRIPOS>BOND
     1     1     2    1
     2     2     3    1
     3     3     4    1
     4     3     5    1
     5     5     6    1
     6     6     7    1
     7     7     8   ar
     8     8     9   ar
     9     9    10   ar
    10    10    11    1
    11    10    12   ar
    12    12    13   ar
    13    13     7   ar
    14     1    14    1
    15     2    15    1
    16     2    16    1
    17     3    17    1
    18     4    18    1
    19     5    19    1
    20     5    20    1
    21     8    21    1
    22     9    22    1
    23    12    23    1
    24    13    24    1
