@<TRIPOS>MOLECULE
*****
 32 34 0 0 0
SMALL
GASTEIGER

@<TRIPOS>ATOM
      1 O           1.7404    0.2875   -3.0358 O.2     1  UNL1       -0.2917
      2 C           1.2797   -0.0268   -1.9277 C.2     1  UNL1        0.1740
      3 C          -0.1695   -0.2315   -1.6440 C.3     1  UNL1        0.0520
      4 C          -0.4555    0.4143   -0.3157 C.3     1  UNL1        0.1322
      5 C          -1.8991    0.3652    0.0312 C.ar    1  UNL1       -0.0067
      6 C          -2.7092    1.4770   -0.0786 C.ar    1  UNL1       -0.0516
      7 C          -4.0568    1.4213    0.2482 C.ar    1  UNL1       -0.0198
      8 C          -4.6499    0.2601    0.6961 C.ar    1  UNL1        0.1169
      9 O          -6.0078    0.2233    1.0202 O.3     1  UNL1       -0.5068
     10 C          -3.8412   -0.8511    0.8061 C.ar    1  UNL1       -0.0198
     11 C          -2.4897   -0.7975    0.4790 C.ar    1  UNL1       -0.0516
     12 O           0.3253   -0.2493    0.6853 O.3     1  UNL1       -0.4828
     13 C           1.6932   -0.3133    0.4535 C.ar    1  UNL1        0.1389
     14 C           2.5993   -0.4865    1.4990 C.ar    1  UNL1        0.0225
     15 C           3.9615   -0.5532    1.2952 C.ar    1  UNL1        0.1238
     16 O           4.8017   -0.7274    2.3903 O.3     1  UNL1       -0.5065
     17 C           4.4391   -0.4440    0.0064 C.ar    1  UNL1        0.0222
     18 C           3.5890   -0.2717   -1.0646 C.ar    1  UNL1        0.1343
     19 O           4.0911   -0.1640   -2.3541 O.3     1  UNL1       -0.5058
     20 C           2.2343   -0.2105   -0.8140 C.ar    1  UNL1        0.1007
     21 H          -0.8079    0.1679   -2.4326 H       1  UNL1        0.0385
     22 H          -0.3950   -1.3315   -1.5649 H       1  UNL1        0.0385
     23 H          -0.0705    1.4482   -0.3524 H       1  UNL1        0.0789
     24 H          -2.2396    2.3983   -0.4338 H       1  UNL1        0.0623
     25 H          -4.6797    2.3010    0.1570 H       1  UNL1        0.0654
     26 H          -6.3669    0.8629    1.7444 H       1  UNL1        0.2921
     27 H          -4.2908   -1.7769    1.1578 H       1  UNL1        0.0654
     28 H          -1.8696   -1.6738    0.5698 H       1  UNL1        0.0623
     29 H           2.1602   -0.5658    2.4905 H       1  UNL1        0.0691
     30 H           4.4364   -1.2323    3.1886 H       1  UNL1        0.2921
     31 H           5.5089   -0.4975   -0.1433 H       1  UNL1        0.0691
     32 H           4.1386    0.7778   -2.7571 H       1  UNL1        0.2922
@<TRIPOS>BOND
     1     1     2    2
     2     2     3    1
     3     3     4    1
     4     4     5    1
     5     5     6   ar
     6     6     7   ar
     7     7     8   ar
     8     8     9    1
     9     8    10   ar
    10    10    11   ar
    11     4    12    1
    12    12    13    1
    13    13    14   ar
    14    14    15   ar
    15    15    16    1
    16    15    17   ar
    17    17    18   ar
    18    18    19    1
    19    18    20   ar
    20    20     2    1
    21    11     5   ar
    22    20    13   ar
    23     3    21    1
    24     3    22    1
    25     4    23    1
    26     6    24    1
    27     7    25    1
    28     9    26    1
    29    10    27    1
    30    11    28    1
    31    14    29    1
    32    16    30    1
    33    17    31    1
    34    19    32    1
