
     RDKit          3D

 32 34  0  0  0  0  0  0  0  0999 V2000
    1.7404    0.2875   -3.0358 O   0  0  0  0  0  0  0  0  0  0  0  0
    1.2797   -0.0268   -1.9277 C   0  0  0  0  0  0  0  0  0  0  0  0
   -0.1695   -0.2315   -1.6440 C   0  0  0  0  0  0  0  0  0  0  0  0
   -0.4555    0.4143   -0.3157 C   0  0  1  0  0  0  0  0  0  0  0  0
   -1.8991    0.3652    0.0312 C   0  0  0  0  0  0  0  0  0  0  0  0
   -2.7092    1.4770   -0.0786 C   0  0  0  0  0  0  0  0  0  0  0  0
   -4.0568    1.4213    0.2482 C   0  0  0  0  0  0  0  0  0  0  0  0
   -4.6499    0.2601    0.6961 C   0  0  0  0  0  0  0  0  0  0  0  0
   -6.0078    0.2233    1.0202 O   0  0  0  0  0  0  0  0  0  0  0  0
   -3.8412   -0.8511    0.8061 C   0  0  0  0  0  0  0  0  0  0  0  0
   -2.4897   -0.7975    0.4790 C   0  0  0  0  0  0  0  0  0  0  0  0
    0.3253   -0.2493    0.6853 O   0  0  0  0  0  0  0  0  0  0  0  0
    1.6932   -0.3133    0.4535 C   0  0  0  0  0  0  0  0  0  0  0  0
    2.5993   -0.4865    1.4990 C   0  0  0  0  0  0  0  0  0  0  0  0
    3.9615   -0.5532    1.2952 C   0  0  0  0  0  0  0  0  0  0  0  0
    4.8017   -0.7274    2.3903 O   0  0  0  0  0  0  0  0  0  0  0  0
    4.4391   -0.4440    0.0064 C   0  0  0  0  0  0  0  0  0  0  0  0
    3.5890   -0.2717   -1.0646 C   0  0  0  0  0  0  0  0  0  0  0  0
    4.0911   -0.1640   -2.3541 O   0  0  0  0  0  0  0  0  0  0  0  0
    2.2343   -0.2105   -0.8140 C   0  0  0  0  0  0  0  0  0  0  0  0
   -0.8079    0.1679   -2.4326 H   0  0  0  0  0  0  0  0  0  0  0  0
   -0.3950   -1.3315   -1.5649 H   0  0  0  0  0  0  0  0  0  0  0  0
   -0.0705    1.4482   -0.3524 H   0  0  0  0  0  0  0  0  0  0  0  0
   -2.2396    2.3983   -0.4338 H   0  0  0  0  0  0  0  0  0  0  0  0
   -4.6797    2.3010    0.1570 H   0  0  0  0  0  0  0  0  0  0  0  0
   -6.3669    0.8629    1.7444 H   0  0  0  0  0  0  0  0  0  0  0  0
   -4.2908   -1.7769    1.1578 H   0  0  0  0  0  0  0  0  0  0  0  0
   -1.8696   -1.6738    0.5698 H   0  0  0  0  0  0  0  0  0  0  0  0
    2.1602   -0.5658    2.4905 H   0  0  0  0  0  0  0  0  0  0  0  0
    4.4364   -1.2323    3.1886 H   0  0  0  0  0  0  0  0  0  0  0  0
    5.5089   -0.4975   -0.1433 H   0  0  0  0  0  0  0  0  0  0  0  0
    4.1386    0.7778   -2.7571 H   0  0  0  0  0  0  0  0  0  0  0  0
  1  2  2  0
  2  3  1  0
  3  4  1  0
  4  5  1  0
  5  6  2  0
  6  7  1  0
  7  8  2  0
  8  9  1  0
  8 10  1  0
 10 11  2  0
  4 12  1  0
 12 13  1  0
 13 14  2  0
 14 15  1  0
 15 16  1  0
 15 17  2  0
 17 18  1  0
 18 19  1  0
 18 20  2  0
 20  2  1  0
 11  5  1  0
 20 13  1  0
  3 21  1  0
  3 22  1  0
  4 23  1  6
  6 24  1  0
  7 25  1  0
  9 26  1  0
 10 27  1  0
 11 28  1  0
 14 29  1  0
 16 30  1  0
 17 31  1  0
 19 32  1  0
M  END
$$$$
