@<TRIPOS>MOLECULE
*****
 67 73 0 0 0
SMALL
GASTEIGER

@<TRIPOS>ATOM
      1 O          -5.9438   -1.1755    1.8164 O.2     1  UNL1       -0.2697
      2 C          -5.3241   -0.2362    1.2438 C.2     1  UNL1        0.2519
      3 N          -5.9682    0.9935    0.9684 N.am    1  UNL1       -0.2483
      4 C          -5.0154    1.7951    0.3441 C.2     1  UNL1        0.2519
      5 O          -5.2571    2.9830   -0.0443 O.2     1  UNL1       -0.2697
      6 C          -3.7648    1.0390    0.2363 C.2     1  UNL1        0.0590
      7 C          -3.9453   -0.1882    0.7778 C.2     1  UNL1        0.0590
      8 C          -2.8501   -1.2205    0.8113 C.ar    1  UNL1        0.0131
      9 C          -1.5474   -1.0870    1.1999 C.ar    1  UNL1        0.0137
     10 N          -0.9549   -2.2746    1.0231 N.ar    1  UNL1       -0.3438
     11 C          -1.8437   -3.1964    0.5259 C.ar    1  UNL1        0.0497
     12 C          -1.7371   -4.5446    0.1720 C.ar    1  UNL1       -0.0376
     13 C          -2.8565   -5.1764   -0.3103 C.ar    1  UNL1       -0.0598
     14 C          -4.0610   -4.5340   -0.4542 C.ar    1  UNL1       -0.0611
     15 C          -4.1628   -3.2275   -0.1108 C.ar    1  UNL1       -0.0520
     16 C          -3.0433   -2.5466    0.3865 C.ar    1  UNL1        0.0077
     17 C           0.4639   -2.6116    1.2601 C.3     1  UNL1        0.0467
     18 C           1.3532   -2.2116    0.1327 C.3     1  UNL1        0.0660
     19 O           1.1950   -0.8365   -0.1038 O.3     1  UNL1       -0.3735
     20 C           2.0389   -0.4231   -1.1246 C.3     1  UNL1        0.0730
     21 C           2.9066    0.6700   -0.5363 C.3     1  UNL1        0.0252
     22 N           3.6698    0.1846    0.5646 N.3     1  UNL1       -0.2999
     23 C           4.3764    1.3252    1.1273 C.3     1  UNL1       -0.0010
     24 C           5.7649    1.3271    0.5667 C.3     1  UNL1       -0.0390
     25 C           5.8841    0.0502   -0.2364 C.3     1  UNL1       -0.0390
     26 C           4.6742   -0.7703    0.1996 C.3     1  UNL1       -0.0010
     27 C           1.3343    0.1202   -2.3180 C.3     1  UNL1       -0.0074
     28 C           0.6368    1.3910   -2.2640 C.3     1  UNL1        0.0257
     29 N          -0.5047    1.6203   -1.3818 N.ar    1  UNL1       -0.3459
     30 C          -1.6067    0.8858   -1.2130 C.ar    1  UNL1        0.0136
     31 C          -2.4250    1.4830   -0.3124 C.ar    1  UNL1        0.0131
     32 C          -1.7735    2.6608    0.0888 C.ar    1  UNL1        0.0077
     33 C          -2.1538    3.6797    0.9974 C.ar    1  UNL1       -0.0520
     34 C          -1.3096    4.7429    1.1959 C.ar    1  UNL1       -0.0611
     35 C          -0.1196    4.8000    0.5156 C.ar    1  UNL1       -0.0598
     36 C           0.2735    3.8330   -0.3659 C.ar    1  UNL1       -0.0376
     37 C          -0.5929    2.7447   -0.5679 C.ar    1  UNL1        0.0497
     38 H          -6.9724    1.2601    1.1896 H       1  UNL1        0.1581
     39 H          -1.0103   -0.1399    1.6176 H       1  UNL1        0.0815
     40 H          -0.7966   -5.0623    0.2800 H       1  UNL1        0.0638
     41 H          -2.7616   -6.2305   -0.5837 H       1  UNL1        0.0618
     42 H          -4.9538   -5.0226   -0.8348 H       1  UNL1        0.0618
     43 H          -5.0507   -2.6377   -0.1981 H       1  UNL1        0.0624
     44 H           0.9139   -2.3520    2.2011 H       1  UNL1        0.0514
     45 H           0.5560   -3.7480    1.2549 H       1  UNL1        0.0514
     46 H           2.3854   -2.5100    0.2787 H       1  UNL1        0.0578
     47 H           0.9390   -2.7059   -0.7958 H       1  UNL1        0.0578
     48 H           2.6281   -1.3286   -1.4231 H       1  UNL1        0.0609
     49 H           3.5800    1.1131   -1.3120 H       1  UNL1        0.0452
     50 H           2.2914    1.5172   -0.1684 H       1  UNL1        0.0452
     51 H           4.3633    1.3184    2.2417 H       1  UNL1        0.0427
     52 H           3.8831    2.2814    0.8242 H       1  UNL1        0.0427
     53 H           5.9803    2.2120   -0.0843 H       1  UNL1        0.0278
     54 H           6.5065    1.2441    1.3953 H       1  UNL1        0.0278
     55 H           5.8432    0.2915   -1.3186 H       1  UNL1        0.0278
     56 H           6.7987   -0.5099   -0.0298 H       1  UNL1        0.0278
     57 H           4.4436   -1.4297   -0.6334 H       1  UNL1        0.0427
     58 H           4.9218   -1.3839    1.0957 H       1  UNL1        0.0427
     59 H           0.5489   -0.6681   -2.6301 H       1  UNL1        0.0308
     60 H           2.0269    0.0580   -3.2267 H       1  UNL1        0.0308
     61 H           1.4714    2.1519   -2.0053 H       1  UNL1        0.0492
     62 H           0.4308    1.7263   -3.3218 H       1  UNL1        0.0492
     63 H          -1.7988   -0.1197   -1.8038 H       1  UNL1        0.0815
     64 H          -3.0985    3.5784    1.5055 H       1  UNL1        0.0624
     65 H          -1.6207    5.5136    1.8966 H       1  UNL1        0.0618
     66 H           0.5348    5.6457    0.6835 H       1  UNL1        0.0618
     67 H           1.2062    3.8686   -0.9052 H       1  UNL1        0.0638
@<TRIPOS>BOND
     1     1     2    2
     2     2     3   am
     3     3     4   am
     4     4     5    2
     5     4     6    1
     6     6     7    2
     7     7     8    1
     8     8     9   ar
     9     9    10   ar
    10    10    11   ar
    11    11    12   ar
    12    12    13   ar
    13    13    14   ar
    14    14    15   ar
    15    15    16   ar
    16    10    17    1
    17    17    18    1
    18    18    19    1
    19    19    20    1
    20    20    21    1
    21    21    22    1
    22    22    23    1
    23    23    24    1
    24    24    25    1
    25    25    26    1
    26    20    27    1
    27    27    28    1
    28    28    29    1
    29    29    30   ar
    30    30    31   ar
    31    31    32   ar
    32    32    33   ar
    33    33    34   ar
    34    34    35   ar
    35    35    36   ar
    36    36    37   ar
    37     7     2    1
    38    16     8   ar
    39    26    22    1
    40    37    29   ar
    41    31     6    1
    42    37    32   ar
    43    16    11   ar
    44     3    38    1
    45     9    39    1
    46    12    40    1
    47    13    41    1
    48    14    42    1
    49    15    43    1
    50    17    44    1
    51    17    45    1
    52    18    46    1
    53    18    47    1
    54    20    48    1
    55    21    49    1
    56    21    50    1
    57    23    51    1
    58    23    52    1
    59    24    53    1
    60    24    54    1
    61    25    55    1
    62    25    56    1
    63    26    57    1
    64    26    58    1
    65    27    59    1
    66    27    60    1
    67    28    61    1
    68    28    62    1
    69    30    63    1
    70    33    64    1
    71    34    65    1
    72    35    66    1
    73    36    67    1
