@<TRIPOS>MOLECULE
*****
 36 38 0 0 0
SMALL
GASTEIGER

@<TRIPOS>ATOM
      1 C           4.2042   -2.0907    0.2476 C.3     1  UNL1       -0.0608
      2 C           2.7196   -2.3538    0.3667 C.3     1  UNL1       -0.0242
      3 C           1.9249   -1.1502    0.2097 C.ar    1  UNL1       -0.0080
      4 C           0.5373   -0.9118    0.2419 C.ar    1  UNL1       -0.0405
      5 C           0.1288    0.3793    0.0511 C.ar    1  UNL1        0.0295
      6 C           1.0933    1.3673   -0.1607 C.ar    1  UNL1        0.0836
      7 S           2.6852    0.5354   -0.1060 S.2     1  UNL1       -0.0776
      8 N           0.9477    2.7551   -0.3799 N.am    1  UNL1       -0.2668
      9 C           2.1917    3.3496   -0.8335 C.3     1  UNL1        0.0088
     10 C          -0.2361    3.5599   -0.2038 C.2     1  UNL1        0.2413
     11 O          -0.1173    4.6696   -0.7977 O.2     1  UNL1       -0.2732
     12 C          -1.4263    3.1297    0.5733 C.3     1  UNL1        0.1170
     13 N          -1.8804    1.8089    0.2986 N.2     1  UNL1       -0.2733
     14 C          -1.3124    0.6626    0.0794 C.2     1  UNL1        0.0769
     15 C          -2.1857   -0.4940   -0.1708 C.ar    1  UNL1        0.0189
     16 C          -2.7399   -0.9561   -1.3293 C.ar    1  UNL1       -0.0512
     17 C          -3.5284   -2.0704   -1.2976 C.ar    1  UNL1       -0.0611
     18 C          -3.7868   -2.7508   -0.1272 C.ar    1  UNL1       -0.0603
     19 C          -3.2321   -2.2989    1.0716 C.ar    1  UNL1       -0.0427
     20 C          -2.4267   -1.1590    1.0327 C.ar    1  UNL1        0.0501
     21 CL         -1.8093   -0.7239    2.6172 Cl      1  UNL1       -0.0829
     22 H           4.4968   -2.0833   -0.8303 H       1  UNL1        0.0233
     23 H           4.7264   -2.8815    0.8224 H       1  UNL1        0.0233
     24 H           4.4199   -1.0928    0.6945 H       1  UNL1        0.0233
     25 H           2.5394   -2.8370    1.3476 H       1  UNL1        0.0316
     26 H           2.4413   -3.0771   -0.4273 H       1  UNL1        0.0316
     27 H          -0.0622   -1.7865    0.4159 H       1  UNL1        0.0633
     28 H           3.0314    2.8841   -0.2773 H       1  UNL1        0.0433
     29 H           2.2531    3.2489   -1.9179 H       1  UNL1        0.0433
     30 H           2.1603    4.4231   -0.5174 H       1  UNL1        0.0433
     31 H          -1.2195    3.3270    1.6386 H       1  UNL1        0.0605
     32 H          -2.2484    3.8415    0.2991 H       1  UNL1        0.0605
     33 H          -2.4663   -0.3415   -2.1792 H       1  UNL1        0.0625
     34 H          -3.9379   -2.3854   -2.2510 H       1  UNL1        0.0618
     35 H          -4.4159   -3.6282   -0.1447 H       1  UNL1        0.0618
     36 H          -3.4696   -2.8688    1.9437 H       1  UNL1        0.0632
@<TRIPOS>BOND
     1     1     2    1
     2     2     3    1
     3     3     4   ar
     4     4     5   ar
     5     5     6   ar
     6     6     7   ar
     7     6     8    1
     8     8     9    1
     9     8    10   am
    10    10    11    2
    11    10    12    1
    12    12    13    1
    13    13    14    2
    14    14    15    1
    15    15    16   ar
    16    16    17   ar
    17    17    18   ar
    18    18    19   ar
    19    19    20   ar
    20    20    21    1
    21     7     3   ar
    22    20    15   ar
    23    14     5    1
    24     1    22    1
    25     1    23    1
    26     1    24    1
    27     2    25    1
    28     2    26    1
    29     4    27    1
    30     9    28    1
    31     9    29    1
    32     9    30    1
    33    12    31    1
    34    12    32    1
    35    16    33    1
    36    17    34    1
    37    18    35    1
    38    19    36    1
