
     RDKit          3D

 36 38  0  0  0  0  0  0  0  0999 V2000
    4.2042   -2.0907    0.2476 C   0  0  0  0  0  0  0  0  0  0  0  0
    2.7196   -2.3538    0.3667 C   0  0  0  0  0  0  0  0  0  0  0  0
    1.9249   -1.1502    0.2097 C   0  0  0  0  0  0  0  0  0  0  0  0
    0.5373   -0.9118    0.2419 C   0  0  0  0  0  0  0  0  0  0  0  0
    0.1288    0.3793    0.0511 C   0  0  0  0  0  0  0  0  0  0  0  0
    1.0933    1.3673   -0.1607 C   0  0  0  0  0  0  0  0  0  0  0  0
    2.6852    0.5354   -0.1060 S   0  0  0  0  0  0  0  0  0  0  0  0
    0.9477    2.7551   -0.3799 N   0  0  0  0  0  0  0  0  0  0  0  0
    2.1917    3.3496   -0.8335 C   0  0  0  0  0  0  0  0  0  0  0  0
   -0.2361    3.5599   -0.2038 C   0  0  0  0  0  0  0  0  0  0  0  0
   -0.1173    4.6696   -0.7977 O   0  0  0  0  0  0  0  0  0  0  0  0
   -1.4263    3.1297    0.5733 C   0  0  0  0  0  0  0  0  0  0  0  0
   -1.8804    1.8089    0.2986 N   0  0  0  0  0  0  0  0  0  0  0  0
   -1.3124    0.6626    0.0794 C   0  0  0  0  0  0  0  0  0  0  0  0
   -2.1857   -0.4940   -0.1708 C   0  0  0  0  0  0  0  0  0  0  0  0
   -2.7399   -0.9561   -1.3293 C   0  0  0  0  0  0  0  0  0  0  0  0
   -3.5284   -2.0704   -1.2976 C   0  0  0  0  0  0  0  0  0  0  0  0
   -3.7868   -2.7508   -0.1272 C   0  0  0  0  0  0  0  0  0  0  0  0
   -3.2321   -2.2989    1.0716 C   0  0  0  0  0  0  0  0  0  0  0  0
   -2.4267   -1.1590    1.0327 C   0  0  0  0  0  0  0  0  0  0  0  0
   -1.8093   -0.7239    2.6172 Cl  0  0  0  0  0  0  0  0  0  0  0  0
    4.4968   -2.0833   -0.8303 H   0  0  0  0  0  0  0  0  0  0  0  0
    4.7264   -2.8815    0.8224 H   0  0  0  0  0  0  0  0  0  0  0  0
    4.4199   -1.0928    0.6945 H   0  0  0  0  0  0  0  0  0  0  0  0
    2.5394   -2.8370    1.3476 H   0  0  0  0  0  0  0  0  0  0  0  0
    2.4413   -3.0771   -0.4273 H   0  0  0  0  0  0  0  0  0  0  0  0
   -0.0622   -1.7865    0.4159 H   0  0  0  0  0  0  0  0  0  0  0  0
    3.0314    2.8841   -0.2773 H   0  0  0  0  0  0  0  0  0  0  0  0
    2.2531    3.2489   -1.9179 H   0  0  0  0  0  0  0  0  0  0  0  0
    2.1603    4.4231   -0.5174 H   0  0  0  0  0  0  0  0  0  0  0  0
   -1.2195    3.3270    1.6386 H   0  0  0  0  0  0  0  0  0  0  0  0
   -2.2484    3.8415    0.2991 H   0  0  0  0  0  0  0  0  0  0  0  0
   -2.4663   -0.3415   -2.1792 H   0  0  0  0  0  0  0  0  0  0  0  0
   -3.9379   -2.3854   -2.2510 H   0  0  0  0  0  0  0  0  0  0  0  0
   -4.4159   -3.6282   -0.1447 H   0  0  0  0  0  0  0  0  0  0  0  0
   -3.4696   -2.8688    1.9437 H   0  0  0  0  0  0  0  0  0  0  0  0
  1  2  1  0
  2  3  1  0
  3  4  2  0
  4  5  1  0
  5  6  2  0
  6  7  1  0
  6  8  1  0
  8  9  1  0
  8 10  1  0
 10 11  2  0
 10 12  1  0
 12 13  1  0
 13 14  2  0
 14 15  1  0
 15 16  2  0
 16 17  1  0
 17 18  2  0
 18 19  1  0
 19 20  2  0
 20 21  1  0
  7  3  1  0
 20 15  1  0
 14  5  1  0
  1 22  1  0
  1 23  1  0
  1 24  1  0
  2 25  1  0
  2 26  1  0
  4 27  1  0
  9 28  1  0
  9 29  1  0
  9 30  1  0
 12 31  1  0
 12 32  1  0
 16 33  1  0
 17 34  1  0
 18 35  1  0
 19 36  1  0
M  END
$$$$
