@<TRIPOS>MOLECULE
*****
 43 45 0 0 0
SMALL
GASTEIGER

@<TRIPOS>ATOM
      1 N           5.0663    0.8904    2.3716 N.3     1  UNL1       -0.3299
      2 C           5.3279   -0.4069    1.8269 C.3     1  UNL1       -0.0038
      3 C           5.4410   -0.4103    0.3194 C.3     1  UNL1       -0.0063
      4 C           4.1988    0.0671   -0.3816 C.3     1  UNL1        0.0907
      5 O           3.1000   -0.7401   -0.0684 O.3     1  UNL1       -0.4919
      6 C           1.8460   -0.4834   -0.6069 C.ar    1  UNL1        0.1205
      7 C           0.7268   -1.2669   -0.3171 C.ar    1  UNL1       -0.0194
      8 C          -0.5018   -0.9618   -0.8860 C.ar    1  UNL1       -0.0505
      9 C          -0.6686    0.0903   -1.7325 C.ar    1  UNL1       -0.0141
     10 C           0.4314    0.8817   -2.0334 C.ar    1  UNL1       -0.0505
     11 C           1.6772    0.5936   -1.4728 C.ar    1  UNL1       -0.0194
     12 C          -2.0165    0.2411   -2.2178 C.ar    1  UNL1        0.0273
     13 C          -3.2454    0.4844   -1.6784 C.ar    1  UNL1        0.0769
     14 N          -4.1421    0.5102   -2.6980 N.ar    1  UNL1       -0.2763
     15 N          -3.5366    0.2957   -3.8457 N.ar    1  UNL1       -0.1811
     16 C          -2.2063    0.1228   -3.5872 C.ar    1  UNL1        0.0575
     17 C          -3.3849    0.6596   -0.2336 C.ar    1  UNL1        0.0434
     18 C          -2.7739    1.6933    0.4462 C.ar    1  UNL1       -0.0272
     19 C          -2.9516    1.7920    1.8098 C.ar    1  UNL1        0.0831
     20 CL         -2.1790    3.1102    2.7066 Cl      1  UNL1       -0.0797
     21 C          -3.7166    0.9008    2.5357 C.ar    1  UNL1        0.1386
     22 O          -3.8579    1.0535    3.9110 O.3     1  UNL1       -0.5052
     23 C          -4.3087   -0.1179    1.8110 C.ar    1  UNL1        0.0234
     24 C          -4.1642   -0.2573    0.4698 C.ar    1  UNL1        0.1296
     25 O          -4.8214   -1.3357   -0.1307 O.3     1  UNL1       -0.5060
     26 H           5.6613    1.0312    3.2077 H       1  UNL1        0.1182
     27 H           4.0829    1.0099    2.7031 H       1  UNL1        0.1182
     28 H           4.5981   -1.1847    2.1553 H       1  UNL1        0.0423
     29 H           6.3147   -0.7507    2.1974 H       1  UNL1        0.0423
     30 H           5.6037   -1.4650    0.0295 H       1  UNL1        0.0310
     31 H           6.3207    0.1756    0.0026 H       1  UNL1        0.0310
     32 H           4.4299    0.0299   -1.4670 H       1  UNL1        0.0697
     33 H           3.9811    1.1429   -0.1719 H       1  UNL1        0.0697
     34 H           0.9428   -2.0789    0.3608 H       1  UNL1        0.0654
     35 H          -1.2608   -1.6481   -0.5714 H       1  UNL1        0.0625
     36 H           0.2418    1.6977   -2.7068 H       1  UNL1        0.0625
     37 H           2.4865    1.2558   -1.7547 H       1  UNL1        0.0654
     38 H          -5.1532    0.6920   -2.4284 H       1  UNL1        0.1889
     39 H          -1.5519   -0.0683   -4.4413 H       1  UNL1        0.0854
     40 H          -2.1837    2.3806   -0.1150 H       1  UNL1        0.0641
     41 H          -4.6711    0.8306    4.4433 H       1  UNL1        0.2922
     42 H          -4.9091   -0.8081    2.4187 H       1  UNL1        0.0691
     43 H          -4.2736   -2.2071   -0.1796 H       1  UNL1        0.2922
@<TRIPOS>BOND
     1     1     2    1
     2     2     3    1
     3     3     4    1
     4     4     5    1
     5     5     6    1
     6     6     7   ar
     7     7     8   ar
     8     8     9   ar
     9     9    10   ar
    10    10    11   ar
    11     9    12    1
    12    12    13   ar
    13    13    14   ar
    14    14    15   ar
    15    15    16   ar
    16    13    17    1
    17    17    18   ar
    18    18    19   ar
    19    19    20    1
    20    19    21   ar
    21    21    22    1
    22    21    23   ar
    23    23    24   ar
    24    24    25    1
    25    11     6   ar
    26    16    12   ar
    27    24    17   ar
    28     1    26    1
    29     1    27    1
    30     2    28    1
    31     2    29    1
    32     3    30    1
    33     3    31    1
    34     4    32    1
    35     4    33    1
    36     7    34    1
    37     8    35    1
    38    10    36    1
    39    11    37    1
    40    14    38    1
    41    16    39    1
    42    18    40    1
    43    22    41    1
    44    23    42    1
    45    25    43    1
