
     RDKit          3D

 43 45  0  0  0  0  0  0  0  0999 V2000
    5.0663    0.8904    2.3716 N   0  0  0  0  0  0  0  0  0  0  0  0
    5.3279   -0.4069    1.8269 C   0  0  0  0  0  0  0  0  0  0  0  0
    5.4410   -0.4103    0.3194 C   0  0  0  0  0  0  0  0  0  0  0  0
    4.1988    0.0671   -0.3816 C   0  0  0  0  0  0  0  0  0  0  0  0
    3.1000   -0.7401   -0.0684 O   0  0  0  0  0  0  0  0  0  0  0  0
    1.8460   -0.4834   -0.6069 C   0  0  0  0  0  0  0  0  0  0  0  0
    0.7268   -1.2669   -0.3171 C   0  0  0  0  0  0  0  0  0  0  0  0
   -0.5018   -0.9618   -0.8860 C   0  0  0  0  0  0  0  0  0  0  0  0
   -0.6686    0.0903   -1.7325 C   0  0  0  0  0  0  0  0  0  0  0  0
    0.4314    0.8817   -2.0334 C   0  0  0  0  0  0  0  0  0  0  0  0
    1.6772    0.5936   -1.4728 C   0  0  0  0  0  0  0  0  0  0  0  0
   -2.0165    0.2411   -2.2178 C   0  0  0  0  0  0  0  0  0  0  0  0
   -3.2454    0.4844   -1.6784 C   0  0  0  0  0  0  0  0  0  0  0  0
   -4.1421    0.5102   -2.6980 N   0  0  0  0  0  0  0  0  0  0  0  0
   -3.5366    0.2957   -3.8457 N   0  0  0  0  0  0  0  0  0  0  0  0
   -2.2063    0.1228   -3.5872 C   0  0  0  0  0  0  0  0  0  0  0  0
   -3.3849    0.6596   -0.2336 C   0  0  0  0  0  0  0  0  0  0  0  0
   -2.7739    1.6933    0.4462 C   0  0  0  0  0  0  0  0  0  0  0  0
   -2.9516    1.7920    1.8098 C   0  0  0  0  0  0  0  0  0  0  0  0
   -2.1790    3.1102    2.7066 Cl  0  0  0  0  0  0  0  0  0  0  0  0
   -3.7166    0.9008    2.5357 C   0  0  0  0  0  0  0  0  0  0  0  0
   -3.8579    1.0535    3.9110 O   0  0  0  0  0  0  0  0  0  0  0  0
   -4.3087   -0.1179    1.8110 C   0  0  0  0  0  0  0  0  0  0  0  0
   -4.1642   -0.2573    0.4698 C   0  0  0  0  0  0  0  0  0  0  0  0
   -4.8214   -1.3357   -0.1307 O   0  0  0  0  0  0  0  0  0  0  0  0
    5.6613    1.0312    3.2077 H   0  0  0  0  0  0  0  0  0  0  0  0
    4.0829    1.0099    2.7031 H   0  0  0  0  0  0  0  0  0  0  0  0
    4.5981   -1.1847    2.1553 H   0  0  0  0  0  0  0  0  0  0  0  0
    6.3147   -0.7507    2.1974 H   0  0  0  0  0  0  0  0  0  0  0  0
    5.6037   -1.4650    0.0295 H   0  0  0  0  0  0  0  0  0  0  0  0
    6.3207    0.1756    0.0026 H   0  0  0  0  0  0  0  0  0  0  0  0
    4.4299    0.0299   -1.4670 H   0  0  0  0  0  0  0  0  0  0  0  0
    3.9811    1.1429   -0.1719 H   0  0  0  0  0  0  0  0  0  0  0  0
    0.9428   -2.0789    0.3608 H   0  0  0  0  0  0  0  0  0  0  0  0
   -1.2608   -1.6481   -0.5714 H   0  0  0  0  0  0  0  0  0  0  0  0
    0.2418    1.6977   -2.7068 H   0  0  0  0  0  0  0  0  0  0  0  0
    2.4865    1.2558   -1.7547 H   0  0  0  0  0  0  0  0  0  0  0  0
   -5.1532    0.6920   -2.4284 H   0  0  0  0  0  0  0  0  0  0  0  0
   -1.5519   -0.0683   -4.4413 H   0  0  0  0  0  0  0  0  0  0  0  0
   -2.1837    2.3806   -0.1150 H   0  0  0  0  0  0  0  0  0  0  0  0
   -4.6711    0.8306    4.4433 H   0  0  0  0  0  0  0  0  0  0  0  0
   -4.9091   -0.8081    2.4187 H   0  0  0  0  0  0  0  0  0  0  0  0
   -4.2736   -2.2071   -0.1796 H   0  0  0  0  0  0  0  0  0  0  0  0
  1  2  1  0
  2  3  1  0
  3  4  1  0
  4  5  1  0
  5  6  1  0
  6  7  2  0
  7  8  1  0
  8  9  2  0
  9 10  1  0
 10 11  2  0
  9 12  1  0
 12 13  2  0
 13 14  1  0
 14 15  1  0
 15 16  2  0
 13 17  1  0
 17 18  2  0
 18 19  1  0
 19 20  1  0
 19 21  2  0
 21 22  1  0
 21 23  1  0
 23 24  2  0
 24 25  1  0
 11  6  1  0
 16 12  1  0
 24 17  1  0
  1 26  1  0
  1 27  1  0
  2 28  1  0
  2 29  1  0
  3 30  1  0
  3 31  1  0
  4 32  1  0
  4 33  1  0
  7 34  1  0
  8 35  1  0
 10 36  1  0
 11 37  1  0
 14 38  1  0
 16 39  1  0
 18 40  1  0
 22 41  1  0
 23 42  1  0
 25 43  1  0
M  END
$$$$
