@<TRIPOS>MOLECULE
*****
 121 123 0 0 0
SMALL
GASTEIGER

@<TRIPOS>ATOM
      1 C          -2.0883   -2.5857   -0.3172 C.3     1  UNL1        0.1627
      2 C          -3.4700   -3.1118   -0.7855 C.3     1  UNL1        0.0298
      3 C          -3.7918   -4.4374   -0.2010 C.3     1  UNL1        0.0991
      4 C          -4.1070   -4.2996    1.2512 C.3     1  UNL1       -0.0331
      5 O          -4.9170   -4.9175   -0.8939 O.3     1  UNL1       -0.3740
      6 C          -5.3454   -6.1497   -0.4561 C.3     1  UNL1        0.0373
      7 C          -2.6922   -5.4336   -0.4818 C.3     1  UNL1        0.1098
      8 O          -2.8324   -5.9985   -1.7430 O.3     1  UNL1       -0.3864
      9 C          -1.3238   -4.8050   -0.2986 C.3     1  UNL1        0.0874
     10 C          -0.8974   -4.9580    1.1499 C.3     1  UNL1       -0.0361
     11 O          -1.2195   -3.5522   -0.8162 O.3     1  UNL1       -0.3456
     12 O          -1.9227   -1.4366   -0.9594 O.3     1  UNL1       -0.3468
     13 C          -1.6178   -0.2285   -0.4456 C.3     1  UNL1        0.0793
     14 C          -0.5972    0.4200   -1.3283 C.3     1  UNL1        0.0124
     15 C          -1.0089    0.1753   -2.7941 C.3     1  UNL1       -0.0576
     16 C           0.7880    0.2343   -0.9806 C.3     1  UNL1        0.0953
     17 O           1.3695   -1.0278   -1.0164 O.3     1  UNL1       -0.3423
     18 C           2.0964   -1.3028    0.1351 C.3     1  UNL1        0.1871
     19 O           3.4824   -1.3891   -0.1675 O.3     1  UNL1       -0.3457
     20 C           4.1623   -1.1293    1.0266 C.3     1  UNL1        0.0605
     21 C           5.6273   -0.9802    0.6891 C.3     1  UNL1       -0.0385
     22 C           3.9599   -2.3335    1.9105 C.3     1  UNL1       -0.0085
     23 C           2.9905   -3.3223    1.3041 C.3     1  UNL1        0.0429
     24 C           1.7616   -2.6293    0.7381 C.3     1  UNL1        0.1214
     25 O           0.9314   -2.3870    1.8293 O.3     1  UNL1       -0.3852
     26 N           3.6750   -3.9733    0.2079 N.3     1  UNL1       -0.3027
     27 C           2.8604   -4.9805   -0.4326 C.3     1  UNL1       -0.0127
     28 C           4.9108   -4.5937    0.6285 C.3     1  UNL1       -0.0127
     29 C           1.7826    1.1112   -1.7847 C.3     1  UNL1        0.0934
     30 C           1.8289    0.7539   -3.2374 C.3     1  UNL1       -0.0334
     31 C           1.4595    2.5746   -1.6766 C.3     1  UNL1       -0.0123
     32 C           1.3812    3.1408   -0.2935 C.3     1  UNL1        0.0177
     33 C           2.6679    3.0312    0.5026 C.3     1  UNL1       -0.0556
     34 C           1.1616    4.6446   -0.4592 C.2     1  UNL1        0.1416
     35 O           1.5035    4.7784   -1.6277 O.2     1  UNL1       -0.2967
     36 C           0.6947    5.7019    0.4250 C.3     1  UNL1        0.0437
     37 C           1.2334    5.7303    1.8357 C.3     1  UNL1       -0.0532
     38 C          -0.6640    6.2714    0.2346 C.3     1  UNL1        0.0963
     39 O          -0.5882    7.0068   -1.0179 O.3     1  UNL1       -0.3881
     40 C          -1.8181    5.3987    0.0321 C.3     1  UNL1        0.1262
     41 C          -1.7098    4.7619   -1.4239 C.3     1  UNL1       -0.0301
     42 O          -2.9525    6.1775   -0.1829 O.3     1  UNL1       -0.3826
     43 C          -2.1594    4.3021    0.9652 C.3     1  UNL1        0.1335
     44 C          -2.9917    4.7108    2.1678 C.3     1  UNL1       -0.0157
     45 C          -2.3301    5.7369    3.0362 C.3     1  UNL1       -0.0618
     46 O          -2.9869    3.3252    0.2755 O.3     1  UNL1       -0.4581
     47 C          -2.5741    2.0097    0.2019 C.2     1  UNL1        0.3128
     48 O          -1.5861    1.3988    0.6488 O.2     1  UNL1       -0.2504
     49 C          -2.8797    0.6630   -0.3262 C.3     1  UNL1        0.0801
     50 C          -3.8812    0.0489    0.6298 C.3     1  UNL1       -0.0499
     51 O           3.0052    0.9270   -1.1663 O.3     1  UNL1       -0.3743
     52 C           4.1089    1.4585   -1.7441 C.3     1  UNL1        0.0373
     53 H          -1.9839   -2.6013    0.7677 H       1  UNL1        0.0911
     54 H          -4.2705   -2.4048   -0.6893 H       1  UNL1        0.0343
     55 H          -3.2974   -3.2688   -1.8957 H       1  UNL1        0.0343
     56 H          -3.7162   -5.1115    1.8849 H       1  UNL1        0.0258
     57 H          -3.6746   -3.3482    1.6437 H       1  UNL1        0.0258
     58 H          -5.2145   -4.1713    1.3645 H       1  UNL1        0.0258
     59 H          -6.2355   -6.3986   -1.1001 H       1  UNL1        0.0524
     60 H          -4.6220   -6.9585   -0.5927 H       1  UNL1        0.0524
     61 H          -5.7692   -6.1126    0.5736 H       1  UNL1        0.0524
     62 H          -2.7799   -6.2458    0.2617 H       1  UNL1        0.0648
     63 H          -2.3368   -5.5005   -2.4142 H       1  UNL1        0.2100
     64 H          -0.6295   -5.4430   -0.8878 H       1  UNL1        0.0621
     65 H           0.1970   -5.0938    1.1768 H       1  UNL1        0.0255
     66 H          -1.3425   -5.9310    1.4844 H       1  UNL1        0.0255
     67 H          -1.1710   -4.1308    1.7991 H       1  UNL1        0.0255
     68 H          -1.3559   -0.3763    0.6113 H       1  UNL1        0.0608
     69 H          -0.7588    1.5676   -1.3075 H       1  UNL1        0.0349
     70 H          -0.3830   -0.5710   -3.2898 H       1  UNL1        0.0234
     71 H          -1.2329    1.0877   -3.3488 H       1  UNL1        0.0234
     72 H          -2.0190   -0.3386   -2.7193 H       1  UNL1        0.0234
     73 H           0.9733    0.6519    0.0559 H       1  UNL1        0.0629
     74 H           2.0301   -0.5226    0.9154 H       1  UNL1        0.0937
     75 H           3.7856   -0.1950    1.5005 H       1  UNL1        0.0595
     76 H           5.9759    0.0883    0.8200 H       1  UNL1        0.0255
     77 H           6.2371   -1.5458    1.4417 H       1  UNL1        0.0255
     78 H           5.8814   -1.2615   -0.3390 H       1  UNL1        0.0255
     79 H           3.5484   -2.0130    2.8856 H       1  UNL1        0.0306
     80 H           4.9399   -2.8449    2.0121 H       1  UNL1        0.0306
     81 H           2.7226   -4.0567    2.0608 H       1  UNL1        0.0490
     82 H           1.2229   -3.2892    0.0413 H       1  UNL1        0.0660
     83 H           1.0142   -3.1602    2.4421 H       1  UNL1        0.2101
     84 H           2.3921   -5.5697    0.3993 H       1  UNL1        0.0391
     85 H           2.1535   -4.6001   -1.1719 H       1  UNL1        0.0391
     86 H           3.5779   -5.7235   -0.8933 H       1  UNL1        0.0391
     87 H           5.0956   -5.4612   -0.0351 H       1  UNL1        0.0391
     88 H           5.8051   -3.9356    0.5005 H       1  UNL1        0.0391
     89 H           4.8421   -5.0082    1.6576 H       1  UNL1        0.0391
     90 H           1.0531    1.2489   -3.8519 H       1  UNL1        0.0258
     91 H           2.7844    1.2066   -3.6594 H       1  UNL1        0.0258
     92 H           1.9628   -0.3289   -3.4432 H       1  UNL1        0.0258
     93 H           0.5801    2.8560   -2.2940 H       1  UNL1        0.0300
     94 H           2.3054    3.1197   -2.1815 H       1  UNL1        0.0300
     95 H           0.5465    2.6968    0.2296 H       1  UNL1        0.0376
     96 H           2.8854    1.9825    0.7857 H       1  UNL1        0.0236
     97 H           2.4971    3.5259    1.5128 H       1  UNL1        0.0236
     98 H           3.5088    3.5946    0.0820 H       1  UNL1        0.0236
     99 H           1.3441    6.6208    0.0168 H       1  UNL1        0.0401
    100 H           2.3378    5.8222    1.8932 H       1  UNL1        0.0237
    101 H           0.9234    4.9124    2.4810 H       1  UNL1        0.0237
    102 H           0.8901    6.7334    2.2644 H       1  UNL1        0.0237
    103 H          -0.8593    7.0299    0.9872 H       1  UNL1        0.0630
    104 H           0.2769    7.4577   -0.9696 H       1  UNL1        0.2099
    105 H          -2.7362    4.6394   -1.8107 H       1  UNL1        0.0259
    106 H          -1.2861    3.7825   -1.3295 H       1  UNL1        0.0259
    107 H          -1.2100    5.5135   -2.0283 H       1  UNL1        0.0259
    108 H          -2.7579    6.8838   -0.8493 H       1  UNL1        0.2104
    109 H          -1.2840    3.7766    1.3223 H       1  UNL1        0.0764
    110 H          -3.1375    3.8079    2.7984 H       1  UNL1        0.0299
    111 H          -3.9737    5.1164    1.8223 H       1  UNL1        0.0299
    112 H          -2.5132    6.7849    2.6604 H       1  UNL1        0.0231
    113 H          -2.7710    5.7486    4.0657 H       1  UNL1        0.0231
    114 H          -1.2508    5.5666    3.1980 H       1  UNL1        0.0231
    115 H          -3.3250    0.6797   -1.3172 H       1  UNL1        0.0436
    116 H          -3.4192   -0.7638    1.2231 H       1  UNL1        0.0238
    117 H          -4.2277    0.7846    1.4190 H       1  UNL1        0.0238
    118 H          -4.8259   -0.2353    0.1215 H       1  UNL1        0.0238
    119 H           4.1567    2.5422   -1.9117 H       1  UNL1        0.0524
    120 H           4.4831    0.8784   -2.6293 H       1  UNL1        0.0524
    121 H           4.9506    1.2832   -0.9913 H       1  UNL1        0.0524
@<TRIPOS>BOND
     1     1     2    1
     2     2     3    1
     3     3     4    1
     4     3     5    1
     5     5     6    1
     6     3     7    1
     7     7     8    1
     8     7     9    1
     9     9    10    1
    10     9    11    1
    11     1    12    1
    12    12    13    1
    13    13    14    1
    14    14    15    1
    15    14    16    1
    16    16    17    1
    17    17    18    1
    18    18    19    1
    19    19    20    1
    20    20    21    1
    21    20    22    1
    22    22    23    1
    23    23    24    1
    24    24    25    1
    25    23    26    1
    26    26    27    1
    27    26    28    1
    28    16    29    1
    29    29    30    1
    30    29    31    1
    31    31    32    1
    32    32    33    1
    33    32    34    1
    34    34    35    2
    35    34    36    1
    36    36    37    1
    37    36    38    1
    38    38    39    1
    39    38    40    1
    40    40    41    1
    41    40    42    1
    42    40    43    1
    43    43    44    1
    44    44    45    1
    45    43    46    1
    46    46    47    1
    47    47    48    2
    48    47    49    1
    49    49    50    1
    50    29    51    1
    51    51    52    1
    52    11     1    1
    53    49    13    1
    54    24    18    1
    55     1    53    1
    56     2    54    1
    57     2    55    1
    58     4    56    1
    59     4    57    1
    60     4    58    1
    61     6    59    1
    62     6    60    1
    63     6    61    1
    64     7    62    1
    65     8    63    1
    66     9    64    1
    67    10    65    1
    68    10    66    1
    69    10    67    1
    70    13    68    1
    71    14    69    1
    72    15    70    1
    73    15    71    1
    74    15    72    1
    75    16    73    1
    76    18    74    1
    77    20    75    1
    78    21    76    1
    79    21    77    1
    80    21    78    1
    81    22    79    1
    82    22    80    1
    83    23    81    1
    84    24    82    1
    85    25    83    1
    86    27    84    1
    87    27    85    1
    88    27    86    1
    89    28    87    1
    90    28    88    1
    91    28    89    1
    92    30    90    1
    93    30    91    1
    94    30    92    1
    95    31    93    1
    96    31    94    1
    97    32    95    1
    98    33    96    1
    99    33    97    1
   100    33    98    1
   101    36    99    1
   102    37   100    1
   103    37   101    1
   104    37   102    1
   105    38   103    1
   106    39   104    1
   107    41   105    1
   108    41   106    1
   109    41   107    1
   110    42   108    1
   111    43   109    1
   112    44   110    1
   113    44   111    1
   114    45   112    1
   115    45   113    1
   116    45   114    1
   117    49   115    1
   118    50   116    1
   119    50   117    1
   120    50   118    1
   121    52   119    1
   122    52   120    1
   123    52   121    1
