@<TRIPOS>MOLECULE
*****
 54 55 0 0 0
SMALL
GASTEIGER

@<TRIPOS>ATOM
      1 N           1.5769    0.6007    0.1976 N.3     1  UNL1       -0.3288
      2 C           0.7315   -0.5381    0.2328 C.3     1  UNL1        0.0054
      3 C          -0.6132   -0.3507   -0.3964 C.3     1  UNL1        0.0054
      4 N          -1.3939    0.6960    0.2263 N.3     1  UNL1       -0.3288
      5 C          -1.1486   -2.4351   -0.0998 C.3     2  UNL2        0.0181
      6 N          -0.5163   -1.1367   -0.0506 N.ar    2  UNL2       -0.2796
      7 C          -1.1831    0.0233   -0.0345 C.ar    2  UNL2        0.1676
      8 C          -0.5660    1.2647    0.0128 C.ar    2  UNL2        0.1488
      9 N          -1.5406    2.2209    0.0165 N.ar    2  UNL2       -0.3389
     10 C          -2.7467    1.6065   -0.0273 C.ar    2  UNL2        0.0963
     11 N          -2.5060    0.2738   -0.0577 N.ar    2  UNL2       -0.2179
     12 C           0.8110    1.2849    0.0446 C.ar    2  UNL2        0.2820
     13 O           1.3845    2.4057    0.0877 O.2     2  UNL2       -0.2652
     14 N           1.5109    0.1515    0.0299 N.ar    2  UNL2       -0.2622
     15 C           2.9635    0.1473    0.0626 C.3     2  UNL2        0.0196
     16 C           0.8399   -1.0144   -0.0166 C.ar    2  UNL2        0.3331
     17 O           1.5216   -2.0704   -0.0296 O.2     2  UNL2       -0.2462
     18 C          -1.1486   -2.4351   -0.0998 C.3     3  UNL3        0.0181
     19 N          -0.5163   -1.1367   -0.0506 N.ar    3  UNL3       -0.2796
     20 C          -1.1831    0.0233   -0.0345 C.ar    3  UNL3        0.1676
     21 C          -0.5660    1.2647    0.0128 C.ar    3  UNL3        0.1488
     22 N          -1.5406    2.2209    0.0165 N.ar    3  UNL3       -0.3389
     23 C          -2.7467    1.6065   -0.0273 C.ar    3  UNL3        0.0963
     24 N          -2.5060    0.2738   -0.0577 N.ar    3  UNL3       -0.2179
     25 C           0.8110    1.2849    0.0446 C.ar    3  UNL3        0.2820
     26 O           1.3845    2.4057    0.0877 O.2     3  UNL3       -0.2652
     27 N           1.5109    0.1515    0.0299 N.ar    3  UNL3       -0.2622
     28 C           2.9635    0.1473    0.0626 C.3     3  UNL3        0.0196
     29 C           0.8399   -1.0144   -0.0166 C.ar    3  UNL3        0.3331
     30 O           1.5216   -2.0704   -0.0296 O.2     3  UNL3       -0.2462
     31 H           2.4115    0.5130   -0.4270 H       1  UNL1        0.1183
     32 H           1.0650    1.4655   -0.0307 H       1  UNL1        0.1183
     33 H           1.2327   -1.3637   -0.3224 H       1  UNL1        0.0434
     34 H           0.6026   -0.8583    1.2870 H       1  UNL1        0.0434
     35 H          -1.1890   -1.2938   -0.2950 H       1  UNL1        0.0434
     36 H          -0.5083   -0.0516   -1.4641 H       1  UNL1        0.0434
     37 H          -2.3438    0.6372   -0.2457 H       1  UNL1        0.1183
     38 H          -1.5719    0.5438    1.2375 H       1  UNL1        0.1183
     39 H          -1.9169   -2.4746    0.6801 H       2  UNL2        0.0458
     40 H          -0.3773   -3.2022    0.1875 H       2  UNL2        0.0458
     41 H          -1.4952   -2.7278   -1.1124 H       2  UNL2        0.0458
     42 H          -1.3660    3.2670    0.0486 H       2  UNL2        0.1670
     43 H          -3.7281    2.0606   -0.0373 H       2  UNL2        0.1027
     44 H           3.3299   -0.8892   -0.1309 H       2  UNL2        0.0458
     45 H           3.3160    0.4293    1.0932 H       2  UNL2        0.0458
     46 H           3.4132    0.8150   -0.6666 H       2  UNL2        0.0458
     47 H          -1.9169   -2.4746    0.6801 H       3  UNL3        0.0458
     48 H          -0.3773   -3.2022    0.1875 H       3  UNL3        0.0458
     49 H          -1.4952   -2.7278   -1.1124 H       3  UNL3        0.0458
     50 H          -1.3660    3.2670    0.0486 H       3  UNL3        0.1670
     51 H          -3.7281    2.0606   -0.0373 H       3  UNL3        0.1027
     52 H           3.3299   -0.8892   -0.1309 H       3  UNL3        0.0458
     53 H           3.3160    0.4293    1.0932 H       3  UNL3        0.0458
     54 H           3.4132    0.8150   -0.6666 H       3  UNL3        0.0458
@<TRIPOS>BOND
     1     1     2    1
     2     2     3    1
     3     3     4    1
     4     5     6    1
     5     6     7   ar
     6     7     8   ar
     7     8     9   ar
     8     9    10   ar
     9    10    11   ar
    10     8    12   ar
    11    12    13    2
    12    12    14   ar
    13    14    15    1
    14    14    16   ar
    15    16    17    2
    16    18    19    1
    17    19    20   ar
    18    20    21   ar
    19    21    22   ar
    20    22    23   ar
    21    23    24   ar
    22    21    25   ar
    23    25    26    2
    24    25    27   ar
    25    27    28    1
    26    27    29   ar
    27    29    30    2
    28    16     6   ar
    29    29    19   ar
    30    11     7   ar
    31    24    20   ar
    32     1    31    1
    33     1    32    1
    34     2    33    1
    35     2    34    1
    36     3    35    1
    37     3    36    1
    38     4    37    1
    39     4    38    1
    40     5    39    1
    41     5    40    1
    42     5    41    1
    43     9    42    1
    44    10    43    1
    45    15    44    1
    46    15    45    1
    47    15    46    1
    48    18    47    1
    49    18    48    1
    50    18    49    1
    51    22    50    1
    52    23    51    1
    53    28    52    1
    54    28    53    1
    55    28    54    1
