
     RDKit          3D

 68 72  0  0  0  0  0  0  0  0999 V2000
   -3.6515   -3.8611   -3.4570 C   0  0  0  0  0  0  0  0  0  0  0  0
   -2.9390   -2.5613   -3.2727 C   0  0  0  0  0  0  0  0  0  0  0  0
   -1.4794   -2.7669   -2.9097 C   0  0  0  0  0  0  0  0  0  0  0  0
   -0.7683   -1.4479   -2.7244 C   0  0  0  0  0  0  0  0  0  0  0  0
   -1.3548   -0.6148   -1.6484 C   0  0  0  0  0  0  0  0  0  0  0  0
   -2.2034    0.4375   -1.8373 N   0  0  0  0  0  0  0  0  0  0  0  0
   -2.5545    0.9575   -0.6838 N   0  0  0  0  0  0  0  0  0  0  0  0
   -3.4302    2.0775   -0.4554 C   0  0  0  0  0  0  0  0  0  0  0  0
   -2.9477    3.2862   -0.0028 C   0  0  0  0  0  0  0  0  0  0  0  0
   -3.7582    4.3922    0.2263 C   0  0  0  0  0  0  0  0  0  0  0  0
   -5.1127    4.2643   -0.0148 C   0  0  0  0  0  0  0  0  0  0  0  0
   -5.6510    3.0723   -0.4697 C   0  0  0  0  0  0  0  0  0  0  0  0
   -4.7883    1.9961   -0.6816 C   0  0  0  0  0  0  0  0  0  0  0  0
   -5.5068    0.5117   -1.2557 Cl  0  0  0  0  0  0  0  0  0  0  0  0
   -1.9643    0.2864    0.3380 C   0  0  0  0  0  0  0  0  0  0  0  0
   -2.1174    0.5677    1.7676 C   0  0  0  0  0  0  0  0  0  0  0  0
   -1.5412   -0.0827    2.6669 O   0  0  0  0  0  0  0  0  0  0  0  0
   -2.9404    1.6043    2.1855 O   0  0  0  0  0  0  0  0  0  0  0  0
   -3.0871    1.8689    3.5720 C   0  0  0  0  0  0  0  0  0  0  0  0
   -3.6509    0.6919    4.3172 C   0  0  0  0  0  0  0  0  0  0  0  0
   -1.2127   -0.6973   -0.2676 C   0  0  0  0  0  0  0  0  0  0  0  0
   -0.3525   -1.7123    0.4054 C   0  0  0  0  0  0  0  0  0  0  0  0
    1.0820   -1.3731    0.2818 C   0  0  0  0  0  0  0  0  0  0  0  0
    2.0142   -2.2616    0.7665 C   0  0  0  0  0  0  0  0  0  0  0  0
    3.3832   -1.9912    0.6654 C   0  0  0  0  0  0  0  0  0  0  0  0
    3.7541   -0.8247    0.0732 C   0  0  0  0  0  0  0  0  0  0  0  0
    5.1689   -0.5076   -0.0987 C   0  0  0  0  0  0  0  0  0  0  0  0
    5.8213   -1.2360   -1.1109 C   0  0  0  0  0  0  0  0  0  0  0  0
    7.1490   -0.9517   -1.3852 C   0  0  0  0  0  0  0  0  0  0  0  0
    7.8215    0.0234   -0.6827 C   0  0  0  0  0  0  0  0  0  0  0  0
    7.1538    0.7024    0.2875 C   0  0  0  0  0  0  0  0  0  0  0  0
    5.8027    0.4498    0.6047 C   0  0  0  0  0  0  0  0  0  0  0  0
    5.1859    1.1715    1.6924 C   0  0  0  0  0  0  0  0  0  0  0  0
    5.7575    2.2863    2.2294 N   0  0  0  0  0  0  0  0  0  0  0  0
    5.0113    2.7799    3.1624 N   0  0  0  0  0  0  0  0  0  0  0  0
    3.9319    2.0058    3.2646 N   0  0  0  0  0  0  0  0  0  0  0  0
    4.0526    1.0382    2.3707 N   0  0  0  0  0  0  0  0  0  0  0  0
    2.8274    0.0880   -0.4243 C   0  0  0  0  0  0  0  0  0  0  0  0
    1.4975   -0.2088   -0.3076 C   0  0  0  0  0  0  0  0  0  0  0  0
   -3.8975   -4.3641   -2.4975 H   0  0  0  0  0  0  0  0  0  0  0  0
   -4.5851   -3.6315   -4.0490 H   0  0  0  0  0  0  0  0  0  0  0  0
   -3.0719   -4.5900   -4.0594 H   0  0  0  0  0  0  0  0  0  0  0  0
   -2.9710   -2.0226   -4.2377 H   0  0  0  0  0  0  0  0  0  0  0  0
   -3.4631   -1.9445   -2.5387 H   0  0  0  0  0  0  0  0  0  0  0  0
   -1.4129   -3.4517   -2.0608 H   0  0  0  0  0  0  0  0  0  0  0  0
   -1.0335   -3.3267   -3.7818 H   0  0  0  0  0  0  0  0  0  0  0  0
    0.2954   -1.7277   -2.4624 H   0  0  0  0  0  0  0  0  0  0  0  0
   -0.7679   -0.8421   -3.6488 H   0  0  0  0  0  0  0  0  0  0  0  0
   -1.8747    3.4314    0.2031 H   0  0  0  0  0  0  0  0  0  0  0  0
   -3.3582    5.3370    0.5819 H   0  0  0  0  0  0  0  0  0  0  0  0
   -5.7917    5.1012    0.1466 H   0  0  0  0  0  0  0  0  0  0  0  0
   -6.7132    2.9715   -0.6585 H   0  0  0  0  0  0  0  0  0  0  0  0
   -3.6888    2.7684    3.6907 H   0  0  0  0  0  0  0  0  0  0  0  0
   -2.0429    2.0177    3.9747 H   0  0  0  0  0  0  0  0  0  0  0  0
   -2.9588    0.2787    5.0780 H   0  0  0  0  0  0  0  0  0  0  0  0
   -4.5266    1.0724    4.9226 H   0  0  0  0  0  0  0  0  0  0  0  0
   -4.0315   -0.0853    3.6164 H   0  0  0  0  0  0  0  0  0  0  0  0
   -0.6328   -1.7864    1.4718 H   0  0  0  0  0  0  0  0  0  0  0  0
   -0.4818   -2.7325   -0.0191 H   0  0  0  0  0  0  0  0  0  0  0  0
    1.7534   -3.1999    1.2455 H   0  0  0  0  0  0  0  0  0  0  0  0
    4.0968   -2.7273    1.0669 H   0  0  0  0  0  0  0  0  0  0  0  0
    5.2771   -1.9908   -1.6442 H   0  0  0  0  0  0  0  0  0  0  0  0
    7.6688   -1.5024   -2.1619 H   0  0  0  0  0  0  0  0  0  0  0  0
    8.8386    0.2314   -0.9055 H   0  0  0  0  0  0  0  0  0  0  0  0
    7.6655    1.4665    0.8411 H   0  0  0  0  0  0  0  0  0  0  0  0
    3.3452    0.3035    2.2717 H   0  0  0  0  0  0  0  0  0  0  0  0
    3.1974    1.0080   -0.8907 H   0  0  0  0  0  0  0  0  0  0  0  0
    0.7632    0.4770   -0.6821 H   0  0  0  0  0  0  0  0  0  0  0  0
  1  2  1  0
  2  3  1  0
  3  4  1  0
  4  5  1  0
  5  6  2  0
  6  7  1  0
  7  8  1  0
  8  9  2  0
  9 10  1  0
 10 11  2  0
 11 12  1  0
 12 13  2  0
 13 14  1  0
  7 15  1  0
 15 16  1  0
 16 17  2  0
 16 18  1  0
 18 19  1  0
 19 20  1  0
 15 21  2  0
 21 22  1  0
 22 23  1  0
 23 24  2  0
 24 25  1  0
 25 26  2  0
 26 27  1  0
 27 28  2  0
 28 29  1  0
 29 30  2  0
 30 31  1  0
 31 32  2  0
 32 33  1  0
 33 34  2  0
 34 35  1  0
 35 36  2  0
 36 37  1  0
 26 38  1  0
 38 39  2  0
 21  5  1  0
 39 23  1  0
 13  8  1  0
 32 27  1  0
 37 33  1  0
  1 40  1  0
  1 41  1  0
  1 42  1  0
  2 43  1  0
  2 44  1  0
  3 45  1  0
  3 46  1  0
  4 47  1  0
  4 48  1  0
  9 49  1  0
 10 50  1  0
 11 51  1  0
 12 52  1  0
 19 53  1  0
 19 54  1  0
 20 55  1  0
 20 56  1  0
 20 57  1  0
 22 58  1  0
 22 59  1  0
 24 60  1  0
 25 61  1  0
 28 62  1  0
 29 63  1  0
 30 64  1  0
 31 65  1  0
 37 66  1  0
 38 67  1  0
 39 68  1  0
M  END
$$$$
