@<TRIPOS>MOLECULE
*****
 68 72 0 0 0
SMALL
GASTEIGER

@<TRIPOS>ATOM
      1 C          -3.6515   -3.8611   -3.4570 C.3     1  UNL1       -0.0653
      2 C          -2.9390   -2.5613   -3.2727 C.3     1  UNL1       -0.0556
      3 C          -1.4794   -2.7669   -2.9097 C.3     1  UNL1       -0.0478
      4 C          -0.7683   -1.4479   -2.7244 C.3     1  UNL1       -0.0084
      5 C          -1.3548   -0.6148   -1.6484 C.ar    1  UNL1        0.0677
      6 N          -2.2034    0.4375   -1.8373 N.ar    1  UNL1       -0.1703
      7 N          -2.5545    0.9575   -0.6838 N.ar    1  UNL1       -0.2238
      8 C          -3.4302    2.0775   -0.4554 C.ar    1  UNL1        0.0845
      9 C          -2.9477    3.2862   -0.0028 C.ar    1  UNL1       -0.0348
     10 C          -3.7582    4.3922    0.2263 C.ar    1  UNL1       -0.0597
     11 C          -5.1127    4.2643   -0.0148 C.ar    1  UNL1       -0.0603
     12 C          -5.6510    3.0723   -0.4697 C.ar    1  UNL1       -0.0413
     13 C          -4.7883    1.9961   -0.6816 C.ar    1  UNL1        0.0663
     14 CL         -5.5068    0.5117   -1.2557 Cl      1  UNL1       -0.0813
     15 C          -1.9643    0.2864    0.3380 C.ar    1  UNL1        0.1549
     16 C          -2.1174    0.5677    1.7676 C.2     1  UNL1        0.3581
     17 O          -1.5412   -0.0827    2.6669 O.2     1  UNL1       -0.2432
     18 O          -2.9404    1.6043    2.1855 O.3     1  UNL1       -0.4604
     19 C          -3.0871    1.8689    3.5720 C.3     1  UNL1        0.0900
     20 C          -3.6509    0.6919    4.3172 C.3     1  UNL1       -0.0306
     21 C          -1.2127   -0.6973   -0.2676 C.ar    1  UNL1        0.0123
     22 C          -0.3525   -1.7123    0.4054 C.3     1  UNL1        0.0016
     23 C           1.0820   -1.3731    0.2818 C.ar    1  UNL1       -0.0429
     24 C           2.0142   -2.2616    0.7665 C.ar    1  UNL1       -0.0577
     25 C           3.3832   -1.9912    0.6654 C.ar    1  UNL1       -0.0537
     26 C           3.7541   -0.8247    0.0732 C.ar    1  UNL1       -0.0172
     27 C           5.1689   -0.5076   -0.0987 C.ar    1  UNL1       -0.0072
     28 C           5.8213   -1.2360   -1.1109 C.ar    1  UNL1       -0.0534
     29 C           7.1490   -0.9517   -1.3852 C.ar    1  UNL1       -0.0611
     30 C           7.8215    0.0234   -0.6827 C.ar    1  UNL1       -0.0611
     31 C           7.1538    0.7024    0.2875 C.ar    1  UNL1       -0.0504
     32 C           5.8027    0.4498    0.6047 C.ar    1  UNL1        0.0282
     33 C           5.1859    1.1715    1.6924 C.ar    1  UNL1        0.1799
     34 N           5.7575    2.2863    2.2294 N.ar    1  UNL1       -0.1084
     35 N           5.0113    2.7799    3.1624 N.ar    1  UNL1       -0.0229
     36 N           3.9319    2.0058    3.2646 N.ar    1  UNL1       -0.0464
     37 N           4.0526    1.0382    2.3707 N.ar    1  UNL1       -0.2388
     38 C           2.8274    0.0880   -0.4243 C.ar    1  UNL1       -0.0537
     39 C           1.4975   -0.2088   -0.3076 C.ar    1  UNL1       -0.0577
     40 H          -3.8975   -4.3641   -2.4975 H       1  UNL1        0.0230
     41 H          -4.5851   -3.6315   -4.0490 H       1  UNL1        0.0230
     42 H          -3.0719   -4.5900   -4.0594 H       1  UNL1        0.0230
     43 H          -2.9710   -2.0226   -4.2377 H       1  UNL1        0.0263
     44 H          -3.4631   -1.9445   -2.5387 H       1  UNL1        0.0263
     45 H          -1.4129   -3.4517   -2.0608 H       1  UNL1        0.0269
     46 H          -1.0335   -3.3267   -3.7818 H       1  UNL1        0.0269
     47 H           0.2954   -1.7277   -2.4624 H       1  UNL1        0.0329
     48 H          -0.7679   -0.8421   -3.6488 H       1  UNL1        0.0329
     49 H          -1.8747    3.4314    0.2031 H       1  UNL1        0.0639
     50 H          -3.3582    5.3370    0.5819 H       1  UNL1        0.0618
     51 H          -5.7917    5.1012    0.1466 H       1  UNL1        0.0618
     52 H          -6.7132    2.9715   -0.6585 H       1  UNL1        0.0633
     53 H          -3.6888    2.7684    3.6907 H       1  UNL1        0.0695
     54 H          -2.0429    2.0177    3.9747 H       1  UNL1        0.0695
     55 H          -2.9588    0.2787    5.0780 H       1  UNL1        0.0262
     56 H          -4.5266    1.0724    4.9226 H       1  UNL1        0.0262
     57 H          -4.0315   -0.0853    3.6164 H       1  UNL1        0.0262
     58 H          -0.6328   -1.7864    1.4718 H       1  UNL1        0.0363
     59 H          -0.4818   -2.7325   -0.0191 H       1  UNL1        0.0363
     60 H           1.7534   -3.1999    1.2455 H       1  UNL1        0.0621
     61 H           4.0968   -2.7273    1.0669 H       1  UNL1        0.0624
     62 H           5.2771   -1.9908   -1.6442 H       1  UNL1        0.0624
     63 H           7.6688   -1.5024   -2.1619 H       1  UNL1        0.0618
     64 H           8.8386    0.2314   -0.9055 H       1  UNL1        0.0618
     65 H           7.6655    1.4665    0.8411 H       1  UNL1        0.0625
     66 H           3.3452    0.3035    2.2717 H       1  UNL1        0.1923
     67 H           3.1974    1.0080   -0.8907 H       1  UNL1        0.0624
     68 H           0.7632    0.4770   -0.6821 H       1  UNL1        0.0621
@<TRIPOS>BOND
     1     1     2    1
     2     2     3    1
     3     3     4    1
     4     4     5    1
     5     5     6   ar
     6     6     7   ar
     7     7     8    1
     8     8     9   ar
     9     9    10   ar
    10    10    11   ar
    11    11    12   ar
    12    12    13   ar
    13    13    14    1
    14     7    15   ar
    15    15    16    1
    16    16    17    2
    17    16    18    1
    18    18    19    1
    19    19    20    1
    20    15    21   ar
    21    21    22    1
    22    22    23    1
    23    23    24   ar
    24    24    25   ar
    25    25    26   ar
    26    26    27    1
    27    27    28   ar
    28    28    29   ar
    29    29    30   ar
    30    30    31   ar
    31    31    32   ar
    32    32    33    1
    33    33    34   ar
    34    34    35   ar
    35    35    36   ar
    36    36    37   ar
    37    26    38   ar
    38    38    39   ar
    39    21     5   ar
    40    39    23   ar
    41    13     8   ar
    42    32    27   ar
    43    37    33   ar
    44     1    40    1
    45     1    41    1
    46     1    42    1
    47     2    43    1
    48     2    44    1
    49     3    45    1
    50     3    46    1
    51     4    47    1
    52     4    48    1
    53     9    49    1
    54    10    50    1
    55    11    51    1
    56    12    52    1
    57    19    53    1
    58    19    54    1
    59    20    55    1
    60    20    56    1
    61    20    57    1
    62    22    58    1
    63    22    59    1
    64    24    60    1
    65    25    61    1
    66    28    62    1
    67    29    63    1
    68    30    64    1
    69    31    65    1
    70    37    66    1
    71    38    67    1
    72    39    68    1
