
     RDKit          3D

 38 40  0  0  0  0  0  0  0  0999 V2000
   -5.4419    1.7453   -0.5470 C   0  0  0  0  0  0  0  0  0  0  0  0
   -5.1206    0.0556    0.0309 S   0  0  0  0  0  0  0  0  0  0  0  0
   -3.3919   -0.3602   -0.1303 C   0  0  0  0  0  0  0  0  0  0  0  0
   -2.9128   -0.9350   -1.2849 C   0  0  0  0  0  0  0  0  0  0  0  0
   -1.5905   -1.2678   -1.4448 C   0  0  0  0  0  0  0  0  0  0  0  0
   -0.6875   -1.0283   -0.4283 C   0  0  0  0  0  0  0  0  0  0  0  0
   -1.1617   -0.4520    0.7349 C   0  0  0  0  0  0  0  0  0  0  0  0
   -2.4798   -0.1185    0.8983 C   0  0  0  0  0  0  0  0  0  0  0  0
   -3.0022    0.5046    2.1493 C   0  0  0  0  0  0  0  0  0  0  0  0
   -3.5671    1.7433    1.9033 F   0  0  0  0  0  0  0  0  0  0  0  0
   -3.9371   -0.3580    2.7377 F   0  0  0  0  0  0  0  0  0  0  0  0
   -1.9677    0.6328    3.0411 F   0  0  0  0  0  0  0  0  0  0  0  0
    0.6036   -1.4522   -0.8264 N   0  0  0  0  0  0  0  0  0  0  0  0
    1.8830   -0.9784   -0.4842 C   0  0  0  0  0  0  0  0  0  0  0  0
    2.8786   -1.6416   -0.8869 O   0  0  0  0  0  0  0  0  0  0  0  0
    2.1914    0.1686    0.2643 N   0  0  0  0  0  0  0  0  0  0  0  0
    3.4151    0.6896    0.6436 C   0  0  0  0  0  0  0  0  0  0  0  0
    4.6703    0.2085    0.3786 C   0  0  0  0  0  0  0  0  0  0  0  0
    5.8445    0.8335    0.8237 C   0  0  0  0  0  0  0  0  0  0  0  0
    5.7621    1.9858    1.5636 C   0  0  0  0  0  0  0  0  0  0  0  0
    4.5373    2.4676    1.8302 N   0  0  0  0  0  0  0  0  0  0  0  0
    3.4131    1.8712    1.4053 C   0  0  0  0  0  0  0  0  0  0  0  0
    0.3457   -2.5394   -1.7733 C   0  0  0  0  0  0  0  0  0  0  0  0
   -0.8229   -1.8942   -2.5471 C   0  0  0  0  0  0  0  0  0  0  0  0
   -4.5043    2.2614   -0.7977 H   0  0  0  0  0  0  0  0  0  0  0  0
   -6.0742    1.6993   -1.4556 H   0  0  0  0  0  0  0  0  0  0  0  0
   -6.0422    2.2641    0.2338 H   0  0  0  0  0  0  0  0  0  0  0  0
   -3.6308   -1.1249   -2.0932 H   0  0  0  0  0  0  0  0  0  0  0  0
   -0.4755   -0.2740    1.5386 H   0  0  0  0  0  0  0  0  0  0  0  0
    1.3025    0.6993    0.5470 H   0  0  0  0  0  0  0  0  0  0  0  0
    4.7316   -0.6876   -0.1968 H   0  0  0  0  0  0  0  0  0  0  0  0
    6.7761    0.3816    0.5658 H   0  0  0  0  0  0  0  0  0  0  0  0
    6.6675    2.4992    1.9271 H   0  0  0  0  0  0  0  0  0  0  0  0
    2.4562    2.3395    1.6730 H   0  0  0  0  0  0  0  0  0  0  0  0
    1.1923   -2.5902   -2.4559 H   0  0  0  0  0  0  0  0  0  0  0  0
    0.0511   -3.4675   -1.2891 H   0  0  0  0  0  0  0  0  0  0  0  0
   -1.4605   -2.6986   -2.9634 H   0  0  0  0  0  0  0  0  0  0  0  0
   -0.4509   -1.1824   -3.2854 H   0  0  0  0  0  0  0  0  0  0  0  0
  1  2  1  0
  2  3  1  0
  3  4  2  0
  4  5  1  0
  5  6  2  0
  6  7  1  0
  7  8  2  0
  8  9  1  0
  9 10  1  0
  9 11  1  0
  9 12  1  0
  6 13  1  0
 13 14  1  0
 14 15  2  0
 14 16  1  0
 16 17  1  0
 17 18  2  0
 18 19  1  0
 19 20  2  0
 20 21  1  0
 21 22  2  0
 13 23  1  0
 23 24  1  0
  8  3  1  0
 22 17  1  0
 24  5  1  0
  1 25  1  0
  1 26  1  0
  1 27  1  0
  4 28  1  0
  7 29  1  0
 16 30  1  0
 18 31  1  0
 19 32  1  0
 20 33  1  0
 22 34  1  0
 23 35  1  0
 23 36  1  0
 24 37  1  0
 24 38  1  0
M  END
$$$$
