@<TRIPOS>MOLECULE
*****
 38 40 0 0 0
SMALL
GASTEIGER

@<TRIPOS>ATOM
      1 C          -5.4419    1.7453   -0.5470 C.3     1  UNL1       -0.0134
      2 S          -5.1206    0.0556    0.0309 S.3     1  UNL1       -0.1280
      3 C          -3.3919   -0.3602   -0.1303 C.ar    1  UNL1        0.0196
      4 C          -2.9128   -0.9350   -1.2849 C.ar    1  UNL1       -0.0428
      5 C          -1.5905   -1.2678   -1.4448 C.ar    1  UNL1       -0.0234
      6 C          -0.6875   -1.0283   -0.4283 C.ar    1  UNL1        0.0416
      7 C          -1.1617   -0.4520    0.7349 C.ar    1  UNL1       -0.0273
      8 C          -2.4798   -0.1185    0.8983 C.ar    1  UNL1        0.0699
      9 C          -3.0022    0.5046    2.1493 C.3     1  UNL1        0.4185
     10 F          -3.5671    1.7433    1.9033 F       1  UNL1       -0.1659
     11 F          -3.9371   -0.3580    2.7377 F       1  UNL1       -0.1659
     12 F          -1.9677    0.6328    3.0411 F       1  UNL1       -0.1659
     13 N           0.6036   -1.4522   -0.8264 N.am    1  UNL1       -0.2547
     14 C           1.8830   -0.9784   -0.4842 C.2     1  UNL1        0.3108
     15 O           2.8786   -1.6416   -0.8869 O.2     1  UNL1       -0.2519
     16 N           2.1914    0.1686    0.2643 N.am    1  UNL1       -0.2677
     17 C           3.4151    0.6896    0.6436 C.ar    1  UNL1        0.0529
     18 C           4.6703    0.2085    0.3786 C.ar    1  UNL1       -0.0375
     19 C           5.8445    0.8335    0.8237 C.ar    1  UNL1       -0.0418
     20 C           5.7621    1.9858    1.5636 C.ar    1  UNL1        0.0277
     21 N           4.5373    2.4676    1.8302 N.ar    1  UNL1       -0.2614
     22 C           3.4131    1.8712    1.4053 C.ar    1  UNL1        0.0488
     23 C           0.3457   -2.5394   -1.7733 C.3     1  UNL1        0.0253
     24 C          -0.8229   -1.8942   -2.5471 C.3     1  UNL1       -0.0096
     25 H          -4.5043    2.2614   -0.7977 H       1  UNL1        0.0344
     26 H          -6.0742    1.6993   -1.4556 H       1  UNL1        0.0344
     27 H          -6.0422    2.2641    0.2338 H       1  UNL1        0.0344
     28 H          -3.6308   -1.1249   -2.0932 H       1  UNL1        0.0632
     29 H          -0.4755   -0.2740    1.5386 H       1  UNL1        0.0642
     30 H           1.3025    0.6993    0.5470 H       1  UNL1        0.1564
     31 H           4.7316   -0.6876   -0.1968 H       1  UNL1        0.0637
     32 H           6.7761    0.3816    0.5658 H       1  UNL1        0.0633
     33 H           6.6675    2.4992    1.9271 H       1  UNL1        0.0829
     34 H           2.4562    2.3395    1.6730 H       1  UNL1        0.0848
     35 H           1.1923   -2.5902   -2.4559 H       1  UNL1        0.0472
     36 H           0.0511   -3.4675   -1.2891 H       1  UNL1        0.0472
     37 H          -1.4605   -2.6986   -2.9634 H       1  UNL1        0.0329
     38 H          -0.4509   -1.1824   -3.2854 H       1  UNL1        0.0329
@<TRIPOS>BOND
     1     1     2    1
     2     2     3    1
     3     3     4   ar
     4     4     5   ar
     5     5     6   ar
     6     6     7   ar
     7     7     8   ar
     8     8     9    1
     9     9    10    1
    10     9    11    1
    11     9    12    1
    12     6    13    1
    13    13    14   am
    14    14    15    2
    15    14    16   am
    16    16    17    1
    17    17    18   ar
    18    18    19   ar
    19    19    20   ar
    20    20    21   ar
    21    21    22   ar
    22    13    23    1
    23    23    24    1
    24     8     3   ar
    25    22    17   ar
    26    24     5    1
    27     1    25    1
    28     1    26    1
    29     1    27    1
    30     4    28    1
    31     7    29    1
    32    16    30    1
    33    18    31    1
    34    19    32    1
    35    20    33    1
    36    22    34    1
    37    23    35    1
    38    23    36    1
    39    24    37    1
    40    24    38    1
