@<TRIPOS>MOLECULE
*****
 57 59 0 0 0
SMALL
GASTEIGER

@<TRIPOS>ATOM
      1 C          -4.0654   -1.6856   -1.4183 C.3     1  UNL1       -0.0425
      2 C          -3.2069   -0.5246   -0.9596 C.3     1  UNL1        0.0456
      3 N          -2.1014   -1.1066   -0.2098 N.am    1  UNL1       -0.3075
      4 C          -0.7404   -0.9296   -0.5770 C.2     1  UNL1        0.2307
      5 O          -0.5272   -0.2312   -1.6021 O.2     1  UNL1       -0.2741
      6 C           0.3787   -1.5467    0.2221 C.3     1  UNL1        0.0873
      7 C           0.1024   -3.0180    0.3845 C.3     1  UNL1       -0.0288
      8 C           0.8604   -3.8837   -0.5699 C.3     1  UNL1       -0.0500
      9 C           1.3371   -3.1623   -1.8020 C.3     1  UNL1       -0.0401
     10 C           2.0515   -1.8821   -1.4909 C.3     1  UNL1       -0.0003
     11 N           1.6587   -1.2367   -0.2937 N.3     1  UNL1       -0.2883
     12 C           2.6229   -1.2138    0.7560 C.3     1  UNL1        0.0338
     13 C           3.8286   -0.3634    0.4858 C.3     1  UNL1        0.1023
     14 O           3.5256    0.9827    0.2653 O.3     1  UNL1       -0.4907
     15 C           4.5705    1.8587    0.0067 C.ar    1  UNL1        0.1206
     16 C           4.3455    3.2076   -0.2216 C.ar    1  UNL1       -0.0199
     17 C           5.3661    4.1024   -0.4813 C.ar    1  UNL1       -0.0583
     18 C           6.6785    3.6724   -0.5233 C.ar    1  UNL1       -0.0615
     19 C           6.9179    2.3380   -0.2990 C.ar    1  UNL1       -0.0583
     20 C           5.9018    1.4491   -0.0408 C.ar    1  UNL1       -0.0199
     21 C          -3.9733    0.3984   -0.0759 C.ar    1  UNL1       -0.0274
     22 C          -5.3502    0.3748   -0.0621 C.ar    1  UNL1       -0.0560
     23 C          -6.0894    1.2256    0.7554 C.ar    1  UNL1       -0.0475
     24 C          -5.4573    2.1354    1.5923 C.ar    1  UNL1        0.0589
     25 C          -6.1978    3.0382    2.4593 C.2     1  UNL1        0.3368
     26 O          -5.5508    3.8300    3.1836 O.2     1  UNL1       -0.2451
     27 O          -7.5798    3.0729    2.5302 O.3     1  UNL1       -0.4771
     28 C          -4.0805    2.1452    1.5651 C.ar    1  UNL1       -0.0475
     29 C          -3.3463    1.3028    0.7558 C.ar    1  UNL1       -0.0560
     30 H          -3.4549   -2.5701   -1.6879 H       1  UNL1        0.0251
     31 H          -4.6922   -1.3585   -2.2815 H       1  UNL1        0.0251
     32 H          -4.7714   -2.0289   -0.6374 H       1  UNL1        0.0251
     33 H          -2.8785    0.0461   -1.8268 H       1  UNL1        0.0545
     34 H          -2.3146   -1.6782    0.6333 H       1  UNL1        0.1493
     35 H           0.3034   -1.1057    1.2399 H       1  UNL1        0.0558
     36 H           0.3307   -3.3644    1.4183 H       1  UNL1        0.0285
     37 H          -0.9859   -3.1783    0.2419 H       1  UNL1        0.0285
     38 H           0.2331   -4.7360   -0.9207 H       1  UNL1        0.0266
     39 H           1.7455   -4.3468   -0.0698 H       1  UNL1        0.0266
     40 H           0.5137   -2.9833   -2.5305 H       1  UNL1        0.0278
     41 H           2.0399   -3.8497   -2.3210 H       1  UNL1        0.0278
     42 H           1.9158   -1.2027   -2.3661 H       1  UNL1        0.0427
     43 H           3.1449   -2.0828   -1.4405 H       1  UNL1        0.0427
     44 H           2.1201   -0.7788    1.6599 H       1  UNL1        0.0460
     45 H           2.9719   -2.2123    1.0614 H       1  UNL1        0.0460
     46 H           4.4518   -0.7312   -0.3441 H       1  UNL1        0.0709
     47 H           4.4679   -0.4099    1.4008 H       1  UNL1        0.0709
     48 H           3.3258    3.5681   -0.1939 H       1  UNL1        0.0654
     49 H           5.1744    5.1625   -0.6593 H       1  UNL1        0.0619
     50 H           7.4506    4.4008   -0.7294 H       1  UNL1        0.0618
     51 H           7.9332    1.9892   -0.3287 H       1  UNL1        0.0619
     52 H           6.0878    0.3864    0.1387 H       1  UNL1        0.0654
     53 H          -5.8886   -0.3242   -0.7040 H       1  UNL1        0.0621
     54 H          -7.1768    1.2099    0.7698 H       1  UNL1        0.0626
     55 H          -8.0922    3.6546    3.1827 H       1  UNL1        0.2954
     56 H          -3.5709    2.8559    2.2179 H       1  UNL1        0.0626
     57 H          -2.2639    1.3188    0.7424 H       1  UNL1        0.0621
@<TRIPOS>BOND
     1     1     2    1
     2     2     3    1
     3     3     4   am
     4     4     5    2
     5     4     6    1
     6     6     7    1
     7     7     8    1
     8     8     9    1
     9     9    10    1
    10    10    11    1
    11    11    12    1
    12    12    13    1
    13    13    14    1
    14    14    15    1
    15    15    16   ar
    16    16    17   ar
    17    17    18   ar
    18    18    19   ar
    19    19    20   ar
    20     2    21    1
    21    21    22   ar
    22    22    23   ar
    23    23    24   ar
    24    24    25    1
    25    25    26    2
    26    25    27    1
    27    24    28   ar
    28    28    29   ar
    29    11     6    1
    30    20    15   ar
    31    29    21   ar
    32     1    30    1
    33     1    31    1
    34     1    32    1
    35     2    33    1
    36     3    34    1
    37     6    35    1
    38     7    36    1
    39     7    37    1
    40     8    38    1
    41     8    39    1
    42     9    40    1
    43     9    41    1
    44    10    42    1
    45    10    43    1
    46    12    44    1
    47    12    45    1
    48    13    46    1
    49    13    47    1
    50    16    48    1
    51    17    49    1
    52    18    50    1
    53    19    51    1
    54    20    52    1
    55    22    53    1
    56    23    54    1
    57    27    55    1
    58    28    56    1
    59    29    57    1
