
     RDKit          3D

 57 59  0  0  0  0  0  0  0  0999 V2000
   -4.0654   -1.6856   -1.4183 C   0  0  0  0  0  0  0  0  0  0  0  0
   -3.2069   -0.5246   -0.9596 C   0  0  2  0  0  0  0  0  0  0  0  0
   -2.1014   -1.1066   -0.2098 N   0  0  0  0  0  0  0  0  0  0  0  0
   -0.7404   -0.9296   -0.5770 C   0  0  0  0  0  0  0  0  0  0  0  0
   -0.5272   -0.2312   -1.6021 O   0  0  0  0  0  0  0  0  0  0  0  0
    0.3787   -1.5467    0.2221 C   0  0  1  0  0  0  0  0  0  0  0  0
    0.1024   -3.0180    0.3845 C   0  0  0  0  0  0  0  0  0  0  0  0
    0.8604   -3.8837   -0.5699 C   0  0  0  0  0  0  0  0  0  0  0  0
    1.3371   -3.1623   -1.8020 C   0  0  0  0  0  0  0  0  0  0  0  0
    2.0515   -1.8821   -1.4909 C   0  0  0  0  0  0  0  0  0  0  0  0
    1.6587   -1.2367   -0.2937 N   0  0  0  0  0  0  0  0  0  0  0  0
    2.6229   -1.2138    0.7560 C   0  0  0  0  0  0  0  0  0  0  0  0
    3.8286   -0.3634    0.4858 C   0  0  0  0  0  0  0  0  0  0  0  0
    3.5256    0.9827    0.2653 O   0  0  0  0  0  0  0  0  0  0  0  0
    4.5705    1.8587    0.0067 C   0  0  0  0  0  0  0  0  0  0  0  0
    4.3455    3.2076   -0.2216 C   0  0  0  0  0  0  0  0  0  0  0  0
    5.3661    4.1024   -0.4813 C   0  0  0  0  0  0  0  0  0  0  0  0
    6.6785    3.6724   -0.5233 C   0  0  0  0  0  0  0  0  0  0  0  0
    6.9179    2.3380   -0.2990 C   0  0  0  0  0  0  0  0  0  0  0  0
    5.9018    1.4491   -0.0408 C   0  0  0  0  0  0  0  0  0  0  0  0
   -3.9733    0.3984   -0.0759 C   0  0  0  0  0  0  0  0  0  0  0  0
   -5.3502    0.3748   -0.0621 C   0  0  0  0  0  0  0  0  0  0  0  0
   -6.0894    1.2256    0.7554 C   0  0  0  0  0  0  0  0  0  0  0  0
   -5.4573    2.1354    1.5923 C   0  0  0  0  0  0  0  0  0  0  0  0
   -6.1978    3.0382    2.4593 C   0  0  0  0  0  0  0  0  0  0  0  0
   -5.5508    3.8300    3.1836 O   0  0  0  0  0  0  0  0  0  0  0  0
   -7.5798    3.0729    2.5302 O   0  0  0  0  0  0  0  0  0  0  0  0
   -4.0805    2.1452    1.5651 C   0  0  0  0  0  0  0  0  0  0  0  0
   -3.3463    1.3028    0.7558 C   0  0  0  0  0  0  0  0  0  0  0  0
   -3.4549   -2.5701   -1.6879 H   0  0  0  0  0  0  0  0  0  0  0  0
   -4.6922   -1.3585   -2.2815 H   0  0  0  0  0  0  0  0  0  0  0  0
   -4.7714   -2.0289   -0.6374 H   0  0  0  0  0  0  0  0  0  0  0  0
   -2.8785    0.0461   -1.8268 H   0  0  0  0  0  0  0  0  0  0  0  0
   -2.3146   -1.6782    0.6333 H   0  0  0  0  0  0  0  0  0  0  0  0
    0.3034   -1.1057    1.2399 H   0  0  0  0  0  0  0  0  0  0  0  0
    0.3307   -3.3644    1.4183 H   0  0  0  0  0  0  0  0  0  0  0  0
   -0.9859   -3.1783    0.2419 H   0  0  0  0  0  0  0  0  0  0  0  0
    0.2331   -4.7360   -0.9207 H   0  0  0  0  0  0  0  0  0  0  0  0
    1.7455   -4.3468   -0.0698 H   0  0  0  0  0  0  0  0  0  0  0  0
    0.5137   -2.9833   -2.5305 H   0  0  0  0  0  0  0  0  0  0  0  0
    2.0399   -3.8497   -2.3210 H   0  0  0  0  0  0  0  0  0  0  0  0
    1.9158   -1.2027   -2.3661 H   0  0  0  0  0  0  0  0  0  0  0  0
    3.1449   -2.0828   -1.4405 H   0  0  0  0  0  0  0  0  0  0  0  0
    2.1201   -0.7788    1.6599 H   0  0  0  0  0  0  0  0  0  0  0  0
    2.9719   -2.2123    1.0614 H   0  0  0  0  0  0  0  0  0  0  0  0
    4.4518   -0.7312   -0.3441 H   0  0  0  0  0  0  0  0  0  0  0  0
    4.4679   -0.4099    1.4008 H   0  0  0  0  0  0  0  0  0  0  0  0
    3.3258    3.5681   -0.1939 H   0  0  0  0  0  0  0  0  0  0  0  0
    5.1744    5.1625   -0.6593 H   0  0  0  0  0  0  0  0  0  0  0  0
    7.4506    4.4008   -0.7294 H   0  0  0  0  0  0  0  0  0  0  0  0
    7.9332    1.9892   -0.3287 H   0  0  0  0  0  0  0  0  0  0  0  0
    6.0878    0.3864    0.1387 H   0  0  0  0  0  0  0  0  0  0  0  0
   -5.8886   -0.3242   -0.7040 H   0  0  0  0  0  0  0  0  0  0  0  0
   -7.1768    1.2099    0.7698 H   0  0  0  0  0  0  0  0  0  0  0  0
   -8.0922    3.6546    3.1827 H   0  0  0  0  0  0  0  0  0  0  0  0
   -3.5709    2.8559    2.2179 H   0  0  0  0  0  0  0  0  0  0  0  0
   -2.2639    1.3188    0.7424 H   0  0  0  0  0  0  0  0  0  0  0  0
  1  2  1  0
  2  3  1  0
  3  4  1  0
  4  5  2  0
  4  6  1  0
  6  7  1  0
  7  8  1  0
  8  9  1  0
  9 10  1  0
 10 11  1  0
 11 12  1  0
 12 13  1  0
 13 14  1  0
 14 15  1  0
 15 16  2  0
 16 17  1  0
 17 18  2  0
 18 19  1  0
 19 20  2  0
  2 21  1  0
 21 22  2  0
 22 23  1  0
 23 24  2  0
 24 25  1  0
 25 26  2  0
 25 27  1  0
 24 28  1  0
 28 29  2  0
 11  6  1  0
 20 15  1  0
 29 21  1  0
  1 30  1  0
  1 31  1  0
  1 32  1  0
  2 33  1  6
  3 34  1  0
  6 35  1  1
  7 36  1  0
  7 37  1  0
  8 38  1  0
  8 39  1  0
  9 40  1  0
  9 41  1  0
 10 42  1  0
 10 43  1  0
 12 44  1  0
 12 45  1  0
 13 46  1  0
 13 47  1  0
 16 48  1  0
 17 49  1  0
 18 50  1  0
 19 51  1  0
 20 52  1  0
 22 53  1  0
 23 54  1  0
 27 55  1  0
 28 56  1  0
 29 57  1  0
M  END
$$$$
