
     RDKit          3D

 38 40  0  0  0  0  0  0  0  0999 V2000
    4.9656   -0.7594   -2.1895 O   0  0  0  0  0  0  0  0  0  0  0  0
    4.0367   -0.4541   -1.3975 C   0  0  0  0  0  0  0  0  0  0  0  0
    3.9971    0.8518   -0.9292 O   0  0  0  0  0  0  0  0  0  0  0  0
    3.0176   -1.4525   -0.9765 C   0  0  1  0  0  0  0  0  0  0  0  0
    3.5885   -2.3538    0.0916 C   0  0  0  0  0  0  0  0  0  0  0  0
    2.4217   -1.8630    0.9171 C   0  0  0  0  0  0  0  0  0  0  0  0
    2.0552   -0.8881   -0.0724 N   0  0  0  0  0  0  0  0  0  0  0  0
    1.1307    0.1780   -0.1226 C   0  0  0  0  0  0  0  0  0  0  0  0
    1.0098    0.9095   -1.1688 O   0  0  0  0  0  0  0  0  0  0  0  0
    0.2803    0.5153    0.9605 N   0  0  0  0  0  0  0  0  0  0  0  0
   -0.6277    1.5964    0.8413 C   0  0  0  0  0  0  0  0  0  0  0  0
   -0.2235    2.8993    1.1582 C   0  0  0  0  0  0  0  0  0  0  0  0
   -1.0580    3.9832    1.0770 C   0  0  0  0  0  0  0  0  0  0  0  0
   -0.5075    5.6033    1.4851 Cl  0  0  0  0  0  0  0  0  0  0  0  0
   -2.3540    3.7634    0.6621 C   0  0  0  0  0  0  0  0  0  0  0  0
   -2.7691    2.4915    0.3468 C   0  0  0  0  0  0  0  0  0  0  0  0
   -1.9112    1.3916    0.4324 C   0  0  0  0  0  0  0  0  0  0  0  0
   -2.3591    0.0508    0.0970 C   0  0  0  0  0  0  0  0  0  0  0  0
   -2.8644   -0.8233    1.0401 C   0  0  0  0  0  0  0  0  0  0  0  0
   -3.2790   -2.0996    0.7019 C   0  0  0  0  0  0  0  0  0  0  0  0
   -3.2018   -2.5482   -0.5997 C   0  0  0  0  0  0  0  0  0  0  0  0
   -3.6150   -3.8151   -0.9256 F   0  0  0  0  0  0  0  0  0  0  0  0
   -2.7007   -1.6875   -1.5475 C   0  0  0  0  0  0  0  0  0  0  0  0
   -2.2865   -0.4066   -1.1992 C   0  0  0  0  0  0  0  0  0  0  0  0
   -1.8013    0.4259   -2.1662 F   0  0  0  0  0  0  0  0  0  0  0  0
    4.7958    1.4724   -0.9483 H   0  0  0  0  0  0  0  0  0  0  0  0
    2.5571   -2.0167   -1.8133 H   0  0  0  0  0  0  0  0  0  0  0  0
    3.5775   -3.4223   -0.1458 H   0  0  0  0  0  0  0  0  0  0  0  0
    4.5844   -2.0365    0.4731 H   0  0  0  0  0  0  0  0  0  0  0  0
    1.6693   -2.6618    1.1018 H   0  0  0  0  0  0  0  0  0  0  0  0
    2.7565   -1.4584    1.8997 H   0  0  0  0  0  0  0  0  0  0  0  0
    0.3522   -0.0647    1.8447 H   0  0  0  0  0  0  0  0  0  0  0  0
    0.7897    3.0570    1.4804 H   0  0  0  0  0  0  0  0  0  0  0  0
   -3.0010    4.6292    0.6031 H   0  0  0  0  0  0  0  0  0  0  0  0
   -3.7749    2.3141    0.0238 H   0  0  0  0  0  0  0  0  0  0  0  0
   -2.9330   -0.4913    2.0638 H   0  0  0  0  0  0  0  0  0  0  0  0
   -3.6784   -2.7925    1.4433 H   0  0  0  0  0  0  0  0  0  0  0  0
   -2.6397   -2.0373   -2.5667 H   0  0  0  0  0  0  0  0  0  0  0  0
  1  2  2  0
  2  3  1  0
  2  4  1  0
  4  5  1  0
  5  6  1  0
  6  7  1  0
  7  8  1  0
  8  9  2  0
  8 10  1  0
 10 11  1  0
 11 12  2  0
 12 13  1  0
 13 14  1  0
 13 15  2  0
 15 16  1  0
 16 17  2  0
 17 18  1  0
 18 19  2  0
 19 20  1  0
 20 21  2  0
 21 22  1  0
 21 23  1  0
 23 24  2  0
 24 25  1  0
  7  4  1  0
 17 11  1  0
 24 18  1  0
  3 26  1  0
  4 27  1  6
  5 28  1  0
  5 29  1  0
  6 30  1  0
  6 31  1  0
 10 32  1  0
 12 33  1  0
 15 34  1  0
 16 35  1  0
 19 36  1  0
 20 37  1  0
 23 38  1  0
M  END
$$$$
