@<TRIPOS>MOLECULE
*****
 38 40 0 0 0
SMALL
GASTEIGER

@<TRIPOS>ATOM
      1 O           4.9656   -0.7594   -2.1895 O.2     1  UNL1       -0.2489
      2 C           4.0367   -0.4541   -1.3975 C.2     1  UNL1        0.3256
      3 O           3.9971    0.8518   -0.9292 O.3     1  UNL1       -0.4793
      4 C           3.0176   -1.4525   -0.9765 C.3     1  UNL1        0.1256
      5 C           3.5885   -2.3538    0.0916 C.3     1  UNL1       -0.0079
      6 C           2.4217   -1.8630    0.9171 C.3     1  UNL1        0.0192
      7 N           2.0552   -0.8881   -0.0724 N.am    1  UNL1       -0.2718
      8 C           1.1307    0.1780   -0.1226 C.2     1  UNL1        0.3071
      9 O           1.0098    0.9095   -1.1688 O.2     1  UNL1       -0.2523
     10 N           0.2803    0.5153    0.9605 N.am    1  UNL1       -0.2687
     11 C          -0.6277    1.5964    0.8413 C.ar    1  UNL1        0.0439
     12 C          -0.2235    2.8993    1.1582 C.ar    1  UNL1       -0.0215
     13 C          -1.0580    3.9832    1.0770 C.ar    1  UNL1        0.0428
     14 CL         -0.5075    5.6033    1.4851 Cl      1  UNL1       -0.0835
     15 C          -2.3540    3.7634    0.6621 C.ar    1  UNL1       -0.0427
     16 C          -2.7691    2.4915    0.3468 C.ar    1  UNL1       -0.0508
     17 C          -1.9112    1.3916    0.4324 C.ar    1  UNL1        0.0062
     18 C          -2.3591    0.0508    0.0970 C.ar    1  UNL1        0.0193
     19 C          -2.8644   -0.8233    1.0401 C.ar    1  UNL1       -0.0485
     20 C          -3.2790   -2.0996    0.7019 C.ar    1  UNL1       -0.0257
     21 C          -3.2018   -2.5482   -0.5997 C.ar    1  UNL1        0.1262
     22 F          -3.6150   -3.8151   -0.9256 F       1  UNL1       -0.2054
     23 C          -2.7007   -1.6875   -1.5475 C.ar    1  UNL1        0.0094
     24 C          -2.2865   -0.4066   -1.1992 C.ar    1  UNL1        0.1338
     25 F          -1.8013    0.4259   -2.1662 F       1  UNL1       -0.2048
     26 H           4.7958    1.4724   -0.9483 H       1  UNL1        0.2951
     27 H           2.5571   -2.0167   -1.8133 H       1  UNL1        0.0617
     28 H           3.5775   -3.4223   -0.1458 H       1  UNL1        0.0304
     29 H           4.5844   -2.0365    0.4731 H       1  UNL1        0.0304
     30 H           1.6693   -2.6618    1.1018 H       1  UNL1        0.0466
     31 H           2.7565   -1.4584    1.8997 H       1  UNL1        0.0466
     32 H           0.3522   -0.0647    1.8447 H       1  UNL1        0.1564
     33 H           0.7897    3.0570    1.4804 H       1  UNL1        0.0651
     34 H          -3.0010    4.6292    0.6031 H       1  UNL1        0.0632
     35 H          -3.7749    2.3141    0.0238 H       1  UNL1        0.0625
     36 H          -2.9330   -0.4913    2.0638 H       1  UNL1        0.0625
     37 H          -3.6784   -2.7925    1.4433 H       1  UNL1        0.0646
     38 H          -2.6397   -2.0373   -2.5667 H       1  UNL1        0.0675
@<TRIPOS>BOND
     1     1     2    2
     2     2     3    1
     3     2     4    1
     4     4     5    1
     5     5     6    1
     6     6     7    1
     7     7     8   am
     8     8     9    2
     9     8    10   am
    10    10    11    1
    11    11    12   ar
    12    12    13   ar
    13    13    14    1
    14    13    15   ar
    15    15    16   ar
    16    16    17   ar
    17    17    18    1
    18    18    19   ar
    19    19    20   ar
    20    20    21   ar
    21    21    22    1
    22    21    23   ar
    23    23    24   ar
    24    24    25    1
    25     7     4    1
    26    17    11   ar
    27    24    18   ar
    28     3    26    1
    29     4    27    1
    30     5    28    1
    31     5    29    1
    32     6    30    1
    33     6    31    1
    34    10    32    1
    35    12    33    1
    36    15    34    1
    37    16    35    1
    38    19    36    1
    39    20    37    1
    40    23    38    1
