
     RDKit          3D

 30 30  0  0  0  0  0  0  0  0999 V2000
    4.6560    0.3028   -1.2250 O   0  0  0  0  0  0  0  0  0  0  0  0
    3.7448    1.2733   -0.2161 S   0  0  0  0  0  0  0  0  0  0  0  0
    3.8823    2.7405   -0.5429 O   0  0  0  0  0  0  0  0  0  0  0  0
    4.1709    1.0741    1.2078 O   0  0  0  0  0  0  0  0  0  0  0  0
    1.9991    0.8422   -0.4217 C   0  0  0  0  0  0  0  0  0  0  0  0
    1.7824   -0.5881   -0.0762 C   0  0  0  0  0  0  0  0  0  0  0  0
    0.5047   -1.0920   -0.2000 N   0  0  0  0  0  0  0  0  0  0  0  0
   -0.5789   -0.8320    0.6296 C   0  0  0  0  0  0  0  0  0  0  0  0
   -1.0539    0.5681    0.7777 C   0  0  0  0  0  0  0  0  0  0  0  0
   -1.5642    1.0153   -0.5754 C   0  0  0  0  0  0  0  0  0  0  0  0
   -2.9829    0.4625   -0.6850 C   0  0  0  0  0  0  0  0  0  0  0  0
   -3.0506   -0.8169    0.0767 C   0  0  0  0  0  0  0  0  0  0  0  0
   -1.7966   -1.6211    0.1150 C   0  0  0  0  0  0  0  0  0  0  0  0
    5.0538   -0.4251   -0.6564 H   0  0  0  0  0  0  0  0  0  0  0  0
    1.4739    1.5888    0.1666 H   0  0  0  0  0  0  0  0  0  0  0  0
    1.7461    1.0279   -1.5064 H   0  0  0  0  0  0  0  0  0  0  0  0
    2.1691   -0.7583    0.9909 H   0  0  0  0  0  0  0  0  0  0  0  0
    2.5649   -1.1732   -0.6653 H   0  0  0  0  0  0  0  0  0  0  0  0
    0.3715   -1.8457   -0.9192 H   0  0  0  0  0  0  0  0  0  0  0  0
   -0.4230   -1.2289    1.6962 H   0  0  0  0  0  0  0  0  0  0  0  0
   -1.9728    0.5216    1.4774 H   0  0  0  0  0  0  0  0  0  0  0  0
   -0.4032    1.2891    1.2493 H   0  0  0  0  0  0  0  0  0  0  0  0
   -0.8979    0.5979   -1.3741 H   0  0  0  0  0  0  0  0  0  0  0  0
   -1.6111    2.1336   -0.6097 H   0  0  0  0  0  0  0  0  0  0  0  0
   -3.6262    1.2385   -0.1655 H   0  0  0  0  0  0  0  0  0  0  0  0
   -3.2986    0.3666   -1.7432 H   0  0  0  0  0  0  0  0  0  0  0  0
   -3.5171   -0.6684    1.0880 H   0  0  0  0  0  0  0  0  0  0  0  0
   -3.8120   -1.4874   -0.4495 H   0  0  0  0  0  0  0  0  0  0  0  0
   -1.5922   -2.0026   -0.9121 H   0  0  0  0  0  0  0  0  0  0  0  0
   -1.9384   -2.5034    0.7540 H   0  0  0  0  0  0  0  0  0  0  0  0
  1  2  1  0
  2  3  2  0
  2  4  2  0
  2  5  1  0
  5  6  1  0
  6  7  1  0
  7  8  1  0
  8  9  1  0
  9 10  1  0
 10 11  1  0
 11 12  1  0
 12 13  1  0
 13  8  1  0
  1 14  1  0
  5 15  1  0
  5 16  1  0
  6 17  1  0
  6 18  1  0
  7 19  1  0
  8 20  1  0
  9 21  1  0
  9 22  1  0
 10 23  1  0
 10 24  1  0
 11 25  1  0
 11 26  1  0
 12 27  1  0
 12 28  1  0
 13 29  1  0
 13 30  1  0
M  END
$$$$
