@<TRIPOS>MOLECULE
*****
 30 30 0 0 0
SMALL
GASTEIGER

@<TRIPOS>ATOM
      1 O           4.6560    0.3028   -1.2250 O.3     1  UNL1       -0.2539
      2 S           3.7448    1.2733   -0.2161 S.O2    1  UNL1        0.0810
      3 O           3.8823    2.7405   -0.5429 O.2     1  UNL1       -0.1474
      4 O           4.1709    1.0741    1.2078 O.2     1  UNL1       -0.1474
      5 C           1.9991    0.8422   -0.4217 C.3     1  UNL1        0.1051
      6 C           1.7824   -0.5881   -0.0762 C.3     1  UNL1        0.0179
      7 N           0.5047   -1.0920   -0.2000 N.3     1  UNL1       -0.3116
      8 C          -0.5789   -0.8320    0.6296 C.3     1  UNL1        0.0077
      9 C          -1.0539    0.5681    0.7777 C.3     1  UNL1       -0.0375
     10 C          -1.5642    1.0153   -0.5754 C.3     1  UNL1       -0.0516
     11 C          -2.9829    0.4625   -0.6850 C.3     1  UNL1       -0.0530
     12 C          -3.0506   -0.8169    0.0767 C.3     1  UNL1       -0.0516
     13 C          -1.7966   -1.6211    0.1150 C.3     1  UNL1       -0.0375
     14 H           5.0538   -0.4251   -0.6564 H       1  UNL1        0.2445
     15 H           1.4739    1.5888    0.1666 H       1  UNL1        0.0538
     16 H           1.7461    1.0279   -1.5064 H       1  UNL1        0.0538
     17 H           2.1691   -0.7583    0.9909 H       1  UNL1        0.0441
     18 H           2.5649   -1.1732   -0.6653 H       1  UNL1        0.0441
     19 H           0.3715   -1.8457   -0.9192 H       1  UNL1        0.1222
     20 H          -0.4230   -1.2289    1.6962 H       1  UNL1        0.0460
     21 H          -1.9728    0.5216    1.4774 H       1  UNL1        0.0280
     22 H          -0.4032    1.2891    1.2493 H       1  UNL1        0.0280
     23 H          -0.8979    0.5979   -1.3741 H       1  UNL1        0.0266
     24 H          -1.6111    2.1336   -0.6097 H       1  UNL1        0.0266
     25 H          -3.6262    1.2385   -0.1655 H       1  UNL1        0.0265
     26 H          -3.2986    0.3666   -1.7432 H       1  UNL1        0.0265
     27 H          -3.5171   -0.6684    1.0880 H       1  UNL1        0.0266
     28 H          -3.8120   -1.4874   -0.4495 H       1  UNL1        0.0266
     29 H          -1.5922   -2.0026   -0.9121 H       1  UNL1        0.0280
     30 H          -1.9384   -2.5034    0.7540 H       1  UNL1        0.0280
@<TRIPOS>BOND
     1     1     2    1
     2     2     3    2
     3     2     4    2
     4     2     5    1
     5     5     6    1
     6     6     7    1
     7     7     8    1
     8     8     9    1
     9     9    10    1
    10    10    11    1
    11    11    12    1
    12    12    13    1
    13    13     8    1
    14     1    14    1
    15     5    15    1
    16     5    16    1
    17     6    17    1
    18     6    18    1
    19     7    19    1
    20     8    20    1
    21     9    21    1
    22     9    22    1
    23    10    23    1
    24    10    24    1
    25    11    25    1
    26    11    26    1
    27    12    27    1
    28    12    28    1
    29    13    29    1
    30    13    30    1
