@<TRIPOS>MOLECULE
*****
 42 45 0 0 0
SMALL
GASTEIGER

@<TRIPOS>ATOM
      1 N           2.6854    0.0514    2.7779 N.am    1  UNL1       -0.3241
      2 C           3.6404   -0.6616    2.0172 C.2     1  UNL1        0.2599
      3 O           4.6996   -1.0517    2.5652 O.2     1  UNL1       -0.2687
      4 C           3.3735   -0.9286    0.6106 C.ar    1  UNL1        0.1280
      5 C           4.2528   -1.6187   -0.2316 C.ar    1  UNL1        0.0588
      6 N           3.6870   -1.6772   -1.4412 N.ar    1  UNL1       -0.2353
      7 C           2.4914   -1.0618   -1.4220 C.ar    1  UNL1        0.1381
      8 C           1.5332   -0.8510   -2.3864 C.ar    1  UNL1       -0.0182
      9 C           0.3861   -0.1776   -2.0739 C.ar    1  UNL1       -0.0477
     10 C           0.2227    0.2832   -0.7581 C.ar    1  UNL1        0.0173
     11 C          -1.0073    0.9979   -0.4077 C.ar    1  UNL1        0.0781
     12 C          -2.2590    0.5055   -0.1112 C.ar    1  UNL1        0.0995
     13 C          -2.5849   -0.9091   -0.0751 C.ar    1  UNL1        0.0392
     14 C          -3.4535   -1.3696   -1.0429 C.ar    1  UNL1       -0.0286
     15 C          -3.8010   -2.6920   -1.0598 C.ar    1  UNL1        0.0769
     16 CL         -4.9128   -3.2706   -2.3030 Cl      1  UNL1       -0.0806
     17 C          -3.2773   -3.5399   -0.1101 C.ar    1  UNL1        0.1444
     18 F          -3.6273   -4.8454   -0.1363 F       1  UNL1       -0.2039
     19 C          -2.4093   -3.0847    0.8586 C.ar    1  UNL1        0.0109
     20 C          -2.0445   -1.7330    0.8884 C.ar    1  UNL1        0.1354
     21 F          -1.2020   -1.2684    1.8245 F       1  UNL1       -0.2047
     22 N          -3.1196    1.4987    0.1380 N.ar    1  UNL1       -0.2350
     23 C          -2.4070    2.6300   -0.0017 C.ar    1  UNL1        0.0972
     24 N          -1.1151    2.3289   -0.3353 N.ar    1  UNL1       -0.3241
     25 C          -0.0940    3.3231   -0.5610 C.3     1  UNL1        0.0852
     26 C           0.6479    3.6996    0.6986 C.3     1  UNL1        0.2569
     27 F          -0.2314    4.2183    1.6466 F       1  UNL1       -0.2073
     28 F           1.5882    4.6701    0.3833 F       1  UNL1       -0.2073
     29 C           1.1926    0.0621    0.1917 C.ar    1  UNL1        0.0211
     30 N           2.3181   -0.6105   -0.1569 N.ar    1  UNL1       -0.2949
     31 H           1.8862   -0.4246    3.2451 H       1  UNL1        0.1453
     32 H           2.7569    1.0847    2.8927 H       1  UNL1        0.1453
     33 H           5.2260   -2.0243    0.0861 H       1  UNL1        0.0853
     34 H           1.6786   -1.2113   -3.3841 H       1  UNL1        0.0654
     35 H          -0.4014    0.0179   -2.7900 H       1  UNL1        0.0626
     36 H          -3.8594   -0.6724   -1.7931 H       1  UNL1        0.0640
     37 H          -1.9732   -3.7117    1.6246 H       1  UNL1        0.0676
     38 H          -2.8278    3.6160    0.1373 H       1  UNL1        0.1029
     39 H           0.6970    2.9322   -1.2670 H       1  UNL1        0.0548
     40 H          -0.4872    4.2365   -1.0540 H       1  UNL1        0.0548
     41 H           1.1275    2.8024    1.1315 H       1  UNL1        0.1037
     42 H           1.0040    0.4372    1.1848 H       1  UNL1        0.0820
@<TRIPOS>BOND
     1     1     2   am
     2     2     3    2
     3     2     4    1
     4     4     5   ar
     5     5     6   ar
     6     6     7   ar
     7     7     8   ar
     8     8     9   ar
     9     9    10   ar
    10    10    11    1
    11    11    12   ar
    12    12    13    1
    13    13    14   ar
    14    14    15   ar
    15    15    16    1
    16    15    17   ar
    17    17    18    1
    18    17    19   ar
    19    19    20   ar
    20    20    21    1
    21    12    22   ar
    22    22    23   ar
    23    23    24   ar
    24    24    25    1
    25    25    26    1
    26    26    27    1
    27    26    28    1
    28    10    29   ar
    29    29    30   ar
    30    30     4   ar
    31    30     7   ar
    32    24    11   ar
    33    20    13   ar
    34     1    31    1
    35     1    32    1
    36     5    33    1
    37     8    34    1
    38     9    35    1
    39    14    36    1
    40    19    37    1
    41    23    38    1
    42    25    39    1
    43    25    40    1
    44    26    41    1
    45    29    42    1
