
     RDKit          3D

 66 70  0  0  0  0  0  0  0  0999 V2000
   -4.8195    1.3849    1.3922 C   0  0  0  0  0  0  0  0  0  0  0  0
   -4.6394   -0.0480    0.9509 C   0  0  2  0  0  0  0  0  0  0  0  0
   -3.3090   -0.2111    0.4613 N   0  0  0  0  0  0  0  0  0  0  0  0
   -2.1622    0.0247    1.2656 C   0  0  0  0  0  0  0  0  0  0  0  0
   -2.2562    0.4257    2.5460 N   0  0  0  0  0  0  0  0  0  0  0  0
   -1.1744    0.6506    3.3194 C   0  0  0  0  0  0  0  0  0  0  0  0
    0.1007    0.4721    2.8098 C   0  0  0  0  0  0  0  0  0  0  0  0
    0.2093    0.0616    1.4999 C   0  0  0  0  0  0  0  0  0  0  0  0
   -0.9285   -0.1472    0.7750 N   0  0  0  0  0  0  0  0  0  0  0  0
    1.4134   -0.2093    0.6987 C   0  0  0  0  0  0  0  0  0  0  0  0
    1.8035    0.4588   -0.4560 C   0  0  0  0  0  0  0  0  0  0  0  0
    2.9560   -0.1222   -0.8497 N   0  0  0  0  0  0  0  0  0  0  0  0
    3.2790   -1.1109    0.0153 C   0  0  0  0  0  0  0  0  0  0  0  0
    4.4725   -1.9689   -0.0941 C   0  0  0  0  0  0  0  0  0  0  0  0
    5.7459   -1.1522   -0.0465 C   0  0  0  0  0  0  0  0  0  0  0  0
    6.8752   -2.1554    0.1007 C   0  0  0  0  0  0  0  0  0  0  0  0
    6.8996   -3.0748   -0.9909 N   0  0  0  0  0  0  0  0  0  0  0  0
    5.6522   -3.6910   -1.3199 C   0  0  0  0  0  0  0  0  0  0  0  0
    4.5134   -2.7052   -1.4286 C   0  0  0  0  0  0  0  0  0  0  0  0
    2.3249   -1.1553    0.9619 N   0  0  0  0  0  0  0  0  0  0  0  0
    2.3439   -2.1044    2.0658 C   0  0  0  0  0  0  0  0  0  0  0  0
    1.0173    1.5602   -1.0185 C   0  0  0  0  0  0  0  0  0  0  0  0
    0.9442    2.6485   -0.1393 C   0  0  0  0  0  0  0  0  0  0  0  0
    0.2586    3.7898   -0.4589 C   0  0  0  0  0  0  0  0  0  0  0  0
   -0.3679    3.8550   -1.6747 C   0  0  0  0  0  0  0  0  0  0  0  0
   -0.3088    2.8029   -2.5484 C   0  0  0  0  0  0  0  0  0  0  0  0
    0.3730    1.6538   -2.2440 C   0  0  0  0  0  0  0  0  0  0  0  0
    0.1740    4.9599    0.4741 C   0  0  0  0  0  0  0  0  0  0  0  0
    0.3642    4.5675    1.7877 F   0  0  0  0  0  0  0  0  0  0  0  0
    1.0925    5.9258    0.0887 F   0  0  0  0  0  0  0  0  0  0  0  0
   -1.0833    5.5063    0.3170 F   0  0  0  0  0  0  0  0  0  0  0  0
   -5.6726   -0.3188   -0.0844 C   0  0  0  0  0  0  0  0  0  0  0  0
   -6.8207   -1.0771    0.1052 C   0  0  0  0  0  0  0  0  0  0  0  0
   -7.6871   -1.2297   -0.9835 C   0  0  0  0  0  0  0  0  0  0  0  0
   -7.4432   -0.6692   -2.1958 C   0  0  0  0  0  0  0  0  0  0  0  0
   -6.3095    0.0707   -2.3567 C   0  0  0  0  0  0  0  0  0  0  0  0
   -5.4200    0.2584   -1.3301 C   0  0  0  0  0  0  0  0  0  0  0  0
   -4.1343    2.0864    0.8746 H   0  0  0  0  0  0  0  0  0  0  0  0
   -5.8541    1.7626    1.1658 H   0  0  0  0  0  0  0  0  0  0  0  0
   -4.7328    1.4596    2.4951 H   0  0  0  0  0  0  0  0  0  0  0  0
   -4.8280   -0.7709    1.7799 H   0  0  0  0  0  0  0  0  0  0  0  0
   -3.1880   -0.5133   -0.5185 H   0  0  0  0  0  0  0  0  0  0  0  0
   -1.1997    0.9731    4.3519 H   0  0  0  0  0  0  0  0  0  0  0  0
    1.0507    0.6037    3.2781 H   0  0  0  0  0  0  0  0  0  0  0  0
    4.5140   -2.6921    0.7402 H   0  0  0  0  0  0  0  0  0  0  0  0
    5.8613   -0.6670   -1.0424 H   0  0  0  0  0  0  0  0  0  0  0  0
    5.7575   -0.4349    0.7811 H   0  0  0  0  0  0  0  0  0  0  0  0
    7.8213   -1.5673    0.0496 H   0  0  0  0  0  0  0  0  0  0  0  0
    6.7656   -2.6625    1.0616 H   0  0  0  0  0  0  0  0  0  0  0  0
    7.4581   -2.7710   -1.8077 H   0  0  0  0  0  0  0  0  0  0  0  0
    5.7621   -4.1751   -2.3132 H   0  0  0  0  0  0  0  0  0  0  0  0
    5.3795   -4.5170   -0.6233 H   0  0  0  0  0  0  0  0  0  0  0  0
    4.7154   -1.9780   -2.2158 H   0  0  0  0  0  0  0  0  0  0  0  0
    3.5793   -3.2798   -1.5722 H   0  0  0  0  0  0  0  0  0  0  0  0
    1.5298   -1.9034    2.7834 H   0  0  0  0  0  0  0  0  0  0  0  0
    2.2784   -3.1195    1.6774 H   0  0  0  0  0  0  0  0  0  0  0  0
    3.2860   -1.9184    2.6605 H   0  0  0  0  0  0  0  0  0  0  0  0
    1.4151    2.6797    0.8507 H   0  0  0  0  0  0  0  0  0  0  0  0
   -0.9273    4.7555   -1.9648 H   0  0  0  0  0  0  0  0  0  0  0  0
   -0.7845    2.8007   -3.5212 H   0  0  0  0  0  0  0  0  0  0  0  0
    0.5019    0.7559   -2.8296 H   0  0  0  0  0  0  0  0  0  0  0  0
   -6.9646   -1.5001    1.0910 H   0  0  0  0  0  0  0  0  0  0  0  0
   -8.5525   -1.8308   -0.7553 H   0  0  0  0  0  0  0  0  0  0  0  0
   -8.1948   -0.8677   -2.9465 H   0  0  0  0  0  0  0  0  0  0  0  0
   -6.1663    0.4989   -3.3594 H   0  0  0  0  0  0  0  0  0  0  0  0
   -4.5597    0.8657   -1.5862 H   0  0  0  0  0  0  0  0  0  0  0  0
  1  2  1  0
  2  3  1  0
  3  4  1  0
  4  5  2  0
  5  6  1  0
  6  7  2  0
  7  8  1  0
  8  9  2  0
  8 10  1  0
 10 11  2  0
 11 12  1  0
 12 13  2  0
 13 14  1  0
 14 15  1  0
 15 16  1  0
 16 17  1  0
 17 18  1  0
 18 19  1  0
 13 20  1  0
 20 21  1  0
 11 22  1  0
 22 23  2  0
 23 24  1  0
 24 25  2  0
 25 26  1  0
 26 27  2  0
 24 28  1  0
 28 29  1  0
 28 30  1  0
 28 31  1  0
  2 32  1  0
 32 33  2  0
 33 34  1  0
 34 35  2  0
 35 36  1  0
 36 37  2  0
  9  4  1  0
 20 10  1  0
 27 22  1  0
 37 32  1  0
 19 14  1  0
  1 38  1  0
  1 39  1  0
  1 40  1  0
  2 41  1  1
  3 42  1  0
  6 43  1  0
  7 44  1  0
 14 45  1  0
 15 46  1  0
 15 47  1  0
 16 48  1  0
 16 49  1  0
 17 50  1  0
 18 51  1  0
 18 52  1  0
 19 53  1  0
 19 54  1  0
 21 55  1  0
 21 56  1  0
 21 57  1  0
 23 58  1  0
 25 59  1  0
 26 60  1  0
 27 61  1  0
 33 62  1  0
 34 63  1  0
 35 64  1  0
 36 65  1  0
 37 66  1  0
M  END
$$$$
