@<TRIPOS>MOLECULE
*****
 66 70 0 0 0
SMALL
GASTEIGER

@<TRIPOS>ATOM
      1 C          -4.8195    1.3849    1.3922 C.3     1  UNL1       -0.0424
      2 C          -4.6394   -0.0480    0.9509 C.3     1  UNL1        0.0457
      3 N          -3.3090   -0.2111    0.4613 N.pl3   1  UNL1       -0.3069
      4 C          -2.1622    0.0247    1.2656 C.ar    1  UNL1        0.2162
      5 N          -2.2562    0.4257    2.5460 N.ar    1  UNL1       -0.2229
      6 C          -1.1744    0.6506    3.3194 C.ar    1  UNL1        0.0333
      7 C           0.1007    0.4721    2.8098 C.ar    1  UNL1       -0.0159
      8 C           0.2093    0.0616    1.4999 C.ar    1  UNL1        0.0945
      9 N          -0.9285   -0.1472    0.7750 N.ar    1  UNL1       -0.2129
     10 C           1.4134   -0.2093    0.6987 C.ar    1  UNL1        0.0950
     11 C           1.8035    0.4588   -0.4560 C.ar    1  UNL1        0.0985
     12 N           2.9560   -0.1222   -0.8497 N.ar    1  UNL1       -0.2313
     13 C           3.2790   -1.1109    0.0153 C.ar    1  UNL1        0.1138
     14 C           4.4725   -1.9689   -0.0941 C.3     1  UNL1        0.0196
     15 C           5.7459   -1.1522   -0.0465 C.3     1  UNL1       -0.0307
     16 C           6.8752   -2.1554    0.1007 C.3     1  UNL1       -0.0035
     17 N           6.8996   -3.0748   -0.9909 N.3     1  UNL1       -0.3159
     18 C           5.6522   -3.6910   -1.3199 C.3     1  UNL1       -0.0035
     19 C           4.5134   -2.7052   -1.4286 C.3     1  UNL1       -0.0307
     20 N           2.3249   -1.1553    0.9619 N.ar    1  UNL1       -0.3287
     21 C           2.3439   -2.1044    2.0658 C.3     1  UNL1        0.0136
     22 C           1.0173    1.5602   -1.0185 C.ar    1  UNL1        0.0030
     23 C           0.9442    2.6485   -0.1393 C.ar    1  UNL1       -0.0409
     24 C           0.2586    3.7898   -0.4589 C.ar    1  UNL1        0.0554
     25 C          -0.3679    3.8550   -1.6747 C.ar    1  UNL1       -0.0501
     26 C          -0.3088    2.8029   -2.5484 C.ar    1  UNL1       -0.0606
     27 C           0.3730    1.6538   -2.2440 C.ar    1  UNL1       -0.0525
     28 C           0.1740    4.9599    0.4741 C.3     1  UNL1        0.4174
     29 F           0.3642    4.5675    1.7877 F       1  UNL1       -0.1659
     30 F           1.0925    5.9258    0.0887 F       1  UNL1       -0.1659
     31 F          -1.0833    5.5063    0.3170 F       1  UNL1       -0.1659
     32 C          -5.6726   -0.3188   -0.0844 C.ar    1  UNL1       -0.0275
     33 C          -6.8207   -1.0771    0.1052 C.ar    1  UNL1       -0.0568
     34 C          -7.6871   -1.2297   -0.9835 C.ar    1  UNL1       -0.0614
     35 C          -7.4432   -0.6692   -2.1958 C.ar    1  UNL1       -0.0617
     36 C          -6.3095    0.0707   -2.3567 C.ar    1  UNL1       -0.0614
     37 C          -5.4200    0.2584   -1.3301 C.ar    1  UNL1       -0.0568
     38 H          -4.1343    2.0864    0.8746 H       1  UNL1        0.0251
     39 H          -5.8541    1.7626    1.1658 H       1  UNL1        0.0251
     40 H          -4.7328    1.4596    2.4951 H       1  UNL1        0.0251
     41 H          -4.8280   -0.7709    1.7799 H       1  UNL1        0.0545
     42 H          -3.1880   -0.5133   -0.5185 H       1  UNL1        0.1495
     43 H          -1.1997    0.9731    4.3519 H       1  UNL1        0.0831
     44 H           1.0507    0.6037    3.2781 H       1  UNL1        0.0655
     45 H           4.5140   -2.6921    0.7402 H       1  UNL1        0.0380
     46 H           5.8613   -0.6670   -1.0424 H       1  UNL1        0.0284
     47 H           5.7575   -0.4349    0.7811 H       1  UNL1        0.0284
     48 H           7.8213   -1.5673    0.0496 H       1  UNL1        0.0424
     49 H           6.7656   -2.6625    1.0616 H       1  UNL1        0.0424
     50 H           7.4581   -2.7710   -1.8077 H       1  UNL1        0.1219
     51 H           5.7621   -4.1751   -2.3132 H       1  UNL1        0.0424
     52 H           5.3795   -4.5170   -0.6233 H       1  UNL1        0.0424
     53 H           4.7154   -1.9780   -2.2158 H       1  UNL1        0.0284
     54 H           3.5793   -3.2798   -1.5722 H       1  UNL1        0.0284
     55 H           1.5298   -1.9034    2.7834 H       1  UNL1        0.0456
     56 H           2.2784   -3.1195    1.6774 H       1  UNL1        0.0456
     57 H           3.2860   -1.9184    2.6605 H       1  UNL1        0.0456
     58 H           1.4151    2.6797    0.8507 H       1  UNL1        0.0630
     59 H          -0.9273    4.7555   -1.9648 H       1  UNL1        0.0623
     60 H          -0.7845    2.8007   -3.5212 H       1  UNL1        0.0618
     61 H           0.5019    0.7559   -2.8296 H       1  UNL1        0.0624
     62 H          -6.9646   -1.5001    1.0910 H       1  UNL1        0.0621
     63 H          -8.5525   -1.8308   -0.7553 H       1  UNL1        0.0618
     64 H          -8.1948   -0.8677   -2.9465 H       1  UNL1        0.0618
     65 H          -6.1663    0.4989   -3.3594 H       1  UNL1        0.0618
     66 H          -4.5597    0.8657   -1.5862 H       1  UNL1        0.0621
@<TRIPOS>BOND
     1     1     2    1
     2     2     3    1
     3     3     4    1
     4     4     5   ar
     5     5     6   ar
     6     6     7   ar
     7     7     8   ar
     8     8     9   ar
     9     8    10    1
    10    10    11   ar
    11    11    12   ar
    12    12    13   ar
    13    13    14    1
    14    14    15    1
    15    15    16    1
    16    16    17    1
    17    17    18    1
    18    18    19    1
    19    13    20   ar
    20    20    21    1
    21    11    22    1
    22    22    23   ar
    23    23    24   ar
    24    24    25   ar
    25    25    26   ar
    26    26    27   ar
    27    24    28    1
    28    28    29    1
    29    28    30    1
    30    28    31    1
    31     2    32    1
    32    32    33   ar
    33    33    34   ar
    34    34    35   ar
    35    35    36   ar
    36    36    37   ar
    37     9     4   ar
    38    20    10   ar
    39    27    22   ar
    40    37    32   ar
    41    19    14    1
    42     1    38    1
    43     1    39    1
    44     1    40    1
    45     2    41    1
    46     3    42    1
    47     6    43    1
    48     7    44    1
    49    14    45    1
    50    15    46    1
    51    15    47    1
    52    16    48    1
    53    16    49    1
    54    17    50    1
    55    18    51    1
    56    18    52    1
    57    19    53    1
    58    19    54    1
    59    21    55    1
    60    21    56    1
    61    21    57    1
    62    23    58    1
    63    25    59    1
    64    26    60    1
    65    27    61    1
    66    33    62    1
    67    34    63    1
    68    35    64    1
    69    36    65    1
    70    37    66    1
