@<TRIPOS>MOLECULE
*****
 36 35 0 0 0
SMALL
GASTEIGER

@<TRIPOS>ATOM
      1 C          -3.3110    0.2816    1.3507 C.3     1  UNL1       -0.0493
      2 C          -3.2789    0.9631   -0.0055 C.3     1  UNL1        0.0103
      3 N          -2.8792    0.0553   -1.0632 N.am    1  UNL1       -0.3189
      4 C          -3.9114   -0.9317   -1.2626 C.3     1  UNL1        0.0103
      5 C          -3.6256   -1.9530   -2.3134 C.3     1  UNL1       -0.0493
      6 C          -1.6127    0.2027   -1.7428 C.2     1  UNL1        0.1200
      7 S          -1.1494   -0.8042   -2.9407 S.2     1  UNL1       -0.0271
      8 S          -0.8585    1.6141   -0.9634 S.3     1  UNL1       -0.0271
      9 S           1.0519    2.0295   -1.7730 S.3     1  UNL1       -0.0271
     10 C           2.2307    1.1129   -0.8274 C.2     1  UNL1        0.1200
     11 S           3.0032    2.0664   -1.8831 S.2     1  UNL1       -0.0271
     12 N           2.8908    0.2441    0.0852 N.am    1  UNL1       -0.3189
     13 C           4.3273    0.1851    0.1073 C.3     1  UNL1        0.0103
     14 C           4.9614    0.7350    1.3486 C.3     1  UNL1       -0.0493
     15 C           2.0601   -0.5620    0.9583 C.3     1  UNL1        0.0103
     16 C           2.1340   -0.2087    2.4027 C.3     1  UNL1       -0.0493
     17 H          -2.4013   -0.3635    1.4492 H       1  UNL1        0.0245
     18 H          -4.2494   -0.2881    1.5223 H       1  UNL1        0.0245
     19 H          -3.2878    1.0867    2.1060 H       1  UNL1        0.0245
     20 H          -2.6011    1.8321    0.1080 H       1  UNL1        0.0461
     21 H          -4.3188    1.3081   -0.2255 H       1  UNL1        0.0461
     22 H          -4.1674   -1.4076   -0.2779 H       1  UNL1        0.0461
     23 H          -4.8232   -0.3763   -1.5874 H       1  UNL1        0.0461
     24 H          -4.5363   -2.6226   -2.3389 H       1  UNL1        0.0245
     25 H          -3.5612   -1.5341   -3.3252 H       1  UNL1        0.0245
     26 H          -2.7527   -2.5979   -2.1211 H       1  UNL1        0.0245
     27 H           4.7315    0.7711   -0.7556 H       1  UNL1        0.0461
     28 H           4.6927   -0.8784    0.0170 H       1  UNL1        0.0461
     29 H           4.9745    0.0293    2.1891 H       1  UNL1        0.0245
     30 H           6.0429    0.9054    1.0930 H       1  UNL1        0.0245
     31 H           4.4728    1.6998    1.6122 H       1  UNL1        0.0245
     32 H           2.4099   -1.6364    0.8832 H       1  UNL1        0.0461
     33 H           1.0052   -0.6174    0.5706 H       1  UNL1        0.0461
     34 H           2.5047    0.7960    2.6177 H       1  UNL1        0.0245
     35 H           2.7634   -0.9174    2.9864 H       1  UNL1        0.0245
     36 H           1.0690   -0.2190    2.7863 H       1  UNL1        0.0245
@<TRIPOS>BOND
     1     1     2    1
     2     2     3    1
     3     3     4    1
     4     4     5    1
     5     3     6    1
     6     6     7    2
     7     6     8    1
     8     8     9    1
     9     9    10    1
    10    10    11    2
    11    10    12    1
    12    12    13    1
    13    13    14    1
    14    12    15    1
    15    15    16    1
    16     1    17    1
    17     1    18    1
    18     1    19    1
    19     2    20    1
    20     2    21    1
    21     4    22    1
    22     4    23    1
    23     5    24    1
    24     5    25    1
    25     5    26    1
    26    13    27    1
    27    13    28    1
    28    14    29    1
    29    14    30    1
    30    14    31    1
    31    15    32    1
    32    15    33    1
    33    16    34    1
    34    16    35    1
    35    16    36    1
