@<TRIPOS>MOLECULE
*****
 73 78 0 0 0
SMALL
GASTEIGER

@<TRIPOS>ATOM
      1 C          -2.7812    7.3779   -1.2758 C.3     1  UNL1        0.0804
      2 O          -2.2130    6.2649   -0.6184 O.3     1  UNL1       -0.4795
      3 C          -1.7886    5.1536   -1.3444 C.ar    1  UNL1        0.2191
      4 C          -1.2277    4.0583   -0.6817 C.ar    1  UNL1        0.0404
      5 C          -0.8166    2.9725   -1.4257 C.ar    1  UNL1        0.1364
      6 N          -0.2527    1.8773   -0.7367 N.am    1  UNL1       -0.2240
      7 C           1.1434    1.6850   -0.4270 C.2     1  UNL1        0.3219
      8 O           1.9515    2.6401   -0.2825 O.2     1  UNL1       -0.2512
      9 N           1.4054    0.2909   -0.3246 N.am    1  UNL1       -0.1920
     10 C           2.6333   -0.3776   -0.0411 C.ar    1  UNL1        0.0455
     11 C           3.8019    0.3347    0.1202 C.ar    1  UNL1       -0.0392
     12 C           5.0083   -0.2936    0.4076 C.ar    1  UNL1       -0.0522
     13 C           5.0439   -1.6762    0.5370 C.ar    1  UNL1       -0.0170
     14 C           6.3013   -2.2952    0.8777 C.ar    1  UNL1       -0.0039
     15 C           6.8641   -1.9258    2.1021 C.ar    1  UNL1       -0.0532
     16 C           8.0347   -2.4877    2.5578 C.ar    1  UNL1       -0.0611
     17 C           8.6735   -3.4396    1.7925 C.ar    1  UNL1       -0.0609
     18 C           8.1290   -3.8075    0.5894 C.ar    1  UNL1       -0.0472
     19 C           6.9320   -3.2344    0.1186 C.ar    1  UNL1        0.0665
     20 C           6.4284   -3.6163   -1.1824 C.2     1  UNL1        0.3374
     21 O           5.4274   -3.0832   -1.6672 O.2     1  UNL1       -0.2451
     22 O           7.0792   -4.5981   -1.8997 O.3     1  UNL1       -0.4771
     23 C           3.8660   -2.3655    0.3723 C.ar    1  UNL1       -0.0522
     24 C           2.6620   -1.7522    0.0866 C.ar    1  UNL1       -0.0392
     25 C           0.1403   -0.3347   -0.5810 C.2     1  UNL1        0.2516
     26 O          -0.0985   -1.4722   -1.0477 O.2     1  UNL1       -0.2724
     27 C          -0.8828    0.6836   -0.1639 C.3     1  UNL1        0.1240
     28 C          -0.9223    0.7279    1.3115 C.3     1  UNL1       -0.0095
     29 C          -2.0510    0.0508    1.9785 C.3     1  UNL1        0.0017
     30 N          -3.2236   -0.1637    1.2171 N.3     1  UNL1       -0.2965
     31 C          -3.5540   -1.5431    0.9821 C.3     1  UNL1        0.0415
     32 C          -4.7873   -1.6153    0.1786 C.ar    1  UNL1        0.0581
     33 N          -4.6833   -1.9160   -1.1238 N.ar    1  UNL1       -0.2583
     34 C          -5.7660   -1.9939   -1.8970 C.ar    1  UNL1        0.0279
     35 C          -7.0081   -1.7615   -1.3475 C.ar    1  UNL1       -0.0433
     36 C          -7.1329   -1.4511   -0.0102 C.ar    1  UNL1       -0.0557
     37 C          -6.0131   -1.3769    0.7617 C.ar    1  UNL1       -0.0279
     38 C          -6.1406   -1.0450    2.1946 C.3     1  UNL1       -0.0380
     39 C          -3.3285    0.6676    0.0502 C.3     1  UNL1        0.0017
     40 C          -2.1553    0.3355   -0.8435 C.3     1  UNL1       -0.0095
     41 N          -0.9892    3.0503   -2.7556 N.ar    1  UNL1       -0.2200
     42 C          -1.5214    4.0908   -3.3788 C.ar    1  UNL1        0.1219
     43 N          -1.9263    5.1548   -2.6693 N.ar    1  UNL1       -0.2013
     44 H          -2.0735    7.8516   -1.9882 H       1  UNL1        0.0660
     45 H          -3.0486    8.1565   -0.5309 H       1  UNL1        0.0660
     46 H          -3.6613    7.0437   -1.8654 H       1  UNL1        0.0660
     47 H          -1.1510    4.1311    0.3774 H       1  UNL1        0.0705
     48 H           3.8302    1.4330    0.0272 H       1  UNL1        0.0636
     49 H           5.8948    0.3101    0.5244 H       1  UNL1        0.0624
     50 H           6.3771   -1.1921    2.6979 H       1  UNL1        0.0624
     51 H           8.4944   -2.2221    3.5010 H       1  UNL1        0.0618
     52 H           9.6004   -3.9023    2.1270 H       1  UNL1        0.0618
     53 H           8.5944   -4.5518   -0.0480 H       1  UNL1        0.0626
     54 H           6.6191   -5.1986   -2.5749 H       1  UNL1        0.2954
     55 H           3.8410   -3.4583    0.4760 H       1  UNL1        0.0624
     56 H           1.7468   -2.2990   -0.0369 H       1  UNL1        0.0636
     57 H           0.0533    0.3598    1.7496 H       1  UNL1        0.0303
     58 H          -0.9440    1.8161    1.6202 H       1  UNL1        0.0303
     59 H          -2.3546    0.5817    2.9291 H       1  UNL1        0.0427
     60 H          -1.7022   -0.9575    2.3524 H       1  UNL1        0.0427
     61 H          -3.7158   -2.0025    1.9991 H       1  UNL1        0.0491
     62 H          -2.7703   -2.1302    0.5079 H       1  UNL1        0.0491
     63 H          -5.6853   -2.2378   -2.9543 H       1  UNL1        0.0829
     64 H          -7.9073   -1.8230   -1.9760 H       1  UNL1        0.0633
     65 H          -8.1306   -1.2744    0.3862 H       1  UNL1        0.0621
     66 H          -7.0486   -0.4136    2.3175 H       1  UNL1        0.0278
     67 H          -5.2891   -0.4618    2.5826 H       1  UNL1        0.0278
     68 H          -6.2615   -2.0072    2.7394 H       1  UNL1        0.0278
     69 H          -3.1816    1.7200    0.3861 H       1  UNL1        0.0427
     70 H          -4.2958    0.5508   -0.4395 H       1  UNL1        0.0427
     71 H          -2.1570   -0.7149   -1.1712 H       1  UNL1        0.0303
     72 H          -2.2757    0.9522   -1.7676 H       1  UNL1        0.0303
     73 H          -1.6597    4.1500   -4.4585 H       1  UNL1        0.1049
@<TRIPOS>BOND
     1     1     2    1
     2     2     3    1
     3     3     4   ar
     4     4     5   ar
     5     5     6    1
     6     6     7   am
     7     7     8    2
     8     7     9   am
     9     9    10    1
    10    10    11   ar
    11    11    12   ar
    12    12    13   ar
    13    13    14    1
    14    14    15   ar
    15    15    16   ar
    16    16    17   ar
    17    17    18   ar
    18    18    19   ar
    19    19    20    1
    20    20    21    2
    21    20    22    1
    22    13    23   ar
    23    23    24   ar
    24     9    25   am
    25    25    26    2
    26    25    27    1
    27    27    28    1
    28    28    29    1
    29    29    30    1
    30    30    31    1
    31    31    32    1
    32    32    33   ar
    33    33    34   ar
    34    34    35   ar
    35    35    36   ar
    36    36    37   ar
    37    37    38    1
    38    30    39    1
    39    39    40    1
    40     5    41   ar
    41    41    42   ar
    42    42    43   ar
    43    43     3   ar
    44    27     6    1
    45    37    32   ar
    46    24    10   ar
    47    40    27    1
    48    19    14   ar
    49     1    44    1
    50     1    45    1
    51     1    46    1
    52     4    47    1
    53    11    48    1
    54    12    49    1
    55    15    50    1
    56    16    51    1
    57    17    52    1
    58    18    53    1
    59    22    54    1
    60    23    55    1
    61    24    56    1
    62    28    57    1
    63    28    58    1
    64    29    59    1
    65    29    60    1
    66    31    61    1
    67    31    62    1
    68    34    63    1
    69    35    64    1
    70    36    65    1
    71    38    66    1
    72    38    67    1
    73    38    68    1
    74    39    69    1
    75    39    70    1
    76    40    71    1
    77    40    72    1
    78    42    73    1
