
     RDKit          3D

 67 71  0  0  0  0  0  0  0  0999 V2000
    1.6244   -2.5171    3.7624 C   0  0  0  0  0  0  0  0  0  0  0  0
    2.6854   -1.9704    2.8876 C   0  0  0  0  0  0  0  0  0  0  0  0
    3.9799   -2.0079    3.4198 C   0  0  0  0  0  0  0  0  0  0  0  0
    5.0273   -1.5243    2.6690 C   0  0  0  0  0  0  0  0  0  0  0  0
    4.8360   -1.0054    1.4104 C   0  0  0  0  0  0  0  0  0  0  0  0
    5.9724   -0.5087    0.6603 C   0  0  0  0  0  0  0  0  0  0  0  0
    7.1348   -0.5522    1.1613 O   0  0  0  0  0  0  0  0  0  0  0  0
    5.8871    0.0453   -0.6430 N   0  0  0  0  0  0  0  0  0  0  0  0
    7.0387    0.5226   -1.3431 C   0  0  0  0  0  0  0  0  0  0  0  0
    7.7638   -0.3237   -2.1550 C   0  0  0  0  0  0  0  0  0  0  0  0
    8.8931    0.1295   -2.8461 C   0  0  0  0  0  0  0  0  0  0  0  0
    9.3087    1.4350   -2.7316 C   0  0  0  0  0  0  0  0  0  0  0  0
    8.5883    2.2852   -1.9217 C   0  0  0  0  0  0  0  0  0  0  0  0
    9.0436    3.6858   -1.8058 C   0  0  0  0  0  0  0  0  0  0  0  0
   10.4274    3.6413   -1.6259 F   0  0  0  0  0  0  0  0  0  0  0  0
    8.7791    4.4024   -2.9792 F   0  0  0  0  0  0  0  0  0  0  0  0
    8.4786    4.3508   -0.7432 F   0  0  0  0  0  0  0  0  0  0  0  0
    7.4656    1.8289   -1.2368 C   0  0  0  0  0  0  0  0  0  0  0  0
    3.5606   -0.9814    0.9162 C   0  0  0  0  0  0  0  0  0  0  0  0
    2.4776   -1.4549    1.6318 C   0  0  0  0  0  0  0  0  0  0  0  0
    1.1333   -1.4171    1.0985 C   0  0  0  0  0  0  0  0  0  0  0  0
    0.8449   -1.8603   -0.1968 C   0  0  0  0  0  0  0  0  0  0  0  0
   -0.4484   -1.8038   -0.6725 C   0  0  0  0  0  0  0  0  0  0  0  0
   -1.4964   -1.3213    0.0813 C   0  0  0  0  0  0  0  0  0  0  0  0
   -2.7629   -1.2663   -0.3846 N   0  0  0  0  0  0  0  0  0  0  0  0
   -3.7787   -0.7938    0.3594 C   0  0  0  0  0  0  0  0  0  0  0  0
   -5.1227   -0.7473   -0.1637 N   0  0  0  0  0  0  0  0  0  0  0  0
   -6.1603   -0.2287    0.6880 C   0  0  0  0  0  0  0  0  0  0  0  0
   -7.4871   -0.2765   -0.0606 C   0  0  0  0  0  0  0  0  0  0  0  0
   -7.4412    0.5040   -1.2552 N   0  0  0  0  0  0  0  0  0  0  0  0
   -8.7071    0.4264   -1.9311 C   0  0  0  0  0  0  0  0  0  0  0  0
   -9.7790    0.9872   -1.0542 C   0  0  0  0  0  0  0  0  0  0  0  0
   -9.5458    2.2499   -0.5733 O   0  0  0  0  0  0  0  0  0  0  0  0
   -8.2857    2.4772   -0.0796 C   0  0  0  0  0  0  0  0  0  0  0  0
   -7.2051    1.9194   -0.9811 C   0  0  0  0  0  0  0  0  0  0  0  0
   -3.5003   -0.3697    1.5994 N   0  0  0  0  0  0  0  0  0  0  0  0
   -2.2556   -0.3982    2.1240 C   0  0  0  0  0  0  0  0  0  0  0  0
   -1.2165   -0.8834    1.3581 C   0  0  0  0  0  0  0  0  0  0  0  0
    0.0899   -0.9338    1.8562 C   0  0  0  0  0  0  0  0  0  0  0  0
    0.7387   -2.8844    3.2158 H   0  0  0  0  0  0  0  0  0  0  0  0
    1.4155   -1.7898    4.5498 H   0  0  0  0  0  0  0  0  0  0  0  0
    2.0501   -3.4304    4.2741 H   0  0  0  0  0  0  0  0  0  0  0  0
    4.1790   -2.4066    4.4048 H   0  0  0  0  0  0  0  0  0  0  0  0
    6.0361   -1.5462    3.0671 H   0  0  0  0  0  0  0  0  0  0  0  0
    4.9556    0.1010   -1.0925 H   0  0  0  0  0  0  0  0  0  0  0  0
    7.4316   -1.3519   -2.2415 H   0  0  0  0  0  0  0  0  0  0  0  0
    9.4528   -0.5522   -3.4821 H   0  0  0  0  0  0  0  0  0  0  0  0
   10.1935    1.7973   -3.2706 H   0  0  0  0  0  0  0  0  0  0  0  0
    6.8902    2.4928   -0.5948 H   0  0  0  0  0  0  0  0  0  0  0  0
    3.3408   -0.5879   -0.0641 H   0  0  0  0  0  0  0  0  0  0  0  0
    1.6737   -2.2369   -0.7799 H   0  0  0  0  0  0  0  0  0  0  0  0
   -0.6807   -2.1452   -1.6751 H   0  0  0  0  0  0  0  0  0  0  0  0
   -5.3435   -1.0717   -1.1127 H   0  0  0  0  0  0  0  0  0  0  0  0
   -5.9921    0.7999    1.0299 H   0  0  0  0  0  0  0  0  0  0  0  0
   -6.2268   -0.8451    1.6287 H   0  0  0  0  0  0  0  0  0  0  0  0
   -7.7568   -1.3148   -0.3437 H   0  0  0  0  0  0  0  0  0  0  0  0
   -8.2557    0.0632    0.6691 H   0  0  0  0  0  0  0  0  0  0  0  0
   -8.6856    0.8793   -2.9426 H   0  0  0  0  0  0  0  0  0  0  0  0
   -8.9386   -0.6536   -2.0891 H   0  0  0  0  0  0  0  0  0  0  0  0
  -10.7047    1.0626   -1.6993 H   0  0  0  0  0  0  0  0  0  0  0  0
  -10.0491    0.2417   -0.2787 H   0  0  0  0  0  0  0  0  0  0  0  0
   -8.1267    3.5823   -0.0374 H   0  0  0  0  0  0  0  0  0  0  0  0
   -8.1573    2.1160    0.9720 H   0  0  0  0  0  0  0  0  0  0  0  0
   -6.2290    2.0860   -0.5301 H   0  0  0  0  0  0  0  0  0  0  0  0
   -7.2520    2.4794   -1.9329 H   0  0  0  0  0  0  0  0  0  0  0  0
   -2.0542   -0.0530    3.1214 H   0  0  0  0  0  0  0  0  0  0  0  0
    0.2476   -0.5764    2.8538 H   0  0  0  0  0  0  0  0  0  0  0  0
  1  2  1  0
  2  3  2  0
  3  4  1  0
  4  5  2  0
  5  6  1  0
  6  7  2  0
  6  8  1  0
  8  9  1  0
  9 10  2  0
 10 11  1  0
 11 12  2  0
 12 13  1  0
 13 14  1  0
 14 15  1  0
 14 16  1  0
 14 17  1  0
 13 18  2  0
  5 19  1  0
 19 20  2  0
 20 21  1  0
 21 22  2  0
 22 23  1  0
 23 24  2  0
 24 25  1  0
 25 26  2  0
 26 27  1  0
 27 28  1  0
 28 29  1  0
 29 30  1  0
 30 31  1  0
 31 32  1  0
 32 33  1  0
 33 34  1  0
 34 35  1  0
 26 36  1  0
 36 37  2  0
 37 38  1  0
 38 39  2  0
 20  2  1  0
 39 21  1  0
 18  9  1  0
 38 24  1  0
 35 30  1  0
  1 40  1  0
  1 41  1  0
  1 42  1  0
  3 43  1  0
  4 44  1  0
  8 45  1  0
 10 46  1  0
 11 47  1  0
 12 48  1  0
 18 49  1  0
 19 50  1  0
 22 51  1  0
 23 52  1  0
 27 53  1  0
 28 54  1  0
 28 55  1  0
 29 56  1  0
 29 57  1  0
 31 58  1  0
 31 59  1  0
 32 60  1  0
 32 61  1  0
 34 62  1  0
 34 63  1  0
 35 64  1  0
 35 65  1  0
 37 66  1  0
 39 67  1  0
M  END
$$$$
