@<TRIPOS>MOLECULE
*****
 67 71 0 0 0
SMALL
GASTEIGER

@<TRIPOS>ATOM
      1 C           1.6244   -2.5171    3.7624 C.3     1  UNL1       -0.0391
      2 C           2.6854   -1.9704    2.8876 C.ar    1  UNL1       -0.0427
      3 C           3.9799   -2.0079    3.4198 C.ar    1  UNL1       -0.0575
      4 C           5.0273   -1.5243    2.6690 C.ar    1  UNL1       -0.0493
      5 C           4.8360   -1.0054    1.4104 C.ar    1  UNL1        0.0376
      6 C           5.9724   -0.5087    0.6603 C.2     1  UNL1        0.2483
      7 O           7.1348   -0.5522    1.1613 O.2     1  UNL1       -0.2699
      8 N           5.8871    0.0453   -0.6430 N.am    1  UNL1       -0.2815
      9 C           7.0387    0.5226   -1.3431 C.ar    1  UNL1        0.0342
     10 C           7.7638   -0.3237   -2.1550 C.ar    1  UNL1       -0.0404
     11 C           8.8931    0.1295   -2.8461 C.ar    1  UNL1       -0.0595
     12 C           9.3087    1.4350   -2.7316 C.ar    1  UNL1       -0.0500
     13 C           8.5883    2.2852   -1.9217 C.ar    1  UNL1        0.0566
     14 C           9.0436    3.6858   -1.8058 C.3     1  UNL1        0.4175
     15 F          10.4274    3.6413   -1.6259 F       1  UNL1       -0.1659
     16 F           8.7791    4.4024   -2.9792 F       1  UNL1       -0.1659
     17 F           8.4786    4.3508   -0.7432 F       1  UNL1       -0.1659
     18 C           7.4656    1.8289   -1.2368 C.ar    1  UNL1       -0.0288
     19 C           3.5606   -0.9814    0.9162 C.ar    1  UNL1       -0.0416
     20 C           2.4776   -1.4549    1.6318 C.ar    1  UNL1       -0.0142
     21 C           1.1333   -1.4171    1.0985 C.ar    1  UNL1       -0.0169
     22 C           0.8449   -1.8603   -0.1968 C.ar    1  UNL1       -0.0520
     23 C          -0.4484   -1.8038   -0.6725 C.ar    1  UNL1       -0.0350
     24 C          -1.4964   -1.3213    0.0813 C.ar    1  UNL1        0.0761
     25 N          -2.7629   -1.2663   -0.3846 N.ar    1  UNL1       -0.2145
     26 C          -3.7787   -0.7938    0.3594 C.ar    1  UNL1        0.2157
     27 N          -5.1227   -0.7473   -0.1637 N.pl3   1  UNL1       -0.3122
     28 C          -6.1603   -0.2287    0.6880 C.3     1  UNL1        0.0246
     29 C          -7.4871   -0.2765   -0.0606 C.3     1  UNL1        0.0146
     30 N          -7.4412    0.5040   -1.2552 N.3     1  UNL1       -0.2965
     31 C          -8.7071    0.4264   -1.9311 C.3     1  UNL1        0.0225
     32 C          -9.7790    0.9872   -1.0542 C.3     1  UNL1        0.0604
     33 O          -9.5458    2.2499   -0.5733 O.3     1  UNL1       -0.3772
     34 C          -8.2857    2.4772   -0.0796 C.3     1  UNL1        0.0604
     35 C          -7.2051    1.9194   -0.9811 C.3     1  UNL1        0.0225
     36 N          -3.5003   -0.3697    1.5994 N.ar    1  UNL1       -0.2223
     37 C          -2.2556   -0.3982    2.1240 C.ar    1  UNL1        0.0404
     38 C          -1.2165   -0.8834    1.3581 C.ar    1  UNL1        0.0192
     39 C           0.0899   -0.9338    1.8562 C.ar    1  UNL1       -0.0434
     40 H           0.7387   -2.8844    3.2158 H       1  UNL1        0.0278
     41 H           1.4155   -1.7898    4.5498 H       1  UNL1        0.0278
     42 H           2.0501   -3.4304    4.2741 H       1  UNL1        0.0278
     43 H           4.1790   -2.4066    4.4048 H       1  UNL1        0.0621
     44 H           6.0361   -1.5462    3.0671 H       1  UNL1        0.0625
     45 H           4.9556    0.1010   -1.0925 H       1  UNL1        0.1551
     46 H           7.4316   -1.3519   -2.2415 H       1  UNL1        0.0636
     47 H           9.4528   -0.5522   -3.4821 H       1  UNL1        0.0618
     48 H          10.1935    1.7973   -3.2706 H       1  UNL1        0.0623
     49 H           6.8902    2.4928   -0.5948 H       1  UNL1        0.0642
     50 H           3.3408   -0.5879   -0.0641 H       1  UNL1        0.0631
     51 H           1.6737   -2.2369   -0.7799 H       1  UNL1        0.0624
     52 H          -0.6807   -2.1452   -1.6751 H       1  UNL1        0.0639
     53 H          -5.3435   -1.0717   -1.1127 H       1  UNL1        0.1489
     54 H          -5.9921    0.7999    1.0299 H       1  UNL1        0.0475
     55 H          -6.2268   -0.8451    1.6287 H       1  UNL1        0.0475
     56 H          -7.7568   -1.3148   -0.3437 H       1  UNL1        0.0442
     57 H          -8.2557    0.0632    0.6691 H       1  UNL1        0.0442
     58 H          -8.6856    0.8793   -2.9426 H       1  UNL1        0.0449
     59 H          -8.9386   -0.6536   -2.0891 H       1  UNL1        0.0449
     60 H         -10.7047    1.0626   -1.6993 H       1  UNL1        0.0572
     61 H         -10.0491    0.2417   -0.2787 H       1  UNL1        0.0572
     62 H          -8.1267    3.5823   -0.0374 H       1  UNL1        0.0572
     63 H          -8.1573    2.1160    0.9720 H       1  UNL1        0.0572
     64 H          -6.2290    2.0860   -0.5301 H       1  UNL1        0.0449
     65 H          -7.2520    2.4794   -1.9329 H       1  UNL1        0.0449
     66 H          -2.0542   -0.0530    3.1214 H       1  UNL1        0.0837
     67 H           0.2476   -0.5764    2.8538 H       1  UNL1        0.0631
@<TRIPOS>BOND
     1     1     2    1
     2     2     3   ar
     3     3     4   ar
     4     4     5   ar
     5     5     6    1
     6     6     7    2
     7     6     8   am
     8     8     9    1
     9     9    10   ar
    10    10    11   ar
    11    11    12   ar
    12    12    13   ar
    13    13    14    1
    14    14    15    1
    15    14    16    1
    16    14    17    1
    17    13    18   ar
    18     5    19   ar
    19    19    20   ar
    20    20    21    1
    21    21    22   ar
    22    22    23   ar
    23    23    24   ar
    24    24    25   ar
    25    25    26   ar
    26    26    27    1
    27    27    28    1
    28    28    29    1
    29    29    30    1
    30    30    31    1
    31    31    32    1
    32    32    33    1
    33    33    34    1
    34    34    35    1
    35    26    36   ar
    36    36    37   ar
    37    37    38   ar
    38    38    39   ar
    39    20     2   ar
    40    39    21   ar
    41    18     9   ar
    42    38    24   ar
    43    35    30    1
    44     1    40    1
    45     1    41    1
    46     1    42    1
    47     3    43    1
    48     4    44    1
    49     8    45    1
    50    10    46    1
    51    11    47    1
    52    12    48    1
    53    18    49    1
    54    19    50    1
    55    22    51    1
    56    23    52    1
    57    27    53    1
    58    28    54    1
    59    28    55    1
    60    29    56    1
    61    29    57    1
    62    31    58    1
    63    31    59    1
    64    32    60    1
    65    32    61    1
    66    34    62    1
    67    34    63    1
    68    35    64    1
    69    35    65    1
    70    37    66    1
    71    39    67    1
