@<TRIPOS>MOLECULE
*****
 52 57 0 0 0
SMALL
GASTEIGER

@<TRIPOS>ATOM
      1 C          -1.9244   -1.5466   -0.9386 C.3     1  UNL1       -0.0409
      2 N          -1.5360   -0.3387   -0.2088 N.4     1  UNL1        0.2458
      3 C          -2.7302    0.1439    0.4263 C.3     1  UNL1       -0.0271
      4 C          -3.6043    0.9955   -0.4496 C.3     1  UNL1       -0.0007
      5 C          -4.8602    1.4836    0.2706 C.3     1  UNL1       -0.0450
      6 C          -4.9936    0.5096   -0.8398 C.3     1  UNL1       -0.0450
      7 C          -1.0145    0.5510   -1.2302 C.3     1  UNL1       -0.0289
      8 C           0.3664    0.2561   -1.6464 C.3     1  UNL1        0.0040
      9 C           1.2933   -0.3603   -0.6798 C.3     1  UNL1        0.0820
     10 C           2.5136   -0.9269   -1.3309 C.3     1  UNL1        0.1704
     11 O           3.4250    0.1889   -1.3305 O.3     1  UNL1       -0.4764
     12 C           3.1631    1.0132   -0.2494 C.ar    1  UNL1        0.1669
     13 C           3.7556    2.0102    0.5208 C.ar    1  UNL1        0.1588
     14 O           5.0528    2.3589    0.1454 O.3     1  UNL1       -0.5033
     15 C           3.0756    2.6014    1.5875 C.ar    1  UNL1       -0.0162
     16 C           1.7712    2.2004    1.9082 C.ar    1  UNL1       -0.0544
     17 C           1.1407    1.2269    1.1868 C.ar    1  UNL1       -0.0343
     18 C          -0.2374    0.7356    1.4485 C.3     1  UNL1        0.0187
     19 C          -0.5582   -0.5776    0.8316 C.3     1  UNL1        0.0151
     20 C           0.6194   -1.3024    0.2919 C.3     1  UNL1        0.1226
     21 O           0.2982   -2.4411   -0.4404 O.3     1  UNL1       -0.3819
     22 C           1.5656   -1.8174    1.3320 C.3     1  UNL1       -0.0109
     23 C           2.5606   -2.7069    0.5932 C.3     1  UNL1        0.0124
     24 C           3.1752   -1.9829   -0.5255 C.2     1  UNL1        0.1745
     25 O           4.3300   -2.2184   -0.8799 O.2     1  UNL1       -0.2934
     26 C           1.8918    0.7056    0.1566 C.ar    1  UNL1        0.0146
     27 H          -2.0255   -2.4328   -0.3221 H       1  UNL1        0.0778
     28 H          -1.3522   -1.6725   -1.8888 H       1  UNL1        0.0778
     29 H          -2.9721   -1.3603   -1.3318 H       1  UNL1        0.0778
     30 H          -2.5863    0.6099    1.4208 H       1  UNL1        0.0818
     31 H          -3.3630   -0.7601    0.6789 H       1  UNL1        0.0818
     32 H          -3.1566    1.7293   -1.1468 H       1  UNL1        0.0352
     33 H          -5.1502    2.5448    0.1004 H       1  UNL1        0.0270
     34 H          -5.0883    1.1071    1.2859 H       1  UNL1        0.0270
     35 H          -5.4134    0.8531   -1.7929 H       1  UNL1        0.0270
     36 H          -5.2481   -0.5605   -0.6047 H       1  UNL1        0.0270
     37 H          -1.1292    1.6367   -0.9586 H       1  UNL1        0.0815
     38 H          -1.6809    0.4473   -2.1157 H       1  UNL1        0.0815
     39 H           0.4113   -0.3545   -2.5958 H       1  UNL1        0.0328
     40 H           0.8463    1.2284   -1.9663 H       1  UNL1        0.0328
     41 H           2.3716   -1.2950   -2.3557 H       1  UNL1        0.0824
     42 H           5.2574    2.9563   -0.6428 H       1  UNL1        0.2923
     43 H           3.5894    3.3800    2.1588 H       1  UNL1        0.0655
     44 H           1.2459    2.6615    2.7373 H       1  UNL1        0.0622
     45 H          -0.8593    1.5983    1.0617 H       1  UNL1        0.0369
     46 H          -0.4690    0.7328    2.5433 H       1  UNL1        0.0369
     47 H          -1.0981   -1.2242    1.5848 H       1  UNL1        0.0884
     48 H           0.8214   -2.5136   -1.2807 H       1  UNL1        0.2105
     49 H           2.1537   -1.0669    1.8536 H       1  UNL1        0.0299
     50 H           0.9866   -2.3862    2.0650 H       1  UNL1        0.0299
     51 H           2.0638   -3.6234    0.1875 H       1  UNL1        0.0344
     52 H           3.3054   -2.9972    1.3752 H       1  UNL1        0.0344
@<TRIPOS>UNITY_ATOM_ATTR
2 1
charge 1
@<TRIPOS>BOND
     1     2     1    1
     2     2     3    1
     3     3     4    1
     4     4     5    1
     5     5     6    1
     6     2     7    1
     7     7     8    1
     8     9     8    1
     9     9    10    1
    10    10    11    1
    11    11    12    1
    12    12    13   ar
    13    13    14    1
    14    13    15   ar
    15    15    16   ar
    16    16    17   ar
    17    17    18    1
    18    18    19    1
    19    19    20    1
    20    20    21    1
    21    20    22    1
    22    22    23    1
    23    23    24    1
    24    24    25    2
    25    17    26   ar
    26    19     2    1
    27     6     4    1
    28    20     9    1
    29    26     9    1
    30    24    10    1
    31    26    12   ar
    32     1    27    1
    33     1    28    1
    34     1    29    1
    35     3    30    1
    36     3    31    1
    37     4    32    1
    38     5    33    1
    39     5    34    1
    40     6    35    1
    41     6    36    1
    42     7    37    1
    43     7    38    1
    44     8    39    1
    45     8    40    1
    46    10    41    1
    47    14    42    1
    48    15    43    1
    49    16    44    1
    50    18    45    1
    51    18    46    1
    52    19    47    1
    53    21    48    1
    54    22    49    1
    55    22    50    1
    56    23    51    1
    57    23    52    1
