@<TRIPOS>MOLECULE
*****
 60 64 0 0 0
SMALL
GASTEIGER

@<TRIPOS>ATOM
      1 C           7.7394   -0.5535    3.5860 C.3     1  UNL1        0.0788
      2 O           6.8516    0.5510    3.5118 O.3     1  UNL1       -0.4951
      3 C           6.2311    0.7926    2.2944 C.ar    1  UNL1        0.1201
      4 C           6.4290    0.0268    1.1671 C.ar    1  UNL1       -0.0196
      5 C           5.8084    0.2723   -0.0396 C.ar    1  UNL1       -0.0534
      6 C           4.9306    1.3472   -0.1462 C.ar    1  UNL1       -0.0275
      7 C           4.2652    1.6017   -1.4560 C.3     1  UNL1        0.0497
      8 N           3.0285    0.8544   -1.4457 N.ar    1  UNL1       -0.3274
      9 C           2.9642   -0.4348   -1.8881 C.ar    1  UNL1        0.0076
     10 C           1.6683   -0.8653   -1.7493 C.ar    1  UNL1       -0.0315
     11 C           0.9515    0.1912   -1.2139 C.ar    1  UNL1        0.0589
     12 C          -0.4081    0.3179   -0.8656 C.ar    1  UNL1        0.1354
     13 N          -1.2349   -0.7894   -1.0722 N.pl3   1  UNL1       -0.2985
     14 C          -2.6186   -0.8154   -0.8072 C.ar    1  UNL1        0.0394
     15 C          -3.3520    0.2360   -0.2983 C.ar    1  UNL1       -0.0126
     16 C          -4.7140    0.1873   -0.0469 C.ar    1  UNL1        0.0937
     17 C          -5.4292    1.3464    0.4981 C.ar    1  UNL1        0.1242
     18 N          -6.6049    1.7432   -0.0174 N.ar    1  UNL1       -0.2505
     19 C          -7.3093    2.7892    0.4330 C.ar    1  UNL1        0.0285
     20 C          -6.8234    3.5209    1.4879 C.ar    1  UNL1       -0.0408
     21 C          -5.6148    3.1643    2.0659 C.ar    1  UNL1       -0.0228
     22 C          -4.9524    2.0909    1.5579 C.ar    1  UNL1        0.1507
     23 F          -3.7705    1.7120    2.0965 F       1  UNL1       -0.2032
     24 N          -5.3319   -0.9719   -0.3269 N.ar    1  UNL1       -0.2529
     25 C          -4.6561   -2.0260   -0.8255 C.ar    1  UNL1        0.0335
     26 C          -3.3021   -2.0069   -1.0858 C.ar    1  UNL1       -0.0055
     27 C          -2.6559   -3.2158   -1.6441 C.3     1  UNL1       -0.0183
     28 C          -2.0338   -4.0792   -0.5836 C.3     1  UNL1       -0.0585
     29 C          -3.6992   -4.0507   -2.4164 C.3     1  UNL1       -0.0585
     30 N          -0.7434    1.5063   -0.3712 N.ar    1  UNL1       -0.2199
     31 C           0.0957    2.5311   -0.1966 C.ar    1  UNL1        0.1204
     32 N           1.3785    2.4036   -0.5281 N.ar    1  UNL1       -0.2176
     33 C           1.8056    1.2442   -1.0326 C.ar    1  UNL1        0.1460
     34 C           4.7130    2.1294    0.9609 C.ar    1  UNL1       -0.0534
     35 C           5.3443    1.8557    2.1356 C.ar    1  UNL1       -0.0196
     36 H           7.2107   -1.5174    3.3555 H       1  UNL1        0.0660
     37 H           8.1990   -0.6454    4.5907 H       1  UNL1        0.0660
     38 H           8.4963   -0.4301    2.7853 H       1  UNL1        0.0660
     39 H           7.1266   -0.8108    1.2847 H       1  UNL1        0.0654
     40 H           6.0038   -0.3655   -0.8961 H       1  UNL1        0.0622
     41 H           4.9494    1.2528   -2.2503 H       1  UNL1        0.0542
     42 H           4.0814    2.6887   -1.5692 H       1  UNL1        0.0542
     43 H           3.7637   -1.0429   -2.2833 H       1  UNL1        0.0810
     44 H           1.2548   -1.8269   -1.9976 H       1  UNL1        0.0640
     45 H          -0.7980   -1.6644   -1.4449 H       1  UNL1        0.1536
     46 H          -2.8908    1.1812   -0.0617 H       1  UNL1        0.0658
     47 H          -8.2560    3.0991    0.0079 H       1  UNL1        0.0830
     48 H          -7.3384    4.3779    1.9027 H       1  UNL1        0.0634
     49 H          -5.2402    3.7615    2.9107 H       1  UNL1        0.0647
     50 H          -5.1851   -2.9709   -1.0484 H       1  UNL1        0.0833
     51 H          -1.8876   -2.9858   -2.4009 H       1  UNL1        0.0344
     52 H          -2.2072   -5.1328   -0.8534 H       1  UNL1        0.0235
     53 H          -0.9247   -3.9272   -0.5415 H       1  UNL1        0.0235
     54 H          -2.3999   -3.8398    0.4398 H       1  UNL1        0.0235
     55 H          -4.4129   -3.3925   -2.9140 H       1  UNL1        0.0235
     56 H          -3.1304   -4.7084   -3.1118 H       1  UNL1        0.0235
     57 H          -4.2146   -4.6579   -1.6245 H       1  UNL1        0.0235
     58 H          -0.3005    3.4619    0.2210 H       1  UNL1        0.1048
     59 H           4.0117    2.9815    0.8591 H       1  UNL1        0.0622
     60 H           5.1383    2.5072    2.9875 H       1  UNL1        0.0654
@<TRIPOS>BOND
     1     1     2    1
     2     2     3    1
     3     3     4   ar
     4     4     5   ar
     5     5     6   ar
     6     6     7    1
     7     7     8    1
     8     8     9   ar
     9     9    10   ar
    10    10    11   ar
    11    11    12   ar
    12    12    13    1
    13    13    14    1
    14    14    15   ar
    15    15    16   ar
    16    16    17    1
    17    17    18   ar
    18    18    19   ar
    19    19    20   ar
    20    20    21   ar
    21    21    22   ar
    22    22    23    1
    23    16    24   ar
    24    24    25   ar
    25    25    26   ar
    26    26    27    1
    27    27    28    1
    28    27    29    1
    29    12    30   ar
    30    30    31   ar
    31    31    32   ar
    32    32    33   ar
    33     6    34   ar
    34    34    35   ar
    35    35     3   ar
    36    33     8   ar
    37    33    11   ar
    38    26    14   ar
    39    22    17   ar
    40     1    36    1
    41     1    37    1
    42     1    38    1
    43     4    39    1
    44     5    40    1
    45     7    41    1
    46     7    42    1
    47     9    43    1
    48    10    44    1
    49    13    45    1
    50    15    46    1
    51    19    47    1
    52    20    48    1
    53    21    49    1
    54    25    50    1
    55    27    51    1
    56    28    52    1
    57    28    53    1
    58    28    54    1
    59    29    55    1
    60    29    56    1
    61    29    57    1
    62    31    58    1
    63    34    59    1
    64    35    60    1
