
     RDKit          3D

 63 67  0  0  0  0  0  0  0  0999 V2000
   -7.7433    3.3353   -0.4602 C   0  0  0  0  0  0  0  0  0  0  0  0
   -6.7896    2.6028   -1.1746 O   0  0  0  0  0  0  0  0  0  0  0  0
   -5.8659    2.0049   -0.3029 C   0  0  0  0  0  0  0  0  0  0  0  0
   -4.8791    1.2436   -1.1599 C   0  0  2  0  0  0  0  0  0  0  0  0
   -5.6083    0.1617   -1.8927 C   0  0  0  0  0  0  0  0  0  0  0  0
   -5.5225   -1.0106   -0.9751 C   0  0  0  0  0  0  0  0  0  0  0  0
   -4.3107   -0.7820   -0.1341 C   0  0  0  0  0  0  0  0  0  0  0  0
   -3.8758    0.5870   -0.3622 N   0  0  0  0  0  0  0  0  0  0  0  0
   -2.6923    1.1939    0.1040 C   0  0  0  0  0  0  0  0  0  0  0  0
   -2.4632    2.4071   -0.1851 O   0  0  0  0  0  0  0  0  0  0  0  0
   -1.6697    0.4842    0.9349 C   0  0  2  0  0  0  0  0  0  0  0  0
   -0.4769    1.2476    1.3746 C   0  0  0  0  0  0  0  0  0  0  0  0
   -0.3946    0.1568    0.3106 C   0  0  1  0  0  0  0  0  0  0  0  0
    0.2791   -1.0758    0.5773 C   0  0  1  0  0  0  0  0  0  0  0  0
    0.7478   -1.6104   -0.8450 C   0  0  0  0  0  0  0  0  0  0  0  0
    1.5571   -0.9428    1.3079 C   0  0  0  0  0  0  0  0  0  0  0  0
    2.7885   -0.8229    0.6508 C   0  0  0  0  0  0  0  0  0  0  0  0
    3.9692   -0.6387    1.2933 C   0  0  0  0  0  0  0  0  0  0  0  0
    5.2589   -0.5106    0.5793 C   0  0  0  0  0  0  0  0  0  0  0  0
    5.4126    0.1110   -0.5533 C   0  0  0  0  0  0  0  0  0  0  0  0
    4.3075    0.6772   -1.1100 F   0  0  0  0  0  0  0  0  0  0  0  0
    6.6765    0.2496   -1.2658 C   0  0  0  0  0  0  0  0  0  0  0  0
    7.8764   -0.2537   -0.8153 C   0  0  0  0  0  0  0  0  0  0  0  0
    9.0713   -0.1097   -1.5235 C   0  0  0  0  0  0  0  0  0  0  0  0
    9.0633    0.5616   -2.7240 C   0  0  0  0  0  0  0  0  0  0  0  0
   10.5389    0.7745   -3.6656 Cl  0  0  0  0  0  0  0  0  0  0  0  0
    7.8577    1.0612   -3.1651 C   0  0  0  0  0  0  0  0  0  0  0  0
    6.7307    0.9033   -2.4576 N   0  0  0  0  0  0  0  0  0  0  0  0
    4.0189   -0.5581    2.6617 C   0  0  0  0  0  0  0  0  0  0  0  0
    2.8438   -0.6699    3.3638 C   0  0  0  0  0  0  0  0  0  0  0  0
    1.6538   -0.8578    2.6935 C   0  0  0  0  0  0  0  0  0  0  0  0
    0.5591   -1.0167    3.4890 F   0  0  0  0  0  0  0  0  0  0  0  0
   -0.4063   -2.2311    1.0665 N   0  0  0  0  0  0  0  0  0  0  0  0
   -1.5039   -2.2741    1.6913 C   0  0  0  0  0  0  0  0  0  0  0  0
   -2.0717   -3.5175    2.1214 N   0  0  0  0  0  0  0  0  0  0  0  0
   -2.3465   -0.7413    2.0385 S   0  0  0  0  0  0  0  0  0  0  0  0
   -8.3152    2.7097    0.2416 H   0  0  0  0  0  0  0  0  0  0  0  0
   -8.3828    3.8406   -1.2022 H   0  0  0  0  0  0  0  0  0  0  0  0
   -7.2129    4.1186    0.1491 H   0  0  0  0  0  0  0  0  0  0  0  0
   -6.4012    1.2716    0.3260 H   0  0  0  0  0  0  0  0  0  0  0  0
   -5.3485    2.7738    0.3231 H   0  0  0  0  0  0  0  0  0  0  0  0
   -4.4061    1.8981   -1.9261 H   0  0  0  0  0  0  0  0  0  0  0  0
   -5.1693   -0.0436   -2.9049 H   0  0  0  0  0  0  0  0  0  0  0  0
   -6.6902    0.4293   -2.0369 H   0  0  0  0  0  0  0  0  0  0  0  0
   -5.4780   -1.9645   -1.5524 H   0  0  0  0  0  0  0  0  0  0  0  0
   -6.4754   -1.0796   -0.3743 H   0  0  0  0  0  0  0  0  0  0  0  0
   -4.6311   -0.9192    0.9369 H   0  0  0  0  0  0  0  0  0  0  0  0
   -3.5443   -1.5368   -0.4317 H   0  0  0  0  0  0  0  0  0  0  0  0
   -0.1576    1.1214    2.3890 H   0  0  0  0  0  0  0  0  0  0  0  0
   -0.4428    2.3115    1.0157 H   0  0  0  0  0  0  0  0  0  0  0  0
   -0.2731    0.6118   -0.7347 H   0  0  0  0  0  0  0  0  0  0  0  0
    1.0475   -0.7281   -1.3988 H   0  0  0  0  0  0  0  0  0  0  0  0
    1.4801   -2.3952   -0.6851 H   0  0  0  0  0  0  0  0  0  0  0  0
   -0.1623   -2.0776   -1.2868 H   0  0  0  0  0  0  0  0  0  0  0  0
    2.7948   -0.8814   -0.4262 H   0  0  0  0  0  0  0  0  0  0  0  0
    6.1166   -0.9724    1.0457 H   0  0  0  0  0  0  0  0  0  0  0  0
    7.9048   -0.7854    0.1295 H   0  0  0  0  0  0  0  0  0  0  0  0
   10.0065   -0.5108   -1.1570 H   0  0  0  0  0  0  0  0  0  0  0  0
    7.8144    1.5955   -4.1057 H   0  0  0  0  0  0  0  0  0  0  0  0
    4.9845   -0.4081    3.1580 H   0  0  0  0  0  0  0  0  0  0  0  0
    2.8833   -0.6052    4.4424 H   0  0  0  0  0  0  0  0  0  0  0  0
   -2.3791   -3.6495    3.0986 H   0  0  0  0  0  0  0  0  0  0  0  0
   -2.1533   -4.2641    1.4034 H   0  0  0  0  0  0  0  0  0  0  0  0
  1  2  1  0
  2  3  1  0
  3  4  1  0
  4  5  1  0
  5  6  1  0
  6  7  1  0
  7  8  1  0
  8  9  1  0
  9 10  2  0
 11  9  1  6
 11 12  1  0
 12 13  1  0
 13 14  1  0
 14 15  1  6
 14 16  1  0
 16 17  2  0
 17 18  1  0
 18 19  1  0
 19 20  2  0
 20 21  1  0
 20 22  1  0
 22 23  2  0
 23 24  1  0
 24 25  2  0
 25 26  1  0
 25 27  1  0
 27 28  2  0
 18 29  2  0
 29 30  1  0
 30 31  2  0
 31 32  1  0
 14 33  1  0
 33 34  2  0
 34 35  1  0
 34 36  1  0
  8  4  1  0
 13 11  1  0
 31 16  1  0
 36 11  1  0
 28 22  1  0
  1 37  1  0
  1 38  1  0
  1 39  1  0
  3 40  1  0
  3 41  1  0
  4 42  1  6
  5 43  1  0
  5 44  1  0
  6 45  1  0
  6 46  1  0
  7 47  1  0
  7 48  1  0
 12 49  1  0
 12 50  1  0
 13 51  1  6
 15 52  1  0
 15 53  1  0
 15 54  1  0
 17 55  1  0
 19 56  1  0
 23 57  1  0
 24 58  1  0
 27 59  1  0
 29 60  1  0
 30 61  1  0
 35 62  1  0
 35 63  1  0
M  END
$$$$
