@<TRIPOS>MOLECULE
*****
 63 67 0 0 0
SMALL
GASTEIGER

@<TRIPOS>ATOM
      1 C          -7.7433    3.3353   -0.4602 C.3     1  UNL1        0.0365
      2 O          -6.7896    2.6028   -1.1746 O.3     1  UNL1       -0.3811
      3 C          -5.8659    2.0049   -0.3029 C.3     1  UNL1        0.0659
      4 C          -4.8791    1.2436   -1.1599 C.3     1  UNL1        0.0494
      5 C          -5.6083    0.1617   -1.8927 C.3     1  UNL1       -0.0307
      6 C          -5.5225   -1.0106   -0.9751 C.3     1  UNL1       -0.0354
      7 C          -4.3107   -0.7820   -0.1341 C.3     1  UNL1        0.0152
      8 N          -3.8758    0.5870   -0.3622 N.am    1  UNL1       -0.2951
      9 C          -2.6923    1.1939    0.1040 C.2     1  UNL1        0.2327
     10 O          -2.4632    2.4071   -0.1851 O.2     1  UNL1       -0.2740
     11 C          -1.6697    0.4842    0.9349 C.3     1  UNL1        0.1054
     12 C          -0.4769    1.2476    1.3746 C.3     1  UNL1       -0.0220
     13 C          -0.3946    0.1568    0.3106 C.3     1  UNL1        0.0134
     14 C           0.2791   -1.0758    0.5773 C.3     1  UNL1        0.0935
     15 C           0.7478   -1.6104   -0.8450 C.3     1  UNL1       -0.0351
     16 C           1.5571   -0.9428    1.3079 C.ar    1  UNL1        0.0158
     17 C           2.7885   -0.8229    0.6508 C.ar    1  UNL1       -0.0463
     18 C           3.9692   -0.6387    1.2933 C.ar    1  UNL1       -0.0217
     19 C           5.2589   -0.5106    0.5793 C.2     1  UNL1       -0.0172
     20 C           5.4126    0.1110   -0.5533 C.2     1  UNL1        0.1492
     21 F           4.3075    0.6772   -1.1100 F       1  UNL1       -0.2032
     22 C           6.6765    0.2496   -1.2658 C.ar    1  UNL1        0.0990
     23 C           7.8764   -0.2537   -0.8153 C.ar    1  UNL1       -0.0321
     24 C           9.0713   -0.1097   -1.5235 C.ar    1  UNL1       -0.0398
     25 C           9.0633    0.5616   -2.7240 C.ar    1  UNL1        0.0591
     26 CL         10.5389    0.7745   -3.6656 Cl      1  UNL1       -0.0820
     27 C           7.8577    1.0612   -3.1651 C.ar    1  UNL1        0.0466
     28 N           6.7307    0.9033   -2.4576 N.ar    1  UNL1       -0.2512
     29 C           4.0189   -0.5581    2.6617 C.ar    1  UNL1       -0.0518
     30 C           2.8438   -0.6699    3.3638 C.ar    1  UNL1       -0.0255
     31 C           1.6538   -0.8578    2.6935 C.ar    1  UNL1        0.1289
     32 F           0.5591   -1.0167    3.4890 F       1  UNL1       -0.2051
     33 N          -0.4063   -2.2311    1.0665 N.2     1  UNL1       -0.2521
     34 C          -1.5039   -2.2741    1.6913 C.2     1  UNL1        0.1485
     35 N          -2.0717   -3.5175    2.1214 N.pl3   1  UNL1       -0.3380
     36 S          -2.3465   -0.7413    2.0385 S.3     1  UNL1       -0.0746
     37 H          -8.3152    2.7097    0.2416 H       1  UNL1        0.0523
     38 H          -8.3828    3.8406   -1.2022 H       1  UNL1        0.0523
     39 H          -7.2129    4.1186    0.1491 H       1  UNL1        0.0523
     40 H          -6.4012    1.2716    0.3260 H       1  UNL1        0.0578
     41 H          -5.3485    2.7738    0.3231 H       1  UNL1        0.0578
     42 H          -4.4061    1.8981   -1.9261 H       1  UNL1        0.0523
     43 H          -5.1693   -0.0436   -2.9049 H       1  UNL1        0.0284
     44 H          -6.6902    0.4293   -2.0369 H       1  UNL1        0.0284
     45 H          -5.4780   -1.9645   -1.5524 H       1  UNL1        0.0281
     46 H          -6.4754   -1.0796   -0.3743 H       1  UNL1        0.0281
     47 H          -4.6311   -0.9192    0.9369 H       1  UNL1        0.0465
     48 H          -3.5443   -1.5368   -0.4317 H       1  UNL1        0.0465
     49 H          -0.1576    1.1214    2.3890 H       1  UNL1        0.0287
     50 H          -0.4428    2.3115    1.0157 H       1  UNL1        0.0287
     51 H          -0.2731    0.6118   -0.7347 H       1  UNL1        0.0346
     52 H           1.0475   -0.7281   -1.3988 H       1  UNL1        0.0256
     53 H           1.4801   -2.3952   -0.6851 H       1  UNL1        0.0256
     54 H          -0.1623   -2.0776   -1.2868 H       1  UNL1        0.0256
     55 H           2.7948   -0.8814   -0.4262 H       1  UNL1        0.0628
     56 H           6.1166   -0.9724    1.0457 H       1  UNL1        0.0653
     57 H           7.9048   -0.7854    0.1295 H       1  UNL1        0.0640
     58 H          10.0065   -0.5108   -1.1570 H       1  UNL1        0.0633
     59 H           7.8144    1.5955   -4.1057 H       1  UNL1        0.0844
     60 H           4.9845   -0.4081    3.1580 H       1  UNL1        0.0624
     61 H           2.8833   -0.6052    4.4424 H       1  UNL1        0.0646
     62 H          -2.3791   -3.6495    3.0986 H       1  UNL1        0.1442
     63 H          -2.1533   -4.2641    1.4034 H       1  UNL1        0.1442
@<TRIPOS>BOND
     1     1     2    1
     2     2     3    1
     3     3     4    1
     4     4     5    1
     5     5     6    1
     6     6     7    1
     7     7     8    1
     8     8     9   am
     9     9    10    2
    10    11     9    1
    11    11    12    1
    12    12    13    1
    13    13    14    1
    14    14    15    1
    15    14    16    1
    16    16    17   ar
    17    17    18   ar
    18    18    19    1
    19    19    20    2
    20    20    21    1
    21    20    22    1
    22    22    23   ar
    23    23    24   ar
    24    24    25   ar
    25    25    26    1
    26    25    27   ar
    27    27    28   ar
    28    18    29   ar
    29    29    30   ar
    30    30    31   ar
    31    31    32    1
    32    14    33    1
    33    33    34    2
    34    34    35    1
    35    34    36    1
    36     8     4    1
    37    13    11    1
    38    31    16   ar
    39    36    11    1
    40    28    22   ar
    41     1    37    1
    42     1    38    1
    43     1    39    1
    44     3    40    1
    45     3    41    1
    46     4    42    1
    47     5    43    1
    48     5    44    1
    49     6    45    1
    50     6    46    1
    51     7    47    1
    52     7    48    1
    53    12    49    1
    54    12    50    1
    55    13    51    1
    56    15    52    1
    57    15    53    1
    58    15    54    1
    59    17    55    1
    60    19    56    1
    61    23    57    1
    62    24    58    1
    63    27    59    1
    64    29    60    1
    65    30    61    1
    66    35    62    1
    67    35    63    1
