@<TRIPOS>MOLECULE
*****
 32 34 0 0 0
SMALL
GASTEIGER

@<TRIPOS>ATOM
      1 O           5.4258    0.4581    1.9448 O.3     1  UNL1       -0.4795
      2 C           4.1298    0.3236    1.5129 C.2     1  UNL1        0.3242
      3 O           3.3723    0.3081    2.5231 O.2     1  UNL1       -0.2492
      4 C           3.7224    0.2176    0.1062 C.3     1  UNL1        0.1348
      5 N           2.3054    0.0887   -0.0107 N.am    1  UNL1       -0.1568
      6 C           1.2460    1.0294   -0.1423 C.2     1  UNL1        0.2686
      7 O           1.5872    2.2419   -0.1645 O.2     1  UNL1       -0.2683
      8 C          -0.0682    0.4667   -0.2318 C.ar    1  UNL1        0.0735
      9 C          -0.1010   -0.9097   -0.1759 C.ar    1  UNL1        0.1355
     10 C          -1.2586   -1.6566   -0.2440 C.ar    1  UNL1        0.0867
     11 C          -2.4741   -1.0165   -0.3763 C.ar    1  UNL1       -0.0381
     12 C          -2.4213    0.3599   -0.4304 C.ar    1  UNL1       -0.0163
     13 C          -3.6681    0.9826   -0.5646 C.ar    1  UNL1       -0.0540
     14 C          -3.8097    2.3523   -0.6352 C.ar    1  UNL1       -0.0612
     15 C          -2.6577    3.1067   -0.5679 C.ar    1  UNL1       -0.0611
     16 C          -1.4387    2.4778   -0.4359 C.ar    1  UNL1       -0.0532
     17 C          -1.2756    1.1238   -0.3641 C.ar    1  UNL1       -0.0038
     18 C          -1.1916   -3.1041   -0.1765 C.2     1  UNL1        0.3388
     19 O          -2.3528   -3.8486   -0.2451 O.3     1  UNL1       -0.4771
     20 O          -0.1017   -3.6958   -0.0572 O.2     1  UNL1       -0.2451
     21 S           1.5717   -1.4758   -0.0073 S.O2    1  UNL1        0.0791
     22 O           1.7073   -2.1414    1.3231 O.2     1  UNL1       -0.1496
     23 O           2.0029   -2.3149   -1.1460 O.2     1  UNL1       -0.1496
     24 H           5.8723   -0.0762    2.6781 H       1  UNL1        0.2951
     25 H           3.9896    1.1732   -0.4309 H       1  UNL1        0.0599
     26 H           4.2854   -0.5615   -0.4685 H       1  UNL1        0.0599
     27 H          -3.4002   -1.5665   -0.4328 H       1  UNL1        0.0632
     28 H          -4.5830    0.4156   -0.6194 H       1  UNL1        0.0624
     29 H          -4.7852    2.8060   -0.7388 H       1  UNL1        0.0618
     30 H          -2.6990    4.1848   -0.6175 H       1  UNL1        0.0618
     31 H          -0.5684    3.1027   -0.3874 H       1  UNL1        0.0624
     32 H          -2.3634   -4.8520   -0.4171 H       1  UNL1        0.2954
@<TRIPOS>BOND
     1     1     2    1
     2     2     3    2
     3     2     4    1
     4     4     5    1
     5     5     6   am
     6     6     7    2
     7     6     8    1
     8     8     9   ar
     9     9    10   ar
    10    10    11   ar
    11    11    12   ar
    12    12    13   ar
    13    13    14   ar
    14    14    15   ar
    15    15    16   ar
    16    16    17   ar
    17    10    18    1
    18    18    19    1
    19    18    20    2
    20     9    21    1
    21    21    22    2
    22    21    23    2
    23    21     5    1
    24    17     8   ar
    25    17    12   ar
    26     1    24    1
    27     4    25    1
    28     4    26    1
    29    11    27    1
    30    13    28    1
    31    14    29    1
    32    15    30    1
    33    16    31    1
    34    19    32    1
