
     RDKit          3D

 25 25  0  0  0  0  0  0  0  0999 V2000
   -1.0751   -2.1541   -0.9148 C   0  0  0  0  0  0  0  0  0  0  0  0
   -0.5218   -1.5520    0.3310 C   0  0  0  0  0  0  0  0  0  0  0  0
   -0.1562   -0.0906    0.1796 C   0  0  0  0  0  0  0  0  0  0  0  0
   -1.4148    0.6626   -0.1995 C   0  0  0  0  0  0  0  0  0  0  0  0
   -1.1744    2.1368   -0.3790 C   0  0  0  0  0  0  0  0  0  0  0  0
    0.2794    0.4311    1.4995 C   0  0  0  0  0  0  0  0  0  0  0  0
   -0.4903    0.8371    2.4005 O   0  0  0  0  0  0  0  0  0  0  0  0
    1.6797    0.4541    1.7147 N   0  0  0  0  0  0  0  0  0  0  0  0
    2.6627    0.3253    0.7098 C   0  0  0  0  0  0  0  0  0  0  0  0
    3.8965    0.3522    0.9524 O   0  0  0  0  0  0  0  0  0  0  0  0
    2.2462    0.1585   -0.6312 N   0  0  0  0  0  0  0  0  0  0  0  0
    0.8361    0.1315   -0.8789 C   0  0  0  0  0  0  0  0  0  0  0  0
    0.4589    0.3111   -2.0801 O   0  0  0  0  0  0  0  0  0  0  0  0
   -2.1921   -2.3102   -0.8577 H   0  0  0  0  0  0  0  0  0  0  0  0
   -0.6640   -3.1925   -1.0343 H   0  0  0  0  0  0  0  0  0  0  0  0
   -0.8910   -1.5951   -1.8331 H   0  0  0  0  0  0  0  0  0  0  0  0
    0.3776   -2.1317    0.6722 H   0  0  0  0  0  0  0  0  0  0  0  0
   -1.2909   -1.6892    1.1170 H   0  0  0  0  0  0  0  0  0  0  0  0
   -2.2232    0.4843    0.5433 H   0  0  0  0  0  0  0  0  0  0  0  0
   -1.7554    0.2648   -1.1692 H   0  0  0  0  0  0  0  0  0  0  0  0
   -0.5525    2.3129   -1.2779 H   0  0  0  0  0  0  0  0  0  0  0  0
   -2.1782    2.5736   -0.6128 H   0  0  0  0  0  0  0  0  0  0  0  0
   -0.8140    2.6524    0.5252 H   0  0  0  0  0  0  0  0  0  0  0  0
    2.0654    0.5754    2.6918 H   0  0  0  0  0  0  0  0  0  0  0  0
    2.8914    0.0517   -1.4684 H   0  0  0  0  0  0  0  0  0  0  0  0
  1  2  1  0
  2  3  1  0
  3  4  1  0
  4  5  1  0
  3  6  1  0
  6  7  2  0
  6  8  1  0
  8  9  1  0
  9 10  2  0
  9 11  1  0
 11 12  1  0
 12 13  2  0
 12  3  1  0
  1 14  1  0
  1 15  1  0
  1 16  1  0
  2 17  1  0
  2 18  1  0
  4 19  1  0
  4 20  1  0
  5 21  1  0
  5 22  1  0
  5 23  1  0
  8 24  1  0
 11 25  1  0
M  END
$$$$
