@<TRIPOS>MOLECULE
*****
 25 25 0 0 0
SMALL
GASTEIGER

@<TRIPOS>ATOM
      1 C          -1.0751   -2.1541   -0.9148 C.3     1  UNL1       -0.0639
      2 C          -0.5218   -1.5520    0.3310 C.3     1  UNL1       -0.0334
      3 C          -0.1562   -0.0906    0.1796 C.3     1  UNL1        0.1229
      4 C          -1.4148    0.6626   -0.1995 C.3     1  UNL1       -0.0334
      5 C          -1.1744    2.1368   -0.3790 C.3     1  UNL1       -0.0639
      6 C           0.2794    0.4311    1.4995 C.2     1  UNL1        0.2354
      7 O          -0.4903    0.8371    2.4005 O.2     1  UNL1       -0.2742
      8 N           1.6797    0.4541    1.7147 N.am    1  UNL1       -0.2390
      9 C           2.6627    0.3253    0.7098 C.2     1  UNL1        0.3122
     10 O           3.8965    0.3522    0.9524 O.2     1  UNL1       -0.2520
     11 N           2.2462    0.1585   -0.6312 N.am    1  UNL1       -0.2390
     12 C           0.8361    0.1315   -0.8789 C.2     1  UNL1        0.2354
     13 O           0.4589    0.3111   -2.0801 O.2     1  UNL1       -0.2742
     14 H          -2.1921   -2.3102   -0.8577 H       1  UNL1        0.0230
     15 H          -0.6640   -3.1925   -1.0343 H       1  UNL1        0.0230
     16 H          -0.8910   -1.5951   -1.8331 H       1  UNL1        0.0230
     17 H           0.3776   -2.1317    0.6722 H       1  UNL1        0.0277
     18 H          -1.2909   -1.6892    1.1170 H       1  UNL1        0.0277
     19 H          -2.2232    0.4843    0.5433 H       1  UNL1        0.0277
     20 H          -1.7554    0.2648   -1.1692 H       1  UNL1        0.0277
     21 H          -0.5525    2.3129   -1.2779 H       1  UNL1        0.0230
     22 H          -2.1782    2.5736   -0.6128 H       1  UNL1        0.0230
     23 H          -0.8140    2.6524    0.5252 H       1  UNL1        0.0230
     24 H           2.0654    0.5754    2.6918 H       1  UNL1        0.1591
     25 H           2.8914    0.0517   -1.4684 H       1  UNL1        0.1591
@<TRIPOS>BOND
     1     1     2    1
     2     2     3    1
     3     3     4    1
     4     4     5    1
     5     3     6    1
     6     6     7    2
     7     6     8   am
     8     8     9   am
     9     9    10    2
    10     9    11   am
    11    11    12   am
    12    12    13    2
    13    12     3    1
    14     1    14    1
    15     1    15    1
    16     1    16    1
    17     2    17    1
    18     2    18    1
    19     4    19    1
    20     4    20    1
    21     5    21    1
    22     5    22    1
    23     5    23    1
    24     8    24    1
    25    11    25    1
