@<TRIPOS>MOLECULE
*****
 47 50 0 0 0
SMALL
GASTEIGER

@<TRIPOS>ATOM
      1 C           5.0019   -2.0722   -0.6656 C.3     1  UNL1        0.0789
      2 O           4.2031   -0.9581   -0.8558 O.3     1  UNL1       -0.4928
      3 C           4.5178    0.3232   -0.7904 C.ar    1  UNL1        0.1517
      4 C           5.7751    0.8174   -0.5357 C.ar    1  UNL1        0.0012
      5 C           6.0634    2.1547   -0.4791 C.ar    1  UNL1        0.0733
      6 C           7.3420    2.6730   -0.1886 C.1     1  UNL1        0.1008
      7 N           8.4502    3.1304    0.0632 N.1     1  UNL1       -0.1908
      8 C           4.9686    3.0189   -0.7035 C.ar    1  UNL1        0.0460
      9 N           3.7487    2.5432   -0.9523 N.ar    1  UNL1       -0.2455
     10 C           3.4478    1.2570   -1.0104 C.ar    1  UNL1        0.1672
     11 C           2.1414    0.6721   -1.2158 C.2     1  UNL1        0.2702
     12 O           1.9186   -0.5412   -1.3129 O.2     1  UNL1       -0.2680
     13 N           0.9893    1.5535   -1.3126 N.am    1  UNL1       -0.2801
     14 C          -0.2970    0.9921   -1.4799 C.ar    1  UNL1        0.0341
     15 C          -0.8484    0.7611   -2.6866 C.ar    1  UNL1       -0.0391
     16 C          -2.0972    0.1716   -2.7679 C.ar    1  UNL1       -0.0413
     17 C          -2.8015   -0.1908   -1.6369 C.ar    1  UNL1        0.0466
     18 CL         -4.3664   -0.9336   -1.7955 Cl      1  UNL1       -0.0832
     19 C          -2.2266    0.0518   -0.3796 C.ar    1  UNL1        0.0030
     20 C          -2.9863   -0.3468    0.8190 C.3     1  UNL1        0.1271
     21 C          -2.2407    0.0147    2.0850 C.3     1  UNL1        0.1199
     22 F          -1.0289   -0.6025    2.2103 F       1  UNL1       -0.2462
     23 N          -4.2364    0.3641    0.8489 N.2     1  UNL1       -0.2225
     24 C          -5.2921   -0.0966    1.4199 C.2     1  UNL1        0.2763
     25 N          -6.5435    0.5321    1.4934 N.pl3   1  UNL1       -0.3134
     26 O          -5.1290   -1.3545    2.0126 O.2     1  UNL1       -0.4622
     27 C          -4.3773   -2.3681    1.3628 C.3     1  UNL1        0.1090
     28 C          -3.0376   -2.6641    2.0082 C.3     1  UNL1       -0.0065
     29 C          -3.1410   -1.8508    0.7441 C.3     1  UNL1        0.0314
     30 C          -0.9910    0.6356   -0.3349 C.ar    1  UNL1       -0.0335
     31 H           5.1408   -2.6472   -1.6043 H       1  UNL1        0.0660
     32 H           4.5563   -2.7550    0.1243 H       1  UNL1        0.0660
     33 H           6.0460   -1.8399   -0.3094 H       1  UNL1        0.0660
     34 H           6.6142    0.1205   -0.3620 H       1  UNL1        0.0668
     35 H           5.1438    4.0691   -0.6652 H       1  UNL1        0.0843
     36 H           1.0991    2.5825   -1.2572 H       1  UNL1        0.1552
     37 H          -0.3489    1.0239   -3.6138 H       1  UNL1        0.0636
     38 H          -2.5618   -0.0270   -3.7465 H       1  UNL1        0.0633
     39 H          -2.8705   -0.2378    2.9560 H       1  UNL1        0.0643
     40 H          -2.1472    1.1278    2.0914 H       1  UNL1        0.0643
     41 H          -7.2929    0.3021    0.8236 H       1  UNL1        0.1466
     42 H          -6.7174    1.2380    2.2337 H       1  UNL1        0.1466
     43 H          -4.8965   -3.2006    0.8588 H       1  UNL1        0.0737
     44 H          -2.6809   -3.7193    1.9346 H       1  UNL1        0.0306
     45 H          -2.7641   -2.2082    2.9593 H       1  UNL1        0.0306
     46 H          -2.7584   -2.3743   -0.1462 H       1  UNL1        0.0365
     47 H          -0.4886    0.8581    0.6000 H       1  UNL1        0.0640
@<TRIPOS>BOND
     1     1     2    1
     2     2     3    1
     3     3     4   ar
     4     4     5   ar
     5     5     6    1
     6     6     7    3
     7     5     8   ar
     8     8     9   ar
     9     9    10   ar
    10    10    11    1
    11    11    12    2
    12    11    13   am
    13    13    14    1
    14    14    15   ar
    15    15    16   ar
    16    16    17   ar
    17    17    18    1
    18    17    19   ar
    19    19    20    1
    20    20    21    1
    21    21    22    1
    22    20    23    1
    23    23    24    2
    24    24    25    1
    25    24    26    1
    26    26    27    1
    27    27    28    1
    28    28    29    1
    29    19    30   ar
    30    10     3   ar
    31    30    14   ar
    32    29    20    1
    33    29    27    1
    34     1    31    1
    35     1    32    1
    36     1    33    1
    37     4    34    1
    38     8    35    1
    39    13    36    1
    40    15    37    1
    41    16    38    1
    42    21    39    1
    43    21    40    1
    44    25    41    1
    45    25    42    1
    46    27    43    1
    47    28    44    1
    48    28    45    1
    49    29    46    1
    50    30    47    1
