@<TRIPOS>MOLECULE
*****
 50 49 0 0 0
SMALL
GASTEIGER

@<TRIPOS>ATOM
      1 C           6.7617    0.9852    0.2030 C.3     1  UNL1       -0.0417
      2 N           6.0527   -0.2715    0.0529 N.4     1  UNL1        0.2393
      3 C           6.3158   -1.0699    1.2201 C.3     1  UNL1       -0.0417
      4 C           6.6232   -0.9686   -1.0850 C.3     1  UNL1       -0.0417
      5 C           4.6432   -0.1097   -0.2299 C.3     1  UNL1        0.0042
      6 C           4.0167    1.0445    0.4951 C.3     1  UNL1        0.1321
      7 O           2.6557    1.1039    0.1441 O.3     1  UNL1       -0.4592
      8 C           1.7288    0.1005    0.3790 C.2     1  UNL1        0.3078
      9 O           2.0600   -0.9786    0.9573 O.2     1  UNL1       -0.2508
     10 C           0.3075    0.2817   -0.0554 C.3     1  UNL1        0.0550
     11 C          -0.5130    0.3448    1.2261 C.3     1  UNL1        0.0550
     12 C          -1.9529    0.5464    0.9848 C.2     1  UNL1        0.3078
     13 O          -2.1581    1.5013    0.1894 O.2     1  UNL1       -0.2508
     14 O          -2.8723   -0.2613    1.5999 O.3     1  UNL1       -0.4592
     15 C          -4.2446   -0.0920    1.3799 C.3     1  UNL1        0.1321
     16 C          -4.5585   -0.2828   -0.0754 C.3     1  UNL1        0.0042
     17 N          -5.9787   -0.1183   -0.3458 N.4     1  UNL1        0.2393
     18 C          -6.1746    0.8066   -1.4459 C.3     1  UNL1       -0.0417
     19 C          -6.7027    0.4503    0.7807 C.3     1  UNL1       -0.0417
     20 C          -6.5277   -1.4363   -0.6202 C.3     1  UNL1       -0.0417
     21 H           7.7933    0.6961    0.5361 H       1  UNL1        0.0778
     22 H           6.2397    1.5491    1.0177 H       1  UNL1        0.0778
     23 H           6.8250    1.5576   -0.7359 H       1  UNL1        0.0778
     24 H           5.8295   -2.0398    1.0992 H       1  UNL1        0.0778
     25 H           7.4347   -1.2468    1.2298 H       1  UNL1        0.0778
     26 H           6.1174   -0.5744    2.1819 H       1  UNL1        0.0778
     27 H           6.8842   -0.2848   -1.9212 H       1  UNL1        0.0778
     28 H           5.8306   -1.7069   -1.4010 H       1  UNL1        0.0778
     29 H           7.4840   -1.6043   -0.7430 H       1  UNL1        0.0778
     30 H           4.5420    0.0588   -1.3266 H       1  UNL1        0.0849
     31 H           4.1738   -1.0828    0.0011 H       1  UNL1        0.0849
     32 H           4.1491    1.0331    1.5708 H       1  UNL1        0.0752
     33 H           4.4608    2.0079    0.1347 H       1  UNL1        0.0752
     34 H           0.0196   -0.7061   -0.5257 H       1  UNL1        0.0383
     35 H           0.1694    1.1403   -0.7244 H       1  UNL1        0.0383
     36 H          -0.0629    1.2075    1.7990 H       1  UNL1        0.0383
     37 H          -0.2977   -0.5560    1.8147 H       1  UNL1        0.0383
     38 H          -4.4484    0.9885    1.6552 H       1  UNL1        0.0752
     39 H          -4.8594   -0.7430    2.0374 H       1  UNL1        0.0752
     40 H          -3.9998    0.4840   -0.6598 H       1  UNL1        0.0849
     41 H          -4.1788   -1.2561   -0.4377 H       1  UNL1        0.0849
     42 H          -5.7588    1.7833   -1.1550 H       1  UNL1        0.0778
     43 H          -5.7419    0.4529   -2.3937 H       1  UNL1        0.0778
     44 H          -7.2966    0.9265   -1.5575 H       1  UNL1        0.0778
     45 H          -7.7695    0.5422    0.4444 H       1  UNL1        0.0778
     46 H          -6.7352   -0.2464    1.6369 H       1  UNL1        0.0778
     47 H          -6.3030    1.4418    0.9926 H       1  UNL1        0.0778
     48 H          -7.1126   -1.7641    0.2792 H       1  UNL1        0.0778
     49 H          -5.7192   -2.1823   -0.7418 H       1  UNL1        0.0778
     50 H          -7.1516   -1.4520   -1.5372 H       1  UNL1        0.0778
@<TRIPOS>UNITY_ATOM_ATTR
2 1
charge 1
17 1
charge 1
@<TRIPOS>BOND
     1     1     2    1
     2     2     3    1
     3     2     4    1
     4     2     5    1
     5     5     6    1
     6     6     7    1
     7     7     8    1
     8     8     9    2
     9     8    10    1
    10    10    11    1
    11    11    12    1
    12    12    13    2
    13    12    14    1
    14    14    15    1
    15    15    16    1
    16    16    17    1
    17    17    18    1
    18    17    19    1
    19    17    20    1
    20     1    21    1
    21     1    22    1
    22     1    23    1
    23     3    24    1
    24     3    25    1
    25     3    26    1
    26     4    27    1
    27     4    28    1
    28     4    29    1
    29     5    30    1
    30     5    31    1
    31     6    32    1
    32     6    33    1
    33    10    34    1
    34    10    35    1
    35    11    36    1
    36    11    37    1
    37    15    38    1
    38    15    39    1
    39    16    40    1
    40    16    41    1
    41    18    42    1
    42    18    43    1
    43    18    44    1
    44    19    45    1
    45    19    46    1
    46    19    47    1
    47    20    48    1
    48    20    49    1
    49    20    50    1
