@<TRIPOS>MOLECULE
*****
 56 60 0 0 0
SMALL
GASTEIGER

@<TRIPOS>ATOM
      1 C          -1.2145   -1.8795   -3.5422 C.3     1  UNL1        0.0790
      2 O          -0.2709   -1.0347   -2.9271 O.3     1  UNL1       -0.4914
      3 C          -0.6645   -0.3287   -1.7999 C.ar    1  UNL1        0.1623
      4 C          -1.9218   -0.4198   -1.2667 C.ar    1  UNL1       -0.0038
      5 C          -2.3312    0.2669   -0.1568 C.ar    1  UNL1        0.0441
      6 C          -3.6055    0.1340    0.3317 C.ar    1  UNL1        0.1340
      7 N          -4.5709   -0.6945   -0.2494 N.pl3   1  UNL1       -0.2966
      8 C          -5.8799   -0.7559    0.3504 C.ar    1  UNL1        0.0695
      9 C          -6.3359   -1.9647    0.8053 C.ar    1  UNL1       -0.0179
     10 C          -7.5933   -2.0088    1.3784 C.ar    1  UNL1        0.0612
     11 CL         -8.2080   -3.5339    1.9700 Cl      1  UNL1       -0.0820
     12 C          -8.3915   -0.8848    1.5034 C.ar    1  UNL1        0.0621
     13 CL         -9.9934   -0.9719    2.2399 Cl      1  UNL1       -0.0819
     14 C          -7.8800    0.3014    1.0283 C.ar    1  UNL1       -0.0048
     15 C          -6.6261    0.3958    0.4464 C.ar    1  UNL1        0.1459
     16 F          -6.1454    1.5927   -0.0172 F       1  UNL1       -0.2035
     17 N          -3.8893    0.8615    1.4299 N.ar    1  UNL1       -0.2200
     18 C          -3.0488    1.6706    2.0504 C.ar    1  UNL1        0.1187
     19 N          -1.7981    1.8041    1.5751 N.ar    1  UNL1       -0.2352
     20 C          -1.4255    1.1019    0.4640 C.ar    1  UNL1        0.0797
     21 C          -0.1442    1.2136   -0.0557 C.ar    1  UNL1        0.0098
     22 C           0.2716    0.5248   -1.1698 C.ar    1  UNL1        0.1641
     23 O           1.5077    0.5872   -1.7203 O.3     1  UNL1       -0.4856
     24 C           2.5928    1.2892   -1.2714 C.3     1  UNL1        0.1170
     25 C           3.1932    0.8907    0.0329 C.3     1  UNL1        0.1053
     26 C           4.2946    1.8244    0.4788 C.3     1  UNL1        0.0288
     27 N           5.5064    1.1118    0.7365 N.3     1  UNL1       -0.2947
     28 C           5.4342    0.2704    1.9079 C.3     1  UNL1       -0.0006
     29 C           6.1763   -0.9971    1.6029 C.3     1  UNL1       -0.0387
     30 C           6.8928   -0.6696    0.3098 C.3     1  UNL1       -0.0340
     31 C           5.8990    0.2526   -0.3640 C.3     1  UNL1        0.0339
     32 C           4.7539   -0.5860   -0.8646 C.3     1  UNL1        0.0638
     33 O           3.6260   -0.4322   -0.1005 O.3     1  UNL1       -0.3704
     34 H          -1.6027   -2.5699   -2.7878 H       1  UNL1        0.0660
     35 H          -2.0383   -1.2277   -3.9283 H       1  UNL1        0.0660
     36 H          -0.6827   -2.4049   -4.3668 H       1  UNL1        0.0660
     37 H          -2.6110   -1.0793   -1.7714 H       1  UNL1        0.0663
     38 H          -4.4825   -1.2904   -1.0739 H       1  UNL1        0.1537
     39 H          -5.7267   -2.8560    0.7168 H       1  UNL1        0.0652
     40 H          -8.4764    1.1931    1.1110 H       1  UNL1        0.0662
     41 H          -3.3588    2.2287    2.9409 H       1  UNL1        0.1048
     42 H           0.5247    1.9137    0.4603 H       1  UNL1        0.0677
     43 H           2.3030    2.3814   -1.2810 H       1  UNL1        0.0723
     44 H           3.4595    1.2781   -2.0126 H       1  UNL1        0.0723
     45 H           2.4416    0.8721    0.8276 H       1  UNL1        0.0643
     46 H           4.4821    2.5741   -0.3149 H       1  UNL1        0.0453
     47 H           4.0229    2.3684    1.4132 H       1  UNL1        0.0453
     48 H           5.9451    0.7519    2.7686 H       1  UNL1        0.0427
     49 H           4.3705    0.0343    2.1482 H       1  UNL1        0.0427
     50 H           5.4715   -1.8406    1.4062 H       1  UNL1        0.0278
     51 H           6.9094   -1.2827    2.3595 H       1  UNL1        0.0278
     52 H           7.8648   -0.1682    0.4910 H       1  UNL1        0.0281
     53 H           6.9921   -1.5686   -0.3365 H       1  UNL1        0.0281
     54 H           6.3637    0.8659   -1.1474 H       1  UNL1        0.0485
     55 H           4.6103   -0.3983   -1.9497 H       1  UNL1        0.0575
     56 H           5.0077   -1.6862   -0.8095 H       1  UNL1        0.0575
@<TRIPOS>BOND
     1     1     2    1
     2     2     3    1
     3     3     4   ar
     4     4     5   ar
     5     5     6   ar
     6     6     7    1
     7     7     8    1
     8     8     9   ar
     9     9    10   ar
    10    10    11    1
    11    10    12   ar
    12    12    13    1
    13    12    14   ar
    14    14    15   ar
    15    15    16    1
    16     6    17   ar
    17    17    18   ar
    18    18    19   ar
    19    19    20   ar
    20    20    21   ar
    21    21    22   ar
    22    22    23    1
    23    23    24    1
    24    24    25    1
    25    25    26    1
    26    26    27    1
    27    27    28    1
    28    28    29    1
    29    29    30    1
    30    30    31    1
    31    31    32    1
    32    32    33    1
    33    22     3   ar
    34    33    25    1
    35    20     5   ar
    36    31    27    1
    37    15     8   ar
    38     1    34    1
    39     1    35    1
    40     1    36    1
    41     4    37    1
    42     7    38    1
    43     9    39    1
    44    14    40    1
    45    18    41    1
    46    21    42    1
    47    24    43    1
    48    24    44    1
    49    25    45    1
    50    26    46    1
    51    26    47    1
    52    28    48    1
    53    28    49    1
    54    29    50    1
    55    29    51    1
    56    30    52    1
    57    30    53    1
    58    31    54    1
    59    32    55    1
    60    32    56    1
