@<TRIPOS>MOLECULE
*****
 69 71 0 0 0
SMALL
GASTEIGER

@<TRIPOS>ATOM
      1 C          -1.0728    5.1623   -0.0430 C.3     1  UNL1       -0.0652
      2 C           0.4178    5.0260    0.1767 C.3     1  UNL1       -0.0544
      3 C           0.7642    4.0230    1.2104 C.3     1  UNL1       -0.0357
      4 C           0.3863    2.6184    1.0118 C.3     1  UNL1        0.0351
      5 N           0.9668    1.9175   -0.1192 N.pl3   1  UNL1       -0.1995
      6 C           2.3344    1.5144   -0.0759 C.ar    1  UNL1        0.0934
      7 C           3.2818    2.3809   -0.6389 C.ar    1  UNL1       -0.0355
      8 C           4.6196    2.0872   -0.7213 C.ar    1  UNL1       -0.0592
      9 C           5.0237    0.8563   -0.2100 C.ar    1  UNL1       -0.0504
     10 C           4.1267   -0.0224    0.3517 C.ar    1  UNL1        0.0257
     11 C           4.5718   -1.3023    0.8767 C.ar    1  UNL1       -0.0142
     12 C           3.8907   -2.4840    0.6130 C.ar    1  UNL1       -0.0525
     13 C           4.3387   -3.6837    1.1256 C.ar    1  UNL1       -0.0428
     14 C           5.4726   -3.7310    1.9103 C.ar    1  UNL1        0.0410
     15 CL          6.0752   -5.2379    2.5816 Cl      1  UNL1       -0.0835
     16 C           6.1641   -2.5765    2.1859 C.ar    1  UNL1       -0.0428
     17 C           5.7012   -1.3944    1.6660 C.ar    1  UNL1       -0.0525
     18 C           2.7690    0.3191    0.4165 C.ar    1  UNL1        0.1502
     19 O           1.9322   -0.6099    1.0039 O.3     1  UNL1       -0.4926
     20 C           1.6195   -0.6731    2.3668 C.3     1  UNL1        0.0789
     21 S           0.0075    1.5975   -1.4911 S.O2    1  UNL1        0.0751
     22 O           0.9511    0.9898   -2.5522 O.2     1  UNL1       -0.1498
     23 O          -0.3543    2.9414   -2.1332 O.2     1  UNL1       -0.1498
     24 C          -1.3796    0.6225   -1.2765 C.ar    1  UNL1        0.1121
     25 C          -2.6281    1.2537   -1.2220 C.ar    1  UNL1       -0.0313
     26 C          -3.7794    0.5756   -0.9984 C.ar    1  UNL1       -0.0178
     27 C          -3.7891   -0.8237   -0.8049 C.ar    1  UNL1        0.1249
     28 O          -4.9680   -1.4048   -0.5906 O.3     1  UNL1       -0.4776
     29 C          -5.5928   -2.5529   -0.3516 C.3     1  UNL1        0.1931
     30 C          -6.5792   -2.8466   -1.5194 C.3     1  UNL1       -0.0172
     31 C          -6.5362   -2.4571    0.8466 C.2     1  UNL1        0.3456
     32 O          -7.1955   -3.4640    1.1924 O.2     1  UNL1       -0.2468
     33 O          -6.6050   -1.2361    1.4898 O.3     1  UNL1       -0.4781
     34 C          -2.5517   -1.4401   -0.8616 C.ar    1  UNL1       -0.0040
     35 C          -2.4671   -2.9324   -0.6721 C.3     1  UNL1       -0.0359
     36 C          -1.3723   -0.7230   -1.0948 C.ar    1  UNL1       -0.0175
     37 C          -0.1087   -1.5297   -1.2017 C.3     1  UNL1       -0.0375
     38 H          -1.2456    5.4957   -1.0844 H       1  UNL1        0.0230
     39 H          -1.5299    5.9380    0.6092 H       1  UNL1        0.0230
     40 H          -1.6163    4.2055    0.0891 H       1  UNL1        0.0230
     41 H           0.7256    6.0365    0.6071 H       1  UNL1        0.0263
     42 H           0.9058    4.9025   -0.7861 H       1  UNL1        0.0263
     43 H           0.2645    4.3860    2.1706 H       1  UNL1        0.0281
     44 H           1.8610    4.1499    1.4706 H       1  UNL1        0.0281
     45 H           0.6481    2.0181    1.9244 H       1  UNL1        0.0482
     46 H          -0.7333    2.5653    0.9381 H       1  UNL1        0.0482
     47 H           2.9102    3.3174   -1.0171 H       1  UNL1        0.0638
     48 H           5.3366    2.7591   -1.1546 H       1  UNL1        0.0618
     49 H           6.0635    0.5488   -0.2379 H       1  UNL1        0.0625
     50 H           3.0072   -2.4396    0.0005 H       1  UNL1        0.0624
     51 H           3.8229   -4.6264    0.9342 H       1  UNL1        0.0632
     52 H           7.0613   -2.5372    2.7936 H       1  UNL1        0.0632
     53 H           6.2243   -0.4490    1.8619 H       1  UNL1        0.0624
     54 H           2.3416   -0.0251    2.9239 H       1  UNL1        0.0660
     55 H           0.6084   -0.3089    2.6045 H       1  UNL1        0.0660
     56 H           1.7070   -1.6965    2.8009 H       1  UNL1        0.0660
     57 H          -2.6290    2.3274   -1.3698 H       1  UNL1        0.0638
     58 H          -4.7558    1.0508   -0.9532 H       1  UNL1        0.0655
     59 H          -4.9716   -3.4491   -0.2148 H       1  UNL1        0.0849
     60 H          -7.3303   -3.5506   -1.1366 H       1  UNL1        0.0271
     61 H          -7.0789   -1.8820   -1.7370 H       1  UNL1        0.0271
     62 H          -6.0351   -3.2305   -2.3836 H       1  UNL1        0.0271
     63 H          -7.3544   -1.0411    2.1432 H       1  UNL1        0.2952
     64 H          -1.3959   -3.2818   -0.7561 H       1  UNL1        0.0279
     65 H          -2.7681   -3.2128    0.3330 H       1  UNL1        0.0279
     66 H          -3.0551   -3.4596   -1.4458 H       1  UNL1        0.0279
     67 H          -0.2559   -2.2811   -2.0123 H       1  UNL1        0.0278
     68 H           0.7768   -0.9151   -1.3760 H       1  UNL1        0.0278
     69 H           0.0550   -2.0741   -0.2599 H       1  UNL1        0.0278
@<TRIPOS>BOND
     1     1     2    1
     2     2     3    1
     3     3     4    1
     4     4     5    1
     5     5     6    1
     6     6     7   ar
     7     7     8   ar
     8     8     9   ar
     9     9    10   ar
    10    10    11    1
    11    11    12   ar
    12    12    13   ar
    13    13    14   ar
    14    14    15    1
    15    14    16   ar
    16    16    17   ar
    17    10    18   ar
    18    18    19    1
    19    19    20    1
    20     5    21    1
    21    21    22    2
    22    21    23    2
    23    21    24    1
    24    24    25   ar
    25    25    26   ar
    26    26    27   ar
    27    27    28    1
    28    28    29    1
    29    29    30    1
    30    29    31    1
    31    31    32    2
    32    31    33    1
    33    27    34   ar
    34    34    35    1
    35    34    36   ar
    36    36    37    1
    37    18     6   ar
    38    36    24   ar
    39    17    11   ar
    40     1    38    1
    41     1    39    1
    42     1    40    1
    43     2    41    1
    44     2    42    1
    45     3    43    1
    46     3    44    1
    47     4    45    1
    48     4    46    1
    49     7    47    1
    50     8    48    1
    51     9    49    1
    52    12    50    1
    53    13    51    1
    54    16    52    1
    55    17    53    1
    56    20    54    1
    57    20    55    1
    58    20    56    1
    59    25    57    1
    60    26    58    1
    61    29    59    1
    62    30    60    1
    63    30    61    1
    64    30    62    1
    65    33    63    1
    66    35    64    1
    67    35    65    1
    68    35    66    1
    69    37    67    1
    70    37    68    1
    71    37    69    1
