@<TRIPOS>MOLECULE
*****
 58 62 0 0 0
SMALL
GASTEIGER

@<TRIPOS>ATOM
      1 C          -6.0744    2.8447   -1.2836 C.3     1  UNL1       -0.0223
      2 C          -4.8355    2.4415   -0.5699 C.ar    1  UNL1        0.0390
      3 C          -3.9655    3.4337   -0.1897 C.ar    1  UNL1       -0.0406
      4 C          -2.8214    3.0810    0.4656 C.ar    1  UNL1       -0.0580
      5 C          -2.5724    1.7331    0.7270 C.ar    1  UNL1       -0.0341
      6 C          -3.4605    0.7505    0.3359 C.ar    1  UNL1        0.0918
      7 C          -3.1855   -0.6510    0.6135 C.ar    1  UNL1        0.1188
      8 N          -3.9308   -1.4375    1.3898 N.ar    1  UNL1       -0.1688
      9 N          -3.4371   -2.6565    1.4538 N.ar    1  UNL1       -0.2671
     10 C          -2.3234   -2.7023    0.6995 C.ar    1  UNL1        0.0476
     11 C          -2.1468   -1.4471    0.1603 C.ar    1  UNL1        0.0322
     12 C          -1.1159   -0.9164   -0.7245 C.ar    1  UNL1       -0.0119
     13 C          -1.4543   -0.4033   -1.9627 C.ar    1  UNL1       -0.0518
     14 C          -0.4780    0.0971   -2.7924 C.ar    1  UNL1       -0.0337
     15 C           0.8545    0.0786   -2.3666 C.ar    1  UNL1        0.0890
     16 N           2.0084    0.4756   -2.9150 N.ar    1  UNL1       -0.2357
     17 C           3.0039    0.2155   -2.0504 C.ar    1  UNL1        0.0970
     18 N           2.5084   -0.3493   -0.9398 N.ar    1  UNL1       -0.3300
     19 C           3.2810   -0.7822    0.2262 C.3     1  UNL1        0.0259
     20 C           3.3619    0.3515    1.1994 C.3     1  UNL1       -0.0221
     21 C           4.0260    1.5724    0.6152 C.3     1  UNL1       -0.0001
     22 N           5.3840    1.2712    0.1910 N.3     1  UNL1       -0.3083
     23 C           6.2448    0.9944    1.3289 C.3     1  UNL1       -0.0130
     24 C           5.9330    2.3648   -0.5968 C.3     1  UNL1       -0.0130
     25 C           1.1741   -0.4368   -1.1298 C.ar    1  UNL1        0.0692
     26 C           0.1879   -0.9407   -0.2945 C.ar    1  UNL1       -0.0282
     27 C          -1.7139   -4.0554    0.7289 C.3     1  UNL1       -0.0084
     28 C          -2.7024   -4.8752    1.5118 C.3     1  UNL1       -0.0279
     29 C          -3.7166   -3.9288    2.0697 C.3     1  UNL1        0.0422
     30 N          -4.5742    1.1385   -0.3060 N.ar    1  UNL1       -0.2503
     31 H          -6.2466    2.1059   -2.1210 H       1  UNL1        0.0292
     32 H          -6.0070    3.8721   -1.6559 H       1  UNL1        0.0292
     33 H          -6.9381    2.6954   -0.5854 H       1  UNL1        0.0292
     34 H          -4.1844    4.4574   -0.4046 H       1  UNL1        0.0635
     35 H          -2.1031    3.8291    0.7859 H       1  UNL1        0.0619
     36 H          -1.6511    1.5146    1.2482 H       1  UNL1        0.0639
     37 H          -2.4887   -0.3942   -2.2822 H       1  UNL1        0.0624
     38 H          -0.6778    0.5146   -3.7762 H       1  UNL1        0.0640
     39 H           4.0593    0.4214   -2.2029 H       1  UNL1        0.1029
     40 H           2.7453   -1.6630    0.6358 H       1  UNL1        0.0492
     41 H           4.2470   -1.1256   -0.1359 H       1  UNL1        0.0492
     42 H           2.3506    0.6857    1.5435 H       1  UNL1        0.0295
     43 H           3.8980   -0.0175    2.1078 H       1  UNL1        0.0295
     44 H           4.0024    2.4360    1.3133 H       1  UNL1        0.0427
     45 H           3.4707    1.8694   -0.2897 H       1  UNL1        0.0427
     46 H           7.3055    1.2064    1.1157 H       1  UNL1        0.0391
     47 H           6.1654   -0.0998    1.5364 H       1  UNL1        0.0391
     48 H           5.9155    1.5099    2.2378 H       1  UNL1        0.0391
     49 H           5.3449    3.2976   -0.4607 H       1  UNL1        0.0391
     50 H           6.0047    2.0395   -1.6380 H       1  UNL1        0.0391
     51 H           6.9557    2.5731   -0.2286 H       1  UNL1        0.0391
     52 H           0.4815   -1.3364    0.6694 H       1  UNL1        0.0645
     53 H          -0.7342   -4.0358    1.2630 H       1  UNL1        0.0329
     54 H          -1.6209   -4.5123   -0.2746 H       1  UNL1        0.0329
     55 H          -3.1313   -5.6946    0.9149 H       1  UNL1        0.0287
     56 H          -2.1804   -5.3565    2.3830 H       1  UNL1        0.0287
     57 H          -3.6783   -3.8006    3.1632 H       1  UNL1        0.0509
     58 H          -4.7639   -4.2536    1.8174 H       1  UNL1        0.0509
@<TRIPOS>BOND
     1     1     2    1
     2     2     3   ar
     3     3     4   ar
     4     4     5   ar
     5     5     6   ar
     6     6     7    1
     7     7     8   ar
     8     8     9   ar
     9     9    10   ar
    10    10    11   ar
    11    11    12    1
    12    12    13   ar
    13    13    14   ar
    14    14    15   ar
    15    15    16   ar
    16    16    17   ar
    17    17    18   ar
    18    18    19    1
    19    19    20    1
    20    20    21    1
    21    21    22    1
    22    22    23    1
    23    22    24    1
    24    18    25   ar
    25    25    26   ar
    26    10    27    1
    27    27    28    1
    28    28    29    1
    29     6    30   ar
    30    30     2   ar
    31    11     7   ar
    32    26    12   ar
    33    29     9    1
    34    25    15   ar
    35     1    31    1
    36     1    32    1
    37     1    33    1
    38     3    34    1
    39     4    35    1
    40     5    36    1
    41    13    37    1
    42    14    38    1
    43    17    39    1
    44    19    40    1
    45    19    41    1
    46    20    42    1
    47    20    43    1
    48    21    44    1
    49    21    45    1
    50    23    46    1
    51    23    47    1
    52    23    48    1
    53    24    49    1
    54    24    50    1
    55    24    51    1
    56    26    52    1
    57    27    53    1
    58    27    54    1
    59    28    55    1
    60    28    56    1
    61    29    57    1
    62    29    58    1
