@<TRIPOS>MOLECULE
*****
 63 64 0 0 0
SMALL
GASTEIGER

@<TRIPOS>ATOM
      1 C          -9.4779   -0.3259   -0.7848 C.3     1  UNL1       -0.0439
      2 C          -9.2589   -1.6663   -1.3744 C.2     1  UNL1       -0.0765
      3 C         -10.3990   -2.3406   -2.0512 C.3     1  UNL1       -0.0439
      4 C          -8.0913   -2.2916   -1.3246 C.2     1  UNL1       -0.0484
      5 C          -6.8370   -1.8040   -0.7036 C.3     1  UNL1        0.1080
      6 O          -5.8664   -1.7446   -1.7558 O.3     1  UNL1       -0.4880
      7 C          -4.5740   -1.3094   -1.4144 C.ar    1  UNL1        0.1210
      8 C          -4.3110   -0.9716   -0.1082 C.ar    1  UNL1       -0.0194
      9 C          -3.0169   -0.5568    0.1149 C.ar    1  UNL1       -0.0511
     10 C          -2.0001   -0.4530   -0.8132 C.ar    1  UNL1       -0.0247
     11 C          -0.6603   -0.0019   -0.4937 C.2     1  UNL1       -0.0510
     12 C          -0.1327    0.3830    0.6465 C.2     1  UNL1       -0.0137
     13 C           1.1091    0.8439    1.1594 C.2     1  UNL1        0.1896
     14 O           0.7504    1.0161    2.3912 O.2     1  UNL1       -0.2872
     15 C           2.4856    1.1707    0.8918 C.ar    1  UNL1        0.0635
     16 C           3.2063    1.0668   -0.2763 C.ar    1  UNL1        0.1355
     17 O           2.5361    0.5516   -1.3643 O.3     1  UNL1       -0.4800
     18 C           3.1716    0.3993   -2.6055 C.3     1  UNL1        0.1857
     19 C           2.3098   -0.1676   -3.6679 C.2     1  UNL1        0.3427
     20 O           3.0212   -0.2786   -4.8546 O.3     1  UNL1       -0.4783
     21 O           1.1205   -0.5640   -3.7596 O.2     1  UNL1       -0.2472
     22 C           4.5207    1.4232   -0.4592 C.ar    1  UNL1        0.0225
     23 C           5.1162    1.9237    0.6677 C.ar    1  UNL1        0.1245
     24 O           6.4532    2.3142    0.5700 O.3     1  UNL1       -0.4878
     25 C           7.1529    2.8248    1.7007 C.3     1  UNL1        0.1080
     26 C           7.3091    1.8433    2.7975 C.2     1  UNL1       -0.0484
     27 C           7.1294    0.6326    3.2964 C.2     1  UNL1       -0.0765
     28 C           6.4544   -0.5065    2.6059 C.3     1  UNL1       -0.0439
     29 C           7.6187    0.2521    4.6663 C.3     1  UNL1       -0.0439
     30 C           4.5095    2.0785    1.8893 C.ar    1  UNL1       -0.0190
     31 C           3.1992    1.6953    1.9728 C.ar    1  UNL1       -0.0440
     32 C          -2.3152   -0.8027   -2.1021 C.ar    1  UNL1       -0.0511
     33 C          -3.6064   -1.2354   -2.4197 C.ar    1  UNL1       -0.0194
     34 H          -8.8360   -0.1120    0.0811 H       1  UNL1        0.0274
     35 H         -10.5320   -0.2695   -0.4397 H       1  UNL1        0.0274
     36 H          -9.2818    0.4116   -1.6013 H       1  UNL1        0.0274
     37 H          -9.9644   -3.0192   -2.8439 H       1  UNL1        0.0274
     38 H         -10.9600   -3.0015   -1.3710 H       1  UNL1        0.0274
     39 H         -11.0602   -1.5921   -2.5488 H       1  UNL1        0.0274
     40 H          -7.9677   -3.2706   -1.7638 H       1  UNL1        0.0605
     41 H          -6.9482   -0.7989   -0.2719 H       1  UNL1        0.0742
     42 H          -6.4883   -2.5017    0.0817 H       1  UNL1        0.0742
     43 H          -5.0651   -1.0327    0.6471 H       1  UNL1        0.0654
     44 H          -2.8607   -0.3005    1.1699 H       1  UNL1        0.0625
     45 H           0.0344    0.0540   -1.3185 H       1  UNL1        0.0625
     46 H          -1.0128    0.2614    1.3024 H       1  UNL1        0.0656
     47 H           3.5380    1.4029   -2.9683 H       1  UNL1        0.0815
     48 H           4.1255   -0.1968   -2.5157 H       1  UNL1        0.0815
     49 H           2.5927   -0.5510   -5.7509 H       1  UNL1        0.2952
     50 H           4.9909    1.3026   -1.4157 H       1  UNL1        0.0691
     51 H           8.1697    3.1075    1.3462 H       1  UNL1        0.0742
     52 H           6.6337    3.7512    2.0433 H       1  UNL1        0.0742
     53 H           7.8420    2.4684    3.5501 H       1  UNL1        0.0605
     54 H           5.3711   -0.5472    2.7650 H       1  UNL1        0.0274
     55 H           6.9380   -1.4525    2.8939 H       1  UNL1        0.0274
     56 H           6.6351   -0.4266    1.4965 H       1  UNL1        0.0274
     57 H           8.5264   -0.3884    4.5865 H       1  UNL1        0.0274
     58 H           6.7941   -0.2992    5.1583 H       1  UNL1        0.0274
     59 H           7.8002    1.1419    5.2879 H       1  UNL1        0.0274
     60 H           5.0017    2.4902    2.7619 H       1  UNL1        0.0654
     61 H           2.7703    1.8420    2.9772 H       1  UNL1        0.0627
     62 H          -1.5987   -0.7655   -2.9308 H       1  UNL1        0.0625
     63 H          -3.8152   -1.5014   -3.4460 H       1  UNL1        0.0654
@<TRIPOS>BOND
     1     1     2    1
     2     2     3    1
     3     2     4    2
     4     4     5    1
     5     5     6    1
     6     6     7    1
     7     7     8   ar
     8     8     9   ar
     9     9    10   ar
    10    10    11    1
    11    11    12    2
    12    12    13    1
    13    13    14    2
    14    13    15    1
    15    15    16   ar
    16    16    17    1
    17    17    18    1
    18    18    19    1
    19    19    20    1
    20    19    21    2
    21    16    22   ar
    22    22    23   ar
    23    23    24    1
    24    24    25    1
    25    25    26    1
    26    26    27    2
    27    27    28    1
    28    27    29    1
    29    23    30   ar
    30    30    31   ar
    31    10    32   ar
    32    32    33   ar
    33    33     7   ar
    34    31    15   ar
    35     1    34    1
    36     1    35    1
    37     1    36    1
    38     3    37    1
    39     3    38    1
    40     3    39    1
    41     4    40    1
    42     5    41    1
    43     5    42    1
    44     8    43    1
    45     9    44    1
    46    11    45    1
    47    12    46    1
    48    18    47    1
    49    18    48    1
    50    20    49    1
    51    22    50    1
    52    25    51    1
    53    25    52    1
    54    26    53    1
    55    28    54    1
    56    28    55    1
    57    28    56    1
    58    29    57    1
    59    29    58    1
    60    29    59    1
    61    30    60    1
    62    31    61    1
    63    32    62    1
    64    33    63    1
