
     RDKit          3D

 57 60  0  0  0  0  0  0  0  0999 V2000
   10.4205   -0.9597    1.2656 C   0  0  0  0  0  0  0  0  0  0  0  0
    9.9808   -0.7051    0.2174 C   0  0  0  0  0  0  0  0  0  0  0  0
    9.3993   -0.3662   -1.1114 C   0  0  0  0  0  0  0  0  0  0  0  0
    8.0982   -0.7320   -1.1777 O   0  0  0  0  0  0  0  0  0  0  0  0
    6.9929   -0.3743   -0.4733 C   0  0  0  0  0  0  0  0  0  0  0  0
    5.7919   -0.9412   -0.8446 C   0  0  0  0  0  0  0  0  0  0  0  0
    4.6530   -0.6544   -0.2699 N   0  0  0  0  0  0  0  0  0  0  0  0
    4.5669    0.2527    0.7704 C   0  0  0  0  0  0  0  0  0  0  0  0
    3.2213    0.7238    1.1161 C   0  0  0  0  0  0  0  0  0  0  0  0
    2.6836    0.7623    2.2992 F   0  0  0  0  0  0  0  0  0  0  0  0
    2.4998    1.0650    0.0127 C   0  0  0  0  0  0  0  0  0  0  0  0
    1.1922    1.5329   -0.1468 C   0  0  0  0  0  0  0  0  0  0  0  0
    0.8705    2.8384   -0.5325 C   0  0  0  0  0  0  0  0  0  0  0  0
   -0.3630    3.2885   -0.8172 C   0  0  0  0  0  0  0  0  0  0  0  0
   -1.4612    2.3535   -0.7160 C   0  0  0  0  0  0  0  0  0  0  0  0
   -2.7041    2.8373   -0.9396 F   0  0  0  0  0  0  0  0  0  0  0  0
   -1.1656    1.1089   -0.3553 C   0  0  0  0  0  0  0  0  0  0  0  0
   -2.2943    0.0503   -0.3345 C   0  0  1  0  0  0  0  0  0  0  0  0
   -2.7987    0.0138   -1.7793 C   0  0  0  0  0  0  0  0  0  0  0  0
   -1.6404   -1.1629   -0.0127 N   0  0  0  0  0  0  0  0  0  0  0  0
   -2.1232   -2.2561    0.4025 C   0  0  0  0  0  0  0  0  0  0  0  0
   -1.3328   -3.3963    0.6802 N   0  0  0  0  0  0  0  0  0  0  0  0
   -3.8911   -2.2626    0.6592 S   0  0  0  0  0  0  0  0  0  0  0  0
   -4.3069   -0.5470    1.0140 C   0  0  1  0  0  0  0  0  0  0  0  0
   -5.7176   -0.0903    0.8991 C   0  0  0  0  0  0  0  0  0  0  0  0
   -6.0344    0.9317    1.6219 O   0  0  0  0  0  0  0  0  0  0  0  0
   -6.6834   -0.6533    0.0864 N   0  0  0  0  0  0  0  0  0  0  0  0
   -7.9237    0.1290   -0.1609 C   0  0  0  0  0  0  0  0  0  0  0  0
   -6.6893   -1.9443   -0.5068 C   0  0  0  0  0  0  0  0  0  0  0  0
   -3.3970    0.1219    2.0000 C   0  0  0  0  0  0  0  0  0  0  0  0
   -3.3168    0.5131    0.6104 C   0  0  1  0  0  0  0  0  0  0  0  0
    0.1039    0.6223   -0.0581 C   0  0  0  0  0  0  0  0  0  0  0  0
    5.7223    0.8014    1.1555 C   0  0  0  0  0  0  0  0  0  0  0  0
    6.9326    0.5325    0.5840 N   0  0  0  0  0  0  0  0  0  0  0  0
   10.8535   -1.2187    2.3513 H   0  0  0  0  0  0  0  0  0  0  0  0
    9.4435    0.7686   -1.2347 H   0  0  0  0  0  0  0  0  0  0  0  0
    9.9900   -0.8814   -1.8851 H   0  0  0  0  0  0  0  0  0  0  0  0
    5.8273   -1.6674   -1.6730 H   0  0  0  0  0  0  0  0  0  0  0  0
    3.1328    0.9633   -0.9347 H   0  0  0  0  0  0  0  0  0  0  0  0
    1.7682    3.4980   -0.6165 H   0  0  0  0  0  0  0  0  0  0  0  0
   -0.6252    4.2689   -1.1395 H   0  0  0  0  0  0  0  0  0  0  0  0
   -1.9501   -0.1420   -2.4840 H   0  0  0  0  0  0  0  0  0  0  0  0
   -3.3359    0.9497   -1.9800 H   0  0  0  0  0  0  0  0  0  0  0  0
   -3.5162   -0.8031   -1.8891 H   0  0  0  0  0  0  0  0  0  0  0  0
   -0.5624   -3.7397    0.0338 H   0  0  0  0  0  0  0  0  0  0  0  0
   -1.4693   -3.9684    1.5486 H   0  0  0  0  0  0  0  0  0  0  0  0
   -7.8836    0.3927   -1.2608 H   0  0  0  0  0  0  0  0  0  0  0  0
   -7.8701    1.0584    0.4632 H   0  0  0  0  0  0  0  0  0  0  0  0
   -8.7968   -0.4900    0.0114 H   0  0  0  0  0  0  0  0  0  0  0  0
   -7.4606   -2.6009   -0.0217 H   0  0  0  0  0  0  0  0  0  0  0  0
   -7.0327   -1.7779   -1.5921 H   0  0  0  0  0  0  0  0  0  0  0  0
   -5.7266   -2.4004   -0.6142 H   0  0  0  0  0  0  0  0  0  0  0  0
   -3.8022    0.8959    2.7038 H   0  0  0  0  0  0  0  0  0  0  0  0
   -2.6062   -0.5216    2.5140 H   0  0  0  0  0  0  0  0  0  0  0  0
   -3.7498    1.5276    0.3185 H   0  0  0  0  0  0  0  0  0  0  0  0
    0.3356   -0.3598    0.2321 H   0  0  0  0  0  0  0  0  0  0  0  0
    5.7503    1.5391    1.9906 H   0  0  0  0  0  0  0  0  0  0  0  0
  1  2  3  0
  2  3  1  0
  3  4  1  0
  4  5  1  0
  5  6  2  0
  6  7  1  0
  7  8  2  0
  8  9  1  0
  9 10  1  0
  9 11  2  0
 11 12  1  0
 12 13  2  0
 13 14  1  0
 14 15  2  0
 15 16  1  0
 15 17  1  0
 17 18  1  0
 18 19  1  6
 18 20  1  0
 20 21  2  0
 21 22  1  0
 21 23  1  0
 23 24  1  0
 24 25  1  1
 25 26  2  0
 25 27  1  0
 27 28  1  0
 27 29  1  0
 24 30  1  0
 30 31  1  0
 17 32  2  0
  8 33  1  0
 33 34  2  0
 34  5  1  0
 32 12  1  0
 31 18  1  0
 31 24  1  0
  1 35  1  0
  3 36  1  0
  3 37  1  0
  6 38  1  0
 11 39  1  0
 13 40  1  0
 14 41  1  0
 19 42  1  0
 19 43  1  0
 19 44  1  0
 22 45  1  0
 22 46  1  0
 28 47  1  0
 28 48  1  0
 28 49  1  0
 29 50  1  0
 29 51  1  0
 29 52  1  0
 30 53  1  0
 30 54  1  0
 31 55  1  1
 32 56  1  0
 33 57  1  0
M  END
$$$$
