@<TRIPOS>MOLECULE
*****
 57 60 0 0 0
SMALL
GASTEIGER

@<TRIPOS>ATOM
      1 C          10.4205   -0.9597    1.2656 C.1     1  UNL1       -0.1158
      2 C           9.9808   -0.7051    0.2174 C.1     1  UNL1       -0.0647
      3 C           9.3993   -0.3662   -1.1114 C.3     1  UNL1        0.1513
      4 O           8.0982   -0.7320   -1.1777 O.3     1  UNL1       -0.4624
      5 C           6.9929   -0.3743   -0.4733 C.ar    1  UNL1        0.2344
      6 C           5.7919   -0.9412   -0.8446 C.ar    1  UNL1        0.0899
      7 N           4.6530   -0.6544   -0.2699 N.ar    1  UNL1       -0.2459
      8 C           4.5669    0.2527    0.7704 C.ar    1  UNL1        0.1172
      9 C           3.2213    0.7238    1.1161 C.2     1  UNL1        0.1507
     10 F           2.6836    0.7623    2.2992 F       1  UNL1       -0.2032
     11 C           2.4998    1.0650    0.0127 C.2     1  UNL1       -0.0171
     12 C           1.1922    1.5329   -0.1468 C.ar    1  UNL1       -0.0217
     13 C           0.8705    2.8384   -0.5325 C.ar    1  UNL1       -0.0518
     14 C          -0.3630    3.2885   -0.8172 C.ar    1  UNL1       -0.0255
     15 C          -1.4612    2.3535   -0.7160 C.ar    1  UNL1        0.1289
     16 F          -2.7041    2.8373   -0.9396 F       1  UNL1       -0.2051
     17 C          -1.1656    1.1089   -0.3553 C.ar    1  UNL1        0.0158
     18 C          -2.2943    0.0503   -0.3345 C.3     1  UNL1        0.0935
     19 C          -2.7987    0.0138   -1.7793 C.3     1  UNL1       -0.0351
     20 N          -1.6404   -1.1629   -0.0127 N.2     1  UNL1       -0.2521
     21 C          -2.1232   -2.2561    0.4025 C.2     1  UNL1        0.1485
     22 N          -1.3328   -3.3963    0.6802 N.pl3   1  UNL1       -0.3380
     23 S          -3.8911   -2.2626    0.6592 S.3     1  UNL1       -0.0746
     24 C          -4.3069   -0.5470    1.0140 C.3     1  UNL1        0.1054
     25 C          -5.7176   -0.0903    0.8991 C.2     1  UNL1        0.2319
     26 O          -6.0344    0.9317    1.6219 O.2     1  UNL1       -0.2741
     27 N          -6.6834   -0.6533    0.0864 N.am    1  UNL1       -0.3064
     28 C          -7.9237    0.1290   -0.1609 C.3     1  UNL1        0.0029
     29 C          -6.6893   -1.9443   -0.5068 C.3     1  UNL1        0.0029
     30 C          -3.3970    0.1219    2.0000 C.3     1  UNL1       -0.0220
     31 C          -3.3168    0.5131    0.6104 C.3     1  UNL1        0.0134
     32 C           0.1039    0.6223   -0.0581 C.ar    1  UNL1       -0.0463
     33 C           5.7223    0.8014    1.1555 C.ar    1  UNL1        0.0596
     34 N           6.9326    0.5325    0.5840 N.ar    1  UNL1       -0.2178
     35 H          10.8535   -1.2187    2.3513 H       1  UNL1        0.1229
     36 H           9.4435    0.7686   -1.2347 H       1  UNL1        0.0837
     37 H           9.9900   -0.8814   -1.8851 H       1  UNL1        0.0837
     38 H           5.8273   -1.6674   -1.6730 H       1  UNL1        0.0884
     39 H           3.1328    0.9633   -0.9347 H       1  UNL1        0.0653
     40 H           1.7682    3.4980   -0.6165 H       1  UNL1        0.0624
     41 H          -0.6252    4.2689   -1.1395 H       1  UNL1        0.0646
     42 H          -1.9501   -0.1420   -2.4840 H       1  UNL1        0.0256
     43 H          -3.3359    0.9497   -1.9800 H       1  UNL1        0.0256
     44 H          -3.5162   -0.8031   -1.8891 H       1  UNL1        0.0256
     45 H          -0.5624   -3.7397    0.0338 H       1  UNL1        0.1442
     46 H          -1.4693   -3.9684    1.5486 H       1  UNL1        0.1442
     47 H          -7.8836    0.3927   -1.2608 H       1  UNL1        0.0428
     48 H          -7.8701    1.0584    0.4632 H       1  UNL1        0.0428
     49 H          -8.7968   -0.4900    0.0114 H       1  UNL1        0.0428
     50 H          -7.4606   -2.6009   -0.0217 H       1  UNL1        0.0428
     51 H          -7.0327   -1.7779   -1.5921 H       1  UNL1        0.0428
     52 H          -5.7266   -2.4004   -0.6142 H       1  UNL1        0.0428
     53 H          -3.8022    0.8959    2.7038 H       1  UNL1        0.0287
     54 H          -2.6062   -0.5216    2.5140 H       1  UNL1        0.0287
     55 H          -3.7498    1.5276    0.3185 H       1  UNL1        0.0346
     56 H           0.3356   -0.3598    0.2321 H       1  UNL1        0.0628
     57 H           5.7503    1.5391    1.9906 H       1  UNL1        0.0853
@<TRIPOS>BOND
     1     1     2    3
     2     2     3    1
     3     3     4    1
     4     4     5    1
     5     5     6   ar
     6     6     7   ar
     7     7     8   ar
     8     8     9    1
     9     9    10    1
    10     9    11    2
    11    11    12    1
    12    12    13   ar
    13    13    14   ar
    14    14    15   ar
    15    15    16    1
    16    15    17   ar
    17    17    18    1
    18    18    19    1
    19    18    20    1
    20    20    21    2
    21    21    22    1
    22    21    23    1
    23    23    24    1
    24    24    25    1
    25    25    26    2
    26    25    27   am
    27    27    28    1
    28    27    29    1
    29    24    30    1
    30    30    31    1
    31    17    32   ar
    32     8    33   ar
    33    33    34   ar
    34    34     5   ar
    35    32    12   ar
    36    31    18    1
    37    31    24    1
    38     1    35    1
    39     3    36    1
    40     3    37    1
    41     6    38    1
    42    11    39    1
    43    13    40    1
    44    14    41    1
    45    19    42    1
    46    19    43    1
    47    19    44    1
    48    22    45    1
    49    22    46    1
    50    28    47    1
    51    28    48    1
    52    28    49    1
    53    29    50    1
    54    29    51    1
    55    29    52    1
    56    30    53    1
    57    30    54    1
    58    31    55    1
    59    32    56    1
    60    33    57    1
