@<TRIPOS>MOLECULE
*****
 36 39 0 0 0
SMALL
GASTEIGER

@<TRIPOS>ATOM
      1 CL          2.9213   -1.6020    1.8484 Cl      1  UNL1       -0.0816
      2 C           3.9053   -0.4892    0.9268 C.ar    1  UNL1        0.0621
      3 C           3.4128   -0.3320   -0.3497 C.ar    1  UNL1        0.0510
      4 N           2.3068   -0.8492   -1.0790 N.pl3   1  UNL1       -0.2966
      5 C           0.9536   -0.6816   -0.7364 C.ar    1  UNL1        0.1486
      6 N           0.5233    0.5771   -0.9605 N.ar    1  UNL1       -0.2359
      7 C          -0.7733    0.9095   -0.6959 C.ar    1  UNL1        0.0542
      8 C          -1.6732   -0.0411   -0.1927 C.ar    1  UNL1        0.0733
      9 N          -1.1906   -1.2751    0.0097 N.ar    1  UNL1       -0.2941
     10 C          -1.7877   -2.3833    0.4703 C.ar    1  UNL1        0.1010
     11 N          -0.9210   -3.3862    0.5030 N.ar    1  UNL1       -0.2430
     12 C           0.2654   -2.9467    0.0618 C.ar    1  UNL1        0.0565
     13 C           0.0748   -1.6196   -0.2425 C.ar    1  UNL1        0.1063
     14 C          -3.0052    0.4343    0.0398 C.ar    1  UNL1        0.0003
     15 C          -4.1941   -0.1652   -0.3128 C.ar    1  UNL1       -0.0526
     16 C          -5.4429    0.3645   -0.0597 C.ar    1  UNL1       -0.0611
     17 C          -5.5446    1.5796    0.5908 C.ar    1  UNL1       -0.0617
     18 C          -4.3774    2.2195    0.9643 C.ar    1  UNL1       -0.0611
     19 C          -3.1178    1.6700    0.7016 C.ar    1  UNL1       -0.0526
     20 C           4.0994    0.5352   -1.2207 C.ar    1  UNL1       -0.0391
     21 C           5.2446    1.2220   -0.8149 C.ar    1  UNL1       -0.0599
     22 C           5.6955    1.0308    0.4716 C.ar    1  UNL1       -0.0603
     23 C           5.0254    0.1873    1.3112 C.ar    1  UNL1       -0.0416
     24 H           2.4264   -1.4202   -1.9569 H       1  UNL1        0.1537
     25 H          -1.0959    1.9458   -0.8904 H       1  UNL1        0.0851
     26 H          -2.8437   -2.4184    0.7679 H       1  UNL1        0.1032
     27 H           1.2195   -3.4578   -0.0579 H       1  UNL1        0.0852
     28 H          -4.1044   -1.1201   -0.8211 H       1  UNL1        0.0624
     29 H          -6.3170   -0.1717   -0.3710 H       1  UNL1        0.0618
     30 H          -6.4741    2.0461    0.8161 H       1  UNL1        0.0618
     31 H          -4.4652    3.1895    1.4820 H       1  UNL1        0.0618
     32 H          -2.2813    2.2882    1.0563 H       1  UNL1        0.0624
     33 H           3.8724    0.7942   -2.2662 H       1  UNL1        0.0636
     34 H           5.8181    1.8929   -1.4132 H       1  UNL1        0.0618
     35 H           6.5592    1.5165    0.8537 H       1  UNL1        0.0618
     36 H           5.2853   -0.0440    2.3532 H       1  UNL1        0.0633
@<TRIPOS>BOND
     1     1     2    1
     2     2     3   ar
     3     3     4    1
     4     4     5    1
     5     5     6   ar
     6     6     7   ar
     7     7     8   ar
     8     8     9   ar
     9     9    10   ar
    10    10    11   ar
    11    11    12   ar
    12    12    13   ar
    13     8    14    1
    14    14    15   ar
    15    15    16   ar
    16    16    17   ar
    17    17    18   ar
    18    18    19   ar
    19     3    20   ar
    20    20    21   ar
    21    21    22   ar
    22    22    23   ar
    23    23     2   ar
    24    13     5   ar
    25    19    14   ar
    26    13     9   ar
    27     4    24    1
    28     7    25    1
    29    10    26    1
    30    12    27    1
    31    15    28    1
    32    16    29    1
    33    17    30    1
    34    18    31    1
    35    19    32    1
    36    20    33    1
    37    21    34    1
    38    22    35    1
    39    23    36    1
