
     RDKit          3D

 45 48  0  0  0  0  0  0  0  0999 V2000
   -8.4554   -4.6408   -1.5353 N   0  0  0  0  0  0  0  0  0  0  0  0
   -7.4812   -3.9837   -1.4099 C   0  0  0  0  0  0  0  0  0  0  0  0
   -6.3139   -3.1664   -1.2595 C   0  0  0  0  0  0  0  0  0  0  0  0
   -6.3783   -1.8729   -0.7755 C   0  0  0  0  0  0  0  0  0  0  0  0
   -5.2228   -1.1330   -0.6578 C   0  0  0  0  0  0  0  0  0  0  0  0
   -3.9772   -1.5990   -0.9951 C   0  0  0  0  0  0  0  0  0  0  0  0
   -2.7723   -0.8480   -0.8885 N   0  0  0  0  0  0  0  0  0  0  0  0
   -1.4495   -1.4262   -1.1188 C   0  0  0  0  0  0  0  0  0  0  0  0
   -0.6074   -0.6466   -0.1285 C   0  0  1  0  0  0  0  0  0  0  0  0
   -0.0019    0.5807   -0.7469 C   0  0  2  0  0  0  0  0  0  0  0  0
    1.2737    0.9709   -0.1380 N   0  0  0  0  0  0  0  0  0  0  0  0
    1.8564    2.0754   -0.8718 C   0  0  0  0  0  0  0  0  0  0  0  0
    3.1744    2.4019   -0.3468 C   0  0  0  0  0  0  0  0  0  0  0  0
    3.7718    3.3716   -0.9528 O   0  0  0  0  0  0  0  0  0  0  0  0
    3.8417    1.7874    0.7144 N   0  0  0  0  0  0  0  0  0  0  0  0
    3.4435    0.7234    1.6158 C   0  0  0  0  0  0  0  0  0  0  0  0
    4.7071    0.2811    2.3203 C   0  0  0  0  0  0  0  0  0  0  0  0
    4.7621   -1.0783    2.4819 F   0  0  0  0  0  0  0  0  0  0  0  0
    4.7963    0.9598    3.5210 F   0  0  0  0  0  0  0  0  0  0  0  0
    5.7937    0.8159    1.4180 C   0  0  0  0  0  0  0  0  0  0  0  0
    5.2247    2.1882    1.0779 C   0  0  1  0  0  0  0  0  0  0  0  0
    5.9151    2.6795   -0.1108 C   0  0  0  0  0  0  0  0  0  0  0  0
    6.4475    3.0801   -1.0298 N   0  0  0  0  0  0  0  0  0  0  0  0
   -1.2270    0.6685    0.0834 C   0  0  1  0  0  0  0  0  0  0  0  0
   -2.5658    0.5321   -0.5690 C   0  0  0  0  0  0  0  0  0  0  0  0
   -3.9403   -2.8779   -1.4696 N   0  0  0  0  0  0  0  0  0  0  0  0
   -5.0480   -3.6272   -1.5973 C   0  0  0  0  0  0  0  0  0  0  0  0
   -7.3522   -1.4937   -0.5040 H   0  0  0  0  0  0  0  0  0  0  0  0
   -5.2509   -0.0992   -0.2758 H   0  0  0  0  0  0  0  0  0  0  0  0
   -1.1186   -1.2604   -2.1656 H   0  0  0  0  0  0  0  0  0  0  0  0
   -1.3986   -2.4927   -0.8282 H   0  0  0  0  0  0  0  0  0  0  0  0
   -0.1423   -1.1552    0.7133 H   0  0  0  0  0  0  0  0  0  0  0  0
   -0.0674    0.7966   -1.8070 H   0  0  0  0  0  0  0  0  0  0  0  0
    1.0928    1.2612    0.8661 H   0  0  0  0  0  0  0  0  0  0  0  0
    1.1653    2.9440   -0.8963 H   0  0  0  0  0  0  0  0  0  0  0  0
    1.9795    1.7436   -1.9452 H   0  0  0  0  0  0  0  0  0  0  0  0
    3.0001   -0.1478    1.0757 H   0  0  0  0  0  0  0  0  0  0  0  0
    2.7626    1.0726    2.4237 H   0  0  0  0  0  0  0  0  0  0  0  0
    5.9044    0.2409    0.4799 H   0  0  0  0  0  0  0  0  0  0  0  0
    6.7666    0.9347    1.9500 H   0  0  0  0  0  0  0  0  0  0  0  0
    5.2731    2.8140    1.9524 H   0  0  0  0  0  0  0  0  0  0  0  0
   -1.1629    1.1804    1.0774 H   0  0  0  0  0  0  0  0  0  0  0  0
   -3.3503    0.8730    0.1576 H   0  0  0  0  0  0  0  0  0  0  0  0
   -2.6553    1.2221   -1.4347 H   0  0  0  0  0  0  0  0  0  0  0  0
   -5.0128   -4.6503   -1.9790 H   0  0  0  0  0  0  0  0  0  0  0  0
  1  2  3  0
  2  3  1  0
  3  4  2  0
  4  5  1  0
  5  6  2  0
  6  7  1  0
  7  8  1  0
  8  9  1  0
  9 10  1  0
 10 11  1  0
 11 12  1  0
 12 13  1  0
 13 14  2  0
 13 15  1  0
 15 16  1  0
 16 17  1  0
 17 18  1  0
 17 19  1  0
 17 20  1  0
 20 21  1  0
 21 22  1  0
 22 23  3  0
 10 24  1  0
 24 25  1  0
  6 26  1  0
 26 27  2  0
 27  3  1  0
 25  7  1  0
 24  9  1  0
 21 15  1  0
  4 28  1  0
  5 29  1  0
  8 30  1  0
  8 31  1  0
  9 32  1  1
 10 33  1  6
 11 34  1  0
 12 35  1  0
 12 36  1  0
 16 37  1  0
 16 38  1  0
 20 39  1  0
 20 40  1  0
 21 41  1  1
 24 42  1  1
 25 43  1  0
 25 44  1  0
 27 45  1  0
M  END
$$$$
