@<TRIPOS>MOLECULE
*****
 45 48 0 0 0
SMALL
GASTEIGER

@<TRIPOS>ATOM
      1 N          -8.4554   -4.6408   -1.5353 N.1     1  UNL1       -0.1908
      2 C          -7.4812   -3.9837   -1.4099 C.1     1  UNL1        0.1007
      3 C          -6.3139   -3.1664   -1.2595 C.ar    1  UNL1        0.0699
      4 C          -6.3783   -1.8729   -0.7755 C.ar    1  UNL1       -0.0396
      5 C          -5.2228   -1.1330   -0.6578 C.ar    1  UNL1       -0.0205
      6 C          -3.9772   -1.5990   -0.9951 C.ar    1  UNL1        0.1213
      7 N          -2.7723   -0.8480   -0.8885 N.pl3   1  UNL1       -0.3145
      8 C          -1.4495   -1.4262   -1.1188 C.3     1  UNL1        0.0181
      9 C          -0.6074   -0.6466   -0.1285 C.3     1  UNL1       -0.0038
     10 C          -0.0019    0.5807   -0.7469 C.3     1  UNL1        0.0173
     11 N           1.2737    0.9709   -0.1380 N.3     1  UNL1       -0.3048
     12 C           1.8564    2.0754   -0.8718 C.3     1  UNL1        0.0737
     13 C           3.1744    2.4019   -0.3468 C.2     1  UNL1        0.2306
     14 O           3.7718    3.3716   -0.9528 O.2     1  UNL1       -0.2742
     15 N           3.8417    1.7874    0.7144 N.am    1  UNL1       -0.2787
     16 C           3.4435    0.7234    1.6158 C.3     1  UNL1        0.0794
     17 C           4.7071    0.2811    2.3203 C.3     1  UNL1        0.2669
     18 F           4.7621   -1.0783    2.4819 F       1  UNL1       -0.2039
     19 F           4.7963    0.9598    3.5210 F       1  UNL1       -0.2039
     20 C           5.7937    0.8159    1.4180 C.3     1  UNL1        0.0442
     21 C           5.2247    2.1882    1.0779 C.3     1  UNL1        0.1186
     22 C           5.9151    2.6795   -0.1108 C.1     1  UNL1        0.0853
     23 N           6.4475    3.0801   -1.0298 N.1     1  UNL1       -0.1946
     24 C          -1.2270    0.6685    0.0834 C.3     1  UNL1       -0.0038
     25 C          -2.5658    0.5321   -0.5690 C.3     1  UNL1        0.0181
     26 N          -3.9403   -2.8779   -1.4696 N.ar    1  UNL1       -0.2390
     27 C          -5.0480   -3.6272   -1.5973 C.ar    1  UNL1        0.0470
     28 H          -7.3522   -1.4937   -0.5040 H       1  UNL1        0.0632
     29 H          -5.2509   -0.0992   -0.2758 H       1  UNL1        0.0652
     30 H          -1.1186   -1.2604   -2.1656 H       1  UNL1        0.0467
     31 H          -1.3986   -2.4927   -0.8282 H       1  UNL1        0.0467
     32 H          -0.1423   -1.1552    0.7133 H       1  UNL1        0.0335
     33 H          -0.0674    0.7966   -1.8070 H       1  UNL1        0.0467
     34 H           1.0928    1.2612    0.8661 H       1  UNL1        0.1227
     35 H           1.1653    2.9440   -0.8963 H       1  UNL1        0.0520
     36 H           1.9795    1.7436   -1.9452 H       1  UNL1        0.0520
     37 H           3.0001   -0.1478    1.0757 H       1  UNL1        0.0524
     38 H           2.7626    1.0726    2.4237 H       1  UNL1        0.0524
     39 H           5.9044    0.2409    0.4799 H       1  UNL1        0.0352
     40 H           6.7666    0.9347    1.9500 H       1  UNL1        0.0352
     41 H           5.2731    2.8140    1.9524 H       1  UNL1        0.0661
     42 H          -1.1629    1.1804    1.0774 H       1  UNL1        0.0335
     43 H          -3.3503    0.8730    0.1576 H       1  UNL1        0.0467
     44 H          -2.6553    1.2221   -1.4347 H       1  UNL1        0.0467
     45 H          -5.0128   -4.6503   -1.9790 H       1  UNL1        0.0843
@<TRIPOS>BOND
     1     1     2    3
     2     2     3    1
     3     3     4   ar
     4     4     5   ar
     5     5     6   ar
     6     6     7    1
     7     7     8    1
     8     8     9    1
     9     9    10    1
    10    10    11    1
    11    11    12    1
    12    12    13    1
    13    13    14    2
    14    13    15   am
    15    15    16    1
    16    16    17    1
    17    17    18    1
    18    17    19    1
    19    17    20    1
    20    20    21    1
    21    21    22    1
    22    22    23    3
    23    10    24    1
    24    24    25    1
    25     6    26   ar
    26    26    27   ar
    27    27     3   ar
    28    25     7    1
    29    24     9    1
    30    21    15    1
    31     4    28    1
    32     5    29    1
    33     8    30    1
    34     8    31    1
    35     9    32    1
    36    10    33    1
    37    11    34    1
    38    12    35    1
    39    12    36    1
    40    16    37    1
    41    16    38    1
    42    20    39    1
    43    20    40    1
    44    21    41    1
    45    24    42    1
    46    25    43    1
    47    25    44    1
    48    27    45    1
