
     RDKit          3D

 81 83  0  0  0  0  0  0  0  0999 V2000
    4.6254    3.2271    0.9887 N   0  0  0  0  0  0  0  0  0  0  0  0
    4.7398    1.9307    0.4443 C   0  0  0  0  0  0  0  0  0  0  0  0
    5.9603    2.1405    0.5280 O   0  0  0  0  0  0  0  0  0  0  0  0
    3.5935    1.1098    0.1037 C   0  0  0  0  0  0  0  0  0  0  0  0
    3.8816   -0.1274   -0.4092 C   0  0  0  0  0  0  0  0  0  0  0  0
    5.2253   -0.5173   -0.5612 O   0  0  0  0  0  0  0  0  0  0  0  0
    5.5520   -1.7707   -1.0785 C   0  0  0  0  0  0  0  0  0  0  0  0
    7.0179   -2.0589   -1.1823 C   0  0  0  0  0  0  0  0  0  0  0  0
    7.7562   -1.1035   -2.0551 C   0  0  0  0  0  0  0  0  0  0  0  0
    8.3739    0.0658   -1.3594 C   0  0  0  0  0  0  0  0  0  0  0  0
    9.0284   -0.3150   -0.0552 C   0  0  0  0  0  0  0  0  0  0  0  0
    7.9655   -0.9606    0.7970 C   0  0  0  0  0  0  0  0  0  0  0  0
    7.5926   -2.2793    0.1758 C   0  0  0  0  0  0  0  0  0  0  0  0
    2.7941   -0.9384   -0.7546 C   0  0  0  0  0  0  0  0  0  0  0  0
    1.5165   -0.4106   -0.5430 C   0  0  0  0  0  0  0  0  0  0  0  0
    1.2967    0.8530   -0.0175 C   0  0  0  0  0  0  0  0  0  0  0  0
    2.3486    1.6521    0.3216 C   0  0  0  0  0  0  0  0  0  0  0  0
   -0.0747    1.3558    0.2021 C   0  0  2  0  0  0  0  0  0  0  0  0
   -0.0482    2.5665    1.1588 C   0  0  0  0  0  0  0  0  0  0  0  0
   -0.9533    0.3361    0.7429 N   0  0  0  0  0  0  0  0  0  0  0  0
   -2.2621   -0.0852    0.3453 C   0  0  0  0  0  0  0  0  0  0  0  0
   -2.5632    0.6538   -0.6539 O   0  0  0  0  0  0  0  0  0  0  0  0
   -2.8755   -1.1806    1.1362 C   0  0  2  0  0  0  0  0  0  0  0  0
   -4.2057   -0.7868    1.7306 C   0  0  0  0  0  0  0  0  0  0  0  0
   -5.2069   -0.3965    0.7144 C   0  0  0  0  0  0  0  0  0  0  0  0
   -5.2426    0.9472    0.4097 C   0  0  0  0  0  0  0  0  0  0  0  0
   -6.1105    1.5100   -0.5123 C   0  0  0  0  0  0  0  0  0  0  0  0
   -7.0040    0.6549   -1.1718 C   0  0  0  0  0  0  0  0  0  0  0  0
   -7.8364    1.2743   -2.0714 O   0  0  0  0  0  0  0  0  0  0  0  0
   -8.8173    0.6802   -2.8597 C   0  0  0  0  0  0  0  0  0  0  0  0
   -9.8819    0.0007   -2.0479 C   0  0  0  0  0  0  0  0  0  0  0  0
  -10.8968   -0.6149   -2.8027 O   0  0  0  0  0  0  0  0  0  0  0  0
  -10.0446   -0.1276   -0.7926 O   0  0  0  0  0  0  0  0  0  0  0  0
   -6.9652   -0.6881   -0.8647 C   0  0  0  0  0  0  0  0  0  0  0  0
   -6.0967   -1.2174    0.0517 C   0  0  0  0  0  0  0  0  0  0  0  0
   -6.0987    3.2654   -0.8481 P   0  0  0  0  0  0  0  0  0  0  0  0
   -7.4942    4.0017   -0.2423 O   0  0  0  0  0  0  0  0  0  0  0  0
   -4.7805    3.9395   -0.0364 O   0  0  0  0  0  0  0  0  0  0  0  0
   -5.9658    3.5847   -2.3071 O   0  0  0  0  0  0  0  0  0  0  0  0
   -1.9649   -1.6857    2.1470 N   0  0  0  0  0  0  0  0  0  0  0  0
   -1.5091   -3.0393    2.0764 C   0  0  0  0  0  0  0  0  0  0  0  0
   -0.5880   -3.7632    2.9824 C   0  0  0  0  0  0  0  0  0  0  0  0
   -1.8624   -3.8451    1.1639 O   0  0  0  0  0  0  0  0  0  0  0  0
    4.5735    4.1723    1.3736 H   0  0  0  0  0  0  0  0  0  0  0  0
    4.0549    3.9416    1.4921 H   0  0  0  0  0  0  0  0  0  0  0  0
    5.0264   -2.5225   -0.4467 H   0  0  0  0  0  0  0  0  0  0  0  0
    5.0634   -1.8437   -2.0934 H   0  0  0  0  0  0  0  0  0  0  0  0
    7.0892   -3.0677   -1.7113 H   0  0  0  0  0  0  0  0  0  0  0  0
    8.5734   -1.6555   -2.6051 H   0  0  0  0  0  0  0  0  0  0  0  0
    7.0295   -0.7095   -2.8085 H   0  0  0  0  0  0  0  0  0  0  0  0
    7.7024    0.9279   -1.2161 H   0  0  0  0  0  0  0  0  0  0  0  0
    9.2176    0.4137   -2.0255 H   0  0  0  0  0  0  0  0  0  0  0  0
    9.8173   -1.0862   -0.2446 H   0  0  0  0  0  0  0  0  0  0  0  0
    9.4375    0.6142    0.3948 H   0  0  0  0  0  0  0  0  0  0  0  0
    7.0689   -0.3377    0.8389 H   0  0  0  0  0  0  0  0  0  0  0  0
    8.3028   -1.0777    1.8544 H   0  0  0  0  0  0  0  0  0  0  0  0
    8.5299   -2.8704    0.1038 H   0  0  0  0  0  0  0  0  0  0  0  0
    6.8368   -2.7656    0.8211 H   0  0  0  0  0  0  0  0  0  0  0  0
    2.9931   -1.9061   -1.1558 H   0  0  0  0  0  0  0  0  0  0  0  0
    0.6546   -1.0271   -0.8030 H   0  0  0  0  0  0  0  0  0  0  0  0
    2.2364    2.6453    0.7343 H   0  0  0  0  0  0  0  0  0  0  0  0
   -0.4553    1.7771   -0.7395 H   0  0  0  0  0  0  0  0  0  0  0  0
    0.6570    2.4091    1.9761 H   0  0  0  0  0  0  0  0  0  0  0  0
   -1.1024    2.6787    1.5026 H   0  0  0  0  0  0  0  0  0  0  0  0
    0.1899    3.4870    0.5939 H   0  0  0  0  0  0  0  0  0  0  0  0
   -0.4247   -0.0884    1.5623 H   0  0  0  0  0  0  0  0  0  0  0  0
   -3.0690   -2.0172    0.4440 H   0  0  0  0  0  0  0  0  0  0  0  0
   -4.6695   -1.6021    2.3126 H   0  0  0  0  0  0  0  0  0  0  0  0
   -4.0261    0.0442    2.4424 H   0  0  0  0  0  0  0  0  0  0  0  0
   -4.5722    1.6629    0.8980 H   0  0  0  0  0  0  0  0  0  0  0  0
   -9.3676    1.4334   -3.4674 H   0  0  0  0  0  0  0  0  0  0  0  0
   -8.3463   -0.1112   -3.4794 H   0  0  0  0  0  0  0  0  0  0  0  0
  -11.8169   -0.7944   -2.3773 H   0  0  0  0  0  0  0  0  0  0  0  0
   -7.6621   -1.3311   -1.3866 H   0  0  0  0  0  0  0  0  0  0  0  0
   -6.0456   -2.2655    0.3082 H   0  0  0  0  0  0  0  0  0  0  0  0
   -8.1256    3.2686   -0.0150 H   0  0  0  0  0  0  0  0  0  0  0  0
   -4.7267    4.9276   -0.1236 H   0  0  0  0  0  0  0  0  0  0  0  0
   -1.5601   -1.1870    2.9721 H   0  0  0  0  0  0  0  0  0  0  0  0
    0.2063   -4.3286    2.4171 H   0  0  0  0  0  0  0  0  0  0  0  0
   -0.0342   -3.1036    3.6831 H   0  0  0  0  0  0  0  0  0  0  0  0
   -1.1756   -4.5422    3.5101 H   0  0  0  0  0  0  0  0  0  0  0  0
  1  2  1  0
  2  3  2  0
  2  4  1  0
  4  5  2  0
  5  6  1  0
  6  7  1  0
  7  8  1  0
  8  9  1  0
  9 10  1  0
 10 11  1  0
 11 12  1  0
 12 13  1  0
  5 14  1  0
 14 15  2  0
 15 16  1  0
 16 17  2  0
 16 18  1  0
 18 19  1  0
 18 20  1  0
 20 21  1  0
 21 22  2  0
 21 23  1  0
 23 24  1  0
 24 25  1  0
 25 26  2  0
 26 27  1  0
 27 28  2  0
 28 29  1  0
 29 30  1  0
 30 31  1  0
 31 32  1  0
 31 33  2  0
 28 34  1  0
 34 35  2  0
 27 36  1  0
 36 37  1  0
 36 38  1  0
 36 39  2  0
 23 40  1  0
 40 41  1  0
 41 42  1  0
 41 43  2  0
 17  4  1  0
 35 25  1  0
 13  8  1  0
  1 44  1  0
  1 45  1  0
  7 46  1  0
  7 47  1  0
  8 48  1  0
  9 49  1  0
  9 50  1  0
 10 51  1  0
 10 52  1  0
 11 53  1  0
 11 54  1  0
 12 55  1  0
 12 56  1  0
 13 57  1  0
 13 58  1  0
 14 59  1  0
 15 60  1  0
 17 61  1  0
 18 62  1  6
 19 63  1  0
 19 64  1  0
 19 65  1  0
 20 66  1  0
 23 67  1  6
 24 68  1  0
 24 69  1  0
 26 70  1  0
 30 71  1  0
 30 72  1  0
 32 73  1  0
 34 74  1  0
 35 75  1  0
 37 76  1  0
 38 77  1  0
 40 78  1  0
 42 79  1  0
 42 80  1  0
 42 81  1  0
M  END
$$$$
