@<TRIPOS>MOLECULE
*****
 81 83 0 0 0
SMALL
GASTEIGER

@<TRIPOS>ATOM
      1 N           4.6254    3.2271    0.9887 N.am    1  UNL1       -0.3252
      2 C           4.7398    1.9307    0.4443 C.2     1  UNL1        0.2451
      3 O           5.9603    2.1405    0.5280 O.2     1  UNL1       -0.2703
      4 C           3.5935    1.1098    0.1037 C.ar    1  UNL1        0.0784
      5 C           3.8816   -0.1274   -0.4092 C.ar    1  UNL1        0.1326
      6 O           5.2253   -0.5173   -0.5612 O.3     1  UNL1       -0.4909
      7 C           5.5520   -1.7707   -1.0785 C.3     1  UNL1        0.0924
      8 C           7.0179   -2.0589   -1.1823 C.3     1  UNL1       -0.0068
      9 C           7.7562   -1.1035   -2.0551 C.3     1  UNL1       -0.0471
     10 C           8.3739    0.0658   -1.3594 C.3     1  UNL1       -0.0527
     11 C           9.0284   -0.3150   -0.0552 C.3     1  UNL1       -0.0530
     12 C           7.9655   -0.9606    0.7970 C.3     1  UNL1       -0.0527
     13 C           7.5926   -2.2793    0.1758 C.3     1  UNL1       -0.0471
     14 C           2.7941   -0.9384   -0.7546 C.ar    1  UNL1       -0.0189
     15 C           1.5165   -0.4106   -0.5430 C.ar    1  UNL1       -0.0533
     16 C           1.2967    0.8530   -0.0175 C.ar    1  UNL1       -0.0265
     17 C           2.3486    1.6521    0.3216 C.ar    1  UNL1       -0.0412
     18 C          -0.0747    1.3558    0.2021 C.3     1  UNL1        0.0456
     19 C          -0.0482    2.5665    1.1588 C.3     1  UNL1       -0.0425
     20 N          -0.9533    0.3361    0.7429 N.am    1  UNL1       -0.3072
     21 C          -2.2621   -0.0852    0.3453 C.2     1  UNL1        0.2341
     22 O          -2.5632    0.6538   -0.6539 O.2     1  UNL1       -0.2738
     23 C          -2.8755   -1.1806    1.1362 C.3     1  UNL1        0.1033
     24 C          -4.2057   -0.7868    1.7306 C.3     1  UNL1       -0.0006
     25 C          -5.2069   -0.3965    0.7144 C.ar    1  UNL1       -0.0441
     26 C          -5.2426    0.9472    0.4097 C.ar    1  UNL1       -0.0401
     27 C          -6.1105    1.5100   -0.5123 C.ar    1  UNL1        0.1051
     28 C          -7.0040    0.6549   -1.1718 C.ar    1  UNL1        0.1361
     29 O          -7.8364    1.2743   -2.0714 O.3     1  UNL1       -0.4799
     30 C          -8.8173    0.6802   -2.8597 C.3     1  UNL1        0.1857
     31 C          -9.8819    0.0007   -2.0479 C.2     1  UNL1        0.3427
     32 O         -10.8968   -0.6149   -2.8027 O.3     1  UNL1       -0.4783
     33 O         -10.0446   -0.1276   -0.7926 O.2     1  UNL1       -0.2472
     34 C          -6.9652   -0.6881   -0.8647 C.ar    1  UNL1       -0.0188
     35 C          -6.0967   -1.2174    0.0517 C.ar    1  UNL1       -0.0550
     36 P          -6.0987    3.2654   -0.8481 P.3     1  UNL1        0.3618
     37 O          -7.4942    4.0017   -0.2423 O.3     1  UNL1       -0.3207
     38 O          -4.7805    3.9395   -0.0364 O.3     1  UNL1       -0.3207
     39 O          -5.9658    3.5847   -2.3071 O.2     1  UNL1       -0.2533
     40 N          -1.9649   -1.6857    2.1470 N.am    1  UNL1       -0.3039
     41 C          -1.5091   -3.0393    2.0764 C.2     1  UNL1        0.2105
     42 C          -0.5880   -3.7632    2.9824 C.3     1  UNL1        0.0122
     43 O          -1.8624   -3.8451    1.1639 O.2     1  UNL1       -0.2761
     44 H           4.5735    4.1723    1.3736 H       1  UNL1        0.1453
     45 H           4.0549    3.9416    1.4921 H       1  UNL1        0.1453
     46 H           5.0264   -2.5225   -0.4467 H       1  UNL1        0.0699
     47 H           5.0634   -1.8437   -2.0934 H       1  UNL1        0.0699
     48 H           7.0892   -3.0677   -1.7113 H       1  UNL1        0.0334
     49 H           8.5734   -1.6555   -2.6051 H       1  UNL1        0.0269
     50 H           7.0295   -0.7095   -2.8085 H       1  UNL1        0.0269
     51 H           7.7024    0.9279   -1.2161 H       1  UNL1        0.0265
     52 H           9.2176    0.4137   -2.0255 H       1  UNL1        0.0265
     53 H           9.8173   -1.0862   -0.2446 H       1  UNL1        0.0265
     54 H           9.4375    0.6142    0.3948 H       1  UNL1        0.0265
     55 H           7.0689   -0.3377    0.8389 H       1  UNL1        0.0265
     56 H           8.3028   -1.0777    1.8544 H       1  UNL1        0.0265
     57 H           8.5299   -2.8704    0.1038 H       1  UNL1        0.0269
     58 H           6.8368   -2.7656    0.8211 H       1  UNL1        0.0269
     59 H           2.9931   -1.9061   -1.1558 H       1  UNL1        0.0654
     60 H           0.6546   -1.0271   -0.8030 H       1  UNL1        0.0622
     61 H           2.2364    2.6453    0.7343 H       1  UNL1        0.0629
     62 H          -0.4553    1.7771   -0.7395 H       1  UNL1        0.0545
     63 H           0.6570    2.4091    1.9761 H       1  UNL1        0.0251
     64 H          -1.1024    2.6787    1.5026 H       1  UNL1        0.0251
     65 H           0.1899    3.4870    0.5939 H       1  UNL1        0.0251
     66 H          -0.4247   -0.0884    1.5623 H       1  UNL1        0.1493
     67 H          -3.0690   -2.0172    0.4440 H       1  UNL1        0.0598
     68 H          -4.6695   -1.6021    2.3126 H       1  UNL1        0.0336
     69 H          -4.0261    0.0442    2.4424 H       1  UNL1        0.0336
     70 H          -4.5722    1.6629    0.8980 H       1  UNL1        0.0630
     71 H          -9.3676    1.4334   -3.4674 H       1  UNL1        0.0815
     72 H          -8.3463   -0.1112   -3.4794 H       1  UNL1        0.0815
     73 H         -11.8169   -0.7944   -2.3773 H       1  UNL1        0.2952
     74 H          -7.6621   -1.3311   -1.3866 H       1  UNL1        0.0654
     75 H          -6.0456   -2.2655    0.3082 H       1  UNL1        0.0621
     76 H          -8.1256    3.2686   -0.0150 H       1  UNL1        0.2201
     77 H          -4.7267    4.9276   -0.1236 H       1  UNL1        0.2201
     78 H          -1.5601   -1.1870    2.9721 H       1  UNL1        0.1495
     79 H           0.2063   -4.3286    2.4171 H       1  UNL1        0.0322
     80 H          -0.0342   -3.1036    3.6831 H       1  UNL1        0.0322
     81 H          -1.1756   -4.5422    3.5101 H       1  UNL1        0.0322
@<TRIPOS>BOND
     1     1     2   am
     2     2     3    2
     3     2     4    1
     4     4     5   ar
     5     5     6    1
     6     6     7    1
     7     7     8    1
     8     8     9    1
     9     9    10    1
    10    10    11    1
    11    11    12    1
    12    12    13    1
    13     5    14   ar
    14    14    15   ar
    15    15    16   ar
    16    16    17   ar
    17    16    18    1
    18    18    19    1
    19    18    20    1
    20    20    21   am
    21    21    22    2
    22    21    23    1
    23    23    24    1
    24    24    25    1
    25    25    26   ar
    26    26    27   ar
    27    27    28   ar
    28    28    29    1
    29    29    30    1
    30    30    31    1
    31    31    32    1
    32    31    33    2
    33    28    34   ar
    34    34    35   ar
    35    27    36    1
    36    36    37    1
    37    36    38    1
    38    36    39    2
    39    23    40    1
    40    40    41   am
    41    41    42    1
    42    41    43    2
    43    17     4   ar
    44    35    25   ar
    45    13     8    1
    46     1    44    1
    47     1    45    1
    48     7    46    1
    49     7    47    1
    50     8    48    1
    51     9    49    1
    52     9    50    1
    53    10    51    1
    54    10    52    1
    55    11    53    1
    56    11    54    1
    57    12    55    1
    58    12    56    1
    59    13    57    1
    60    13    58    1
    61    14    59    1
    62    15    60    1
    63    17    61    1
    64    18    62    1
    65    19    63    1
    66    19    64    1
    67    19    65    1
    68    20    66    1
    69    23    67    1
    70    24    68    1
    71    24    69    1
    72    26    70    1
    73    30    71    1
    74    30    72    1
    75    32    73    1
    76    34    74    1
    77    35    75    1
    78    37    76    1
    79    38    77    1
    80    40    78    1
    81    42    79    1
    82    42    80    1
    83    42    81    1
