@<TRIPOS>MOLECULE
*****
 40 43 0 0 0
SMALL
GASTEIGER

@<TRIPOS>ATOM
      1 C           5.9544    3.0681   -0.2427 C.3     1  UNL1       -0.0039
      2 C           5.3050    1.7544   -0.4483 C.ar    1  UNL1        0.1359
      3 N           5.8778    0.9762   -1.5832 N.ar    1  UNL1       -0.1939
      4 S           4.9243   -0.5128   -1.5786 S.2     1  UNL1        0.0369
      5 C           3.8864    0.0600   -0.0887 C.ar    1  UNL1        0.1652
      6 C           2.8377   -0.9088    0.3714 C.ar    1  UNL1        0.1910
      7 N           2.9747   -1.8215    1.3469 N.ar    1  UNL1       -0.1269
      8 N           1.8476   -2.5104    1.4813 N.ar    1  UNL1       -0.1320
      9 C           0.9588   -2.0404    0.5786 C.ar    1  UNL1        0.1542
     10 N           1.5931   -1.0620   -0.0845 N.ar    1  UNL1       -0.3062
     11 C           0.8504   -0.3739   -1.1212 C.3     1  UNL1        0.0423
     12 C          -0.5659   -0.0728   -0.6763 C.3     1  UNL1        0.0338
     13 N          -1.1815   -1.2164   -0.0515 N.am    1  UNL1       -0.2860
     14 C          -2.5687   -1.1290    0.2739 C.2     1  UNL1        0.2472
     15 O          -3.1867   -2.0885    0.8240 O.2     1  UNL1       -0.2700
     16 C          -3.3669    0.0528    0.0015 C.ar    1  UNL1        0.0370
     17 C          -3.3613    1.1446    0.8304 C.ar    1  UNL1       -0.0483
     18 C          -4.1539    2.2340    0.4966 C.ar    1  UNL1       -0.0427
     19 C          -4.9417    2.2558   -0.6318 C.ar    1  UNL1        0.0410
     20 CL         -5.9401    3.6617   -1.0263 Cl      1  UNL1       -0.0835
     21 C          -4.9423    1.1544   -1.4615 C.ar    1  UNL1       -0.0427
     22 C          -4.1524    0.0760   -1.1236 C.ar    1  UNL1       -0.0483
     23 C          -0.4344   -2.3852    0.2224 C.3     1  UNL1        0.0834
     24 C          -1.0433   -3.2529    1.3056 C.3     1  UNL1       -0.0393
     25 N           4.3636    1.0717    0.0892 N.ar    1  UNL1       -0.2199
     26 H           6.9727    2.8493    0.1743 H       1  UNL1        0.0308
     27 H           6.1239    3.6291   -1.1742 H       1  UNL1        0.0308
     28 H           5.3281    3.6046    0.4986 H       1  UNL1        0.0308
     29 H           1.3494    0.5970   -1.3011 H       1  UNL1        0.0508
     30 H           0.8518   -0.9285   -2.0768 H       1  UNL1        0.0508
     31 H          -0.5953    0.7652    0.0505 H       1  UNL1        0.0482
     32 H          -1.1245    0.2623   -1.5740 H       1  UNL1        0.0482
     33 H          -2.7448    1.1650    1.7443 H       1  UNL1        0.0625
     34 H          -4.1397    3.0947    1.1646 H       1  UNL1        0.0632
     35 H          -5.5452    1.1427   -2.3489 H       1  UNL1        0.0632
     36 H          -4.1981   -0.7673   -1.8233 H       1  UNL1        0.0625
     37 H          -0.4597   -3.0267   -0.7052 H       1  UNL1        0.0579
     38 H          -1.3821   -2.6771    2.1786 H       1  UNL1        0.0252
     39 H          -0.1953   -3.9045    1.6741 H       1  UNL1        0.0252
     40 H          -1.7758   -3.9406    0.8771 H       1  UNL1        0.0252
@<TRIPOS>BOND
     1     1     2    1
     2     2     3   ar
     3     3     4   ar
     4     4     5   ar
     5     5     6    1
     6     6     7   ar
     7     7     8   ar
     8     8     9   ar
     9     9    10   ar
    10    10    11    1
    11    11    12    1
    12    12    13    1
    13    13    14   am
    14    14    15    2
    15    14    16    1
    16    16    17   ar
    17    17    18   ar
    18    18    19   ar
    19    19    20    1
    20    19    21   ar
    21    21    22   ar
    22    13    23    1
    23    23    24    1
    24     5    25   ar
    25    25     2   ar
    26    10     6   ar
    27    22    16   ar
    28    23     9    1
    29     1    26    1
    30     1    27    1
    31     1    28    1
    32    11    29    1
    33    11    30    1
    34    12    31    1
    35    12    32    1
    36    17    33    1
    37    18    34    1
    38    21    35    1
    39    22    36    1
    40    23    37    1
    41    24    38    1
    42    24    39    1
    43    24    40    1
