@<TRIPOS>MOLECULE
*****
 59 63 0 0 0
SMALL
GASTEIGER

@<TRIPOS>ATOM
      1 C          -3.7494   -2.9918   -1.8748 C.3     1  UNL1       -0.0376
      2 C          -3.2552   -1.8086   -1.1503 C.ar    1  UNL1       -0.0222
      3 C          -4.0809   -0.7413   -0.9351 C.ar    1  UNL1       -0.0418
      4 C          -3.6483    0.4000   -0.2533 C.ar    1  UNL1        0.0673
      5 C          -4.5556    1.5214   -0.0415 C.2     1  UNL1        0.3127
      6 N          -5.7526    1.4655   -0.4921 N.2     1  UNL1       -0.0828
      7 C          -6.7004    2.5745   -0.3005 C.3     1  UNL1        0.1355
      8 C          -5.9277    3.8755   -0.5331 C.3     1  UNL1        0.0251
      9 C          -4.8682    3.9601    0.5319 C.3     1  UNL1        0.0819
     10 N          -4.1697    2.6947    0.6541 N.pl3   1  UNL1       -0.2334
     11 C          -2.3448    0.4000    0.1944 C.ar    1  UNL1       -0.0214
     12 C          -1.4894   -0.6495   -0.0022 C.ar    1  UNL1        0.0675
     13 N          -0.1805   -0.9194    0.3213 N.ar    1  UNL1       -0.3377
     14 C           0.1815   -2.1072   -0.1119 C.ar    1  UNL1        0.1463
     15 C           1.3871   -2.9283    0.0071 C.ar    1  UNL1        0.1022
     16 C           2.5668   -2.5252    0.5509 C.ar    1  UNL1        0.0446
     17 N           2.8457   -1.1661    0.7929 N.pl3   1  UNL1       -0.3403
     18 C           4.0976   -0.8029    1.4130 C.3     1  UNL1        0.0393
     19 C           4.2721    0.6624    1.6441 C.3     1  UNL1        0.0956
     20 O           3.3102    1.2227    2.4480 O.3     1  UNL1       -0.3856
     21 C           4.4789    1.4255    0.4067 C.ar    1  UNL1       -0.0163
     22 C           3.4148    1.9926   -0.2430 C.ar    1  UNL1       -0.0560
     23 C           3.5564    2.7173   -1.4263 C.ar    1  UNL1       -0.0600
     24 C           4.8028    2.8732   -1.9659 C.ar    1  UNL1       -0.0434
     25 C           5.8677    2.3158   -1.3310 C.ar    1  UNL1        0.0413
     26 CL          7.4718    2.5040   -2.0051 Cl      1  UNL1       -0.0835
     27 C           5.7310    1.6013   -0.1654 C.ar    1  UNL1       -0.0377
     28 C           3.5968   -3.4748    0.7545 C.ar    1  UNL1       -0.0239
     29 C           3.4188   -4.7831    0.4064 C.ar    1  UNL1        0.0067
     30 N           2.2640   -5.1848   -0.1334 N.ar    1  UNL1       -0.3284
     31 C           1.3125   -4.2928   -0.3154 C.ar    1  UNL1        0.2612
     32 O           0.2287   -4.7108   -0.8312 O.2     1  UNL1       -0.2671
     33 N          -0.9294   -2.5982   -0.7214 N.ar    1  UNL1       -0.2272
     34 C          -1.9534   -1.7475   -0.6746 C.ar    1  UNL1        0.0924
     35 H          -2.9147   -3.3443   -2.5268 H       1  UNL1        0.0278
     36 H          -3.9930   -3.7885   -1.1207 H       1  UNL1        0.0278
     37 H          -4.6541   -2.7515   -2.4610 H       1  UNL1        0.0278
     38 H          -5.1124   -0.7195   -1.2792 H       1  UNL1        0.0629
     39 H          -7.4302    2.4973   -1.1317 H       1  UNL1        0.0792
     40 H          -7.1556    2.5403    0.7000 H       1  UNL1        0.0792
     41 H          -5.4930    3.7988   -1.5448 H       1  UNL1        0.0341
     42 H          -6.6674    4.6987   -0.4311 H       1  UNL1        0.0341
     43 H          -4.1459    4.7774    0.2495 H       1  UNL1        0.0726
     44 H          -5.3421    4.2871    1.4725 H       1  UNL1        0.0726
     45 H          -3.3494    2.6686    1.2878 H       1  UNL1        0.2913
     46 H          -1.9729    1.2787    0.7324 H       1  UNL1        0.0647
     47 H           0.3560   -0.2493    0.8585 H       1  UNL1        0.1674
     48 H           2.2377   -0.4138    0.5164 H       1  UNL1        0.1462
     49 H           4.1993   -1.3303    2.3916 H       1  UNL1        0.0490
     50 H           4.9559   -1.1891    0.7914 H       1  UNL1        0.0490
     51 H           5.2495    0.8001    2.2241 H       1  UNL1        0.0659
     52 H           2.4479    0.8148    2.2253 H       1  UNL1        0.2103
     53 H           2.4013    1.8967    0.1646 H       1  UNL1        0.0621
     54 H           2.7004    3.1587   -1.9262 H       1  UNL1        0.0618
     55 H           4.9801    3.4317   -2.8939 H       1  UNL1        0.0632
     56 H           6.5576    1.1455    0.3641 H       1  UNL1        0.0636
     57 H           4.5212   -3.1158    1.1971 H       1  UNL1        0.0651
     58 H           4.2464   -5.4666    0.5869 H       1  UNL1        0.0808
     59 H           2.1781   -6.2000   -0.3835 H       1  UNL1        0.1683
@<TRIPOS>BOND
     1     1     2    1
     2     2     3   ar
     3     3     4   ar
     4     4     5    1
     5     5     6    2
     6     6     7    1
     7     7     8    1
     8     8     9    1
     9     9    10    1
    10     4    11   ar
    11    11    12   ar
    12    12    13   ar
    13    13    14   ar
    14    14    15    1
    15    15    16   ar
    16    16    17    1
    17    17    18    1
    18    18    19    1
    19    19    20    1
    20    19    21    1
    21    21    22   ar
    22    22    23   ar
    23    23    24   ar
    24    24    25   ar
    25    25    26    1
    26    25    27   ar
    27    16    28   ar
    28    28    29   ar
    29    29    30   ar
    30    30    31   ar
    31    31    32    2
    32    14    33   ar
    33    33    34   ar
    34    34     2   ar
    35    10     5    1
    36    34    12   ar
    37    31    15   ar
    38    27    21   ar
    39     1    35    1
    40     1    36    1
    41     1    37    1
    42     3    38    1
    43     7    39    1
    44     7    40    1
    45     8    41    1
    46     8    42    1
    47     9    43    1
    48     9    44    1
    49    10    45    1
    50    11    46    1
    51    13    47    1
    52    17    48    1
    53    18    49    1
    54    18    50    1
    55    19    51    1
    56    20    52    1
    57    22    53    1
    58    23    54    1
    59    24    55    1
    60    27    56    1
    61    28    57    1
    62    29    58    1
    63    30    59    1
