
     RDKit          3D

 59 63  0  0  0  0  0  0  0  0999 V2000
   -3.7494   -2.9918   -1.8748 C   0  0  0  0  0  0  0  0  0  0  0  0
   -3.2552   -1.8086   -1.1503 C   0  0  0  0  0  0  0  0  0  0  0  0
   -4.0809   -0.7413   -0.9351 C   0  0  0  0  0  0  0  0  0  0  0  0
   -3.6483    0.4000   -0.2533 C   0  0  0  0  0  0  0  0  0  0  0  0
   -4.5556    1.5214   -0.0415 C   0  0  0  0  0  0  0  0  0  0  0  0
   -5.7526    1.4655   -0.4921 N   0  0  0  0  0  0  0  0  0  0  0  0
   -6.7004    2.5745   -0.3005 C   0  0  0  0  0  0  0  0  0  0  0  0
   -5.9277    3.8755   -0.5331 C   0  0  0  0  0  0  0  0  0  0  0  0
   -4.8682    3.9601    0.5319 C   0  0  0  0  0  0  0  0  0  0  0  0
   -4.1697    2.6947    0.6541 N   0  0  0  0  0  0  0  0  0  0  0  0
   -2.3448    0.4000    0.1944 C   0  0  0  0  0  0  0  0  0  0  0  0
   -1.4894   -0.6495   -0.0022 C   0  0  0  0  0  0  0  0  0  0  0  0
   -0.1805   -0.9194    0.3213 N   0  0  0  0  0  0  0  0  0  0  0  0
    0.1815   -2.1072   -0.1119 C   0  0  0  0  0  0  0  0  0  0  0  0
    1.3871   -2.9283    0.0071 C   0  0  0  0  0  0  0  0  0  0  0  0
    2.5668   -2.5252    0.5509 C   0  0  0  0  0  0  0  0  0  0  0  0
    2.8457   -1.1661    0.7929 N   0  0  0  0  0  0  0  0  0  0  0  0
    4.0976   -0.8029    1.4130 C   0  0  0  0  0  0  0  0  0  0  0  0
    4.2721    0.6624    1.6441 C   0  0  0  0  0  0  0  0  0  0  0  0
    3.3102    1.2227    2.4480 O   0  0  0  0  0  0  0  0  0  0  0  0
    4.4789    1.4255    0.4067 C   0  0  0  0  0  0  0  0  0  0  0  0
    3.4148    1.9926   -0.2430 C   0  0  0  0  0  0  0  0  0  0  0  0
    3.5564    2.7173   -1.4263 C   0  0  0  0  0  0  0  0  0  0  0  0
    4.8028    2.8732   -1.9659 C   0  0  0  0  0  0  0  0  0  0  0  0
    5.8677    2.3158   -1.3310 C   0  0  0  0  0  0  0  0  0  0  0  0
    7.4718    2.5040   -2.0051 Cl  0  0  0  0  0  0  0  0  0  0  0  0
    5.7310    1.6013   -0.1654 C   0  0  0  0  0  0  0  0  0  0  0  0
    3.5968   -3.4748    0.7545 C   0  0  0  0  0  0  0  0  0  0  0  0
    3.4188   -4.7831    0.4064 C   0  0  0  0  0  0  0  0  0  0  0  0
    2.2640   -5.1848   -0.1334 N   0  0  0  0  0  0  0  0  0  0  0  0
    1.3125   -4.2928   -0.3154 C   0  0  0  0  0  0  0  0  0  0  0  0
    0.2287   -4.7108   -0.8312 O   0  0  0  0  0  0  0  0  0  0  0  0
   -0.9294   -2.5982   -0.7214 N   0  0  0  0  0  0  0  0  0  0  0  0
   -1.9534   -1.7475   -0.6746 C   0  0  0  0  0  0  0  0  0  0  0  0
   -2.9147   -3.3443   -2.5268 H   0  0  0  0  0  0  0  0  0  0  0  0
   -3.9930   -3.7885   -1.1207 H   0  0  0  0  0  0  0  0  0  0  0  0
   -4.6541   -2.7515   -2.4610 H   0  0  0  0  0  0  0  0  0  0  0  0
   -5.1124   -0.7195   -1.2792 H   0  0  0  0  0  0  0  0  0  0  0  0
   -7.4302    2.4973   -1.1317 H   0  0  0  0  0  0  0  0  0  0  0  0
   -7.1556    2.5403    0.7000 H   0  0  0  0  0  0  0  0  0  0  0  0
   -5.4930    3.7988   -1.5448 H   0  0  0  0  0  0  0  0  0  0  0  0
   -6.6674    4.6987   -0.4311 H   0  0  0  0  0  0  0  0  0  0  0  0
   -4.1459    4.7774    0.2495 H   0  0  0  0  0  0  0  0  0  0  0  0
   -5.3421    4.2871    1.4725 H   0  0  0  0  0  0  0  0  0  0  0  0
   -3.3494    2.6686    1.2878 H   0  0  0  0  0  0  0  0  0  0  0  0
   -1.9729    1.2787    0.7324 H   0  0  0  0  0  0  0  0  0  0  0  0
    0.3560   -0.2493    0.8585 H   0  0  0  0  0  0  0  0  0  0  0  0
    2.2377   -0.4138    0.5164 H   0  0  0  0  0  0  0  0  0  0  0  0
    4.1993   -1.3303    2.3916 H   0  0  0  0  0  0  0  0  0  0  0  0
    4.9559   -1.1891    0.7914 H   0  0  0  0  0  0  0  0  0  0  0  0
    5.2495    0.8001    2.2241 H   0  0  0  0  0  0  0  0  0  0  0  0
    2.4479    0.8148    2.2253 H   0  0  0  0  0  0  0  0  0  0  0  0
    2.4013    1.8967    0.1646 H   0  0  0  0  0  0  0  0  0  0  0  0
    2.7004    3.1587   -1.9262 H   0  0  0  0  0  0  0  0  0  0  0  0
    4.9801    3.4317   -2.8939 H   0  0  0  0  0  0  0  0  0  0  0  0
    6.5576    1.1455    0.3641 H   0  0  0  0  0  0  0  0  0  0  0  0
    4.5212   -3.1158    1.1971 H   0  0  0  0  0  0  0  0  0  0  0  0
    4.2464   -5.4666    0.5869 H   0  0  0  0  0  0  0  0  0  0  0  0
    2.1781   -6.2000   -0.3835 H   0  0  0  0  0  0  0  0  0  0  0  0
  1  2  1  0
  2  3  2  0
  3  4  1  0
  4  5  1  0
  5  6  2  0
  6  7  1  0
  7  8  1  0
  8  9  1  0
  9 10  1  0
  4 11  2  0
 11 12  1  0
 12 13  1  0
 13 14  1  0
 14 15  1  0
 15 16  2  0
 16 17  1  0
 17 18  1  0
 18 19  1  0
 19 20  1  0
 19 21  1  0
 21 22  2  0
 22 23  1  0
 23 24  2  0
 24 25  1  0
 25 26  1  0
 25 27  2  0
 16 28  1  0
 28 29  2  0
 29 30  1  0
 30 31  1  0
 31 32  2  0
 14 33  2  0
 33 34  1  0
 34  2  1  0
 10  5  1  0
 34 12  2  0
 31 15  1  0
 27 21  1  0
  1 35  1  0
  1 36  1  0
  1 37  1  0
  3 38  1  0
  7 39  1  0
  7 40  1  0
  8 41  1  0
  8 42  1  0
  9 43  1  0
  9 44  1  0
 10 45  1  0
 11 46  1  0
 13 47  1  0
 17 48  1  0
 18 49  1  0
 18 50  1  0
 19 51  1  0
 20 52  1  0
 22 53  1  0
 23 54  1  0
 24 55  1  0
 27 56  1  0
 28 57  1  0
 29 58  1  0
 30 59  1  0
M  END
$$$$
