
     RDKit          3D

 42 45  0  0  0  0  0  0  0  0999 V2000
    5.6373   -2.7567   -2.8130 N   0  0  0  0  0  0  0  0  0  0  0  0
    5.5459   -2.0260   -1.8936 C   0  0  0  0  0  0  0  0  0  0  0  0
    5.4135   -1.1276   -0.7826 C   0  0  0  0  0  0  0  0  0  0  0  0
    6.5300   -0.5994   -0.1416 C   0  0  0  0  0  0  0  0  0  0  0  0
    6.3766    0.2612    0.9231 C   0  0  0  0  0  0  0  0  0  0  0  0
    5.1223    0.6257    1.3864 C   0  0  0  0  0  0  0  0  0  0  0  0
    4.0031    0.1111    0.7622 C   0  0  0  0  0  0  0  0  0  0  0  0
    4.1739   -0.7494   -0.3025 C   0  0  0  0  0  0  0  0  0  0  0  0
    3.0267   -1.2630   -0.9250 O   0  0  0  0  0  0  0  0  0  0  0  0
    1.8536   -0.4411   -0.8175 C   0  0  0  0  0  0  0  0  0  0  0  0
    1.6330   -0.2085    0.6428 C   0  0  0  0  0  0  0  0  0  0  0  0
    0.3954    0.5443    0.9360 C   0  0  0  0  0  0  0  0  0  0  0  0
    0.1907    1.0089    2.2148 C   0  0  0  0  0  0  0  0  0  0  0  0
   -0.9099    1.7002    2.5523 N   0  0  0  0  0  0  0  0  0  0  0  0
   -1.8760    1.9795    1.6638 C   0  0  0  0  0  0  0  0  0  0  0  0
   -1.6756    1.5092    0.3564 C   0  0  0  0  0  0  0  0  0  0  0  0
   -2.7334    1.8267   -0.6211 C   0  0  0  0  0  0  0  0  0  0  0  0
   -3.8098    0.8797   -0.6583 N   0  0  0  0  0  0  0  0  0  0  0  0
   -3.7327   -0.3655   -1.2830 C   0  0  0  0  0  0  0  0  0  0  0  0
   -2.6692   -0.7041   -1.8574 O   0  0  0  0  0  0  0  0  0  0  0  0
   -4.8583   -1.3427   -1.3134 C   0  0  0  0  0  0  0  0  0  0  0  0
   -6.2581   -0.8453   -1.3670 C   0  0  0  0  0  0  0  0  0  0  0  0
   -5.7376   -1.4865   -0.0860 C   0  0  0  0  0  0  0  0  0  0  0  0
   -0.5793    0.8089   -0.0233 C   0  0  0  0  0  0  0  0  0  0  0  0
    2.7254    0.4764    1.2268 O   0  0  0  0  0  0  0  0  0  0  0  0
    7.5199   -0.8529   -0.4653 H   0  0  0  0  0  0  0  0  0  0  0  0
    7.2224    0.6945    1.4494 H   0  0  0  0  0  0  0  0  0  0  0  0
    4.9855    1.3023    2.2233 H   0  0  0  0  0  0  0  0  0  0  0  0
    2.0101    0.5083   -1.3784 H   0  0  0  0  0  0  0  0  0  0  0  0
    1.0235   -1.0400   -1.2155 H   0  0  0  0  0  0  0  0  0  0  0  0
    1.5654   -1.2293    1.1210 H   0  0  0  0  0  0  0  0  0  0  0  0
    0.9530    0.8031    2.9693 H   0  0  0  0  0  0  0  0  0  0  0  0
   -2.7745    2.5357    1.9093 H   0  0  0  0  0  0  0  0  0  0  0  0
   -2.2246    1.9163   -1.6249 H   0  0  0  0  0  0  0  0  0  0  0  0
   -3.1309    2.8576   -0.4020 H   0  0  0  0  0  0  0  0  0  0  0  0
   -4.7121    1.1393   -0.1858 H   0  0  0  0  0  0  0  0  0  0  0  0
   -4.6753   -2.2973   -1.8419 H   0  0  0  0  0  0  0  0  0  0  0  0
   -6.5151    0.2117   -1.2839 H   0  0  0  0  0  0  0  0  0  0  0  0
   -7.0269   -1.4640   -1.9052 H   0  0  0  0  0  0  0  0  0  0  0  0
   -5.5261   -0.8321    0.7885 H   0  0  0  0  0  0  0  0  0  0  0  0
   -6.1100   -2.5020    0.1852 H   0  0  0  0  0  0  0  0  0  0  0  0
   -0.3717    0.4328   -1.0011 H   0  0  0  0  0  0  0  0  0  0  0  0
  1  2  3  0
  2  3  1  0
  3  4  2  0
  4  5  1  0
  5  6  2  0
  6  7  1  0
  7  8  2  0
  8  9  1  0
  9 10  1  0
 10 11  1  0
 11 12  1  0
 12 13  2  0
 13 14  1  0
 14 15  2  0
 15 16  1  0
 16 17  1  0
 17 18  1  0
 18 19  1  0
 19 20  2  0
 19 21  1  0
 21 22  1  0
 22 23  1  0
 16 24  2  0
 11 25  1  0
  8  3  1  0
 24 12  1  0
 25  7  1  0
 23 21  1  0
  4 26  1  0
  5 27  1  0
  6 28  1  0
 10 29  1  0
 10 30  1  0
 11 31  1  0
 13 32  1  0
 15 33  1  0
 17 34  1  0
 17 35  1  0
 18 36  1  0
 21 37  1  0
 22 38  1  0
 22 39  1  0
 23 40  1  0
 23 41  1  0
 24 42  1  0
M  END
$$$$
