@<TRIPOS>MOLECULE
*****
 42 45 0 0 0
SMALL
GASTEIGER

@<TRIPOS>ATOM
      1 N           5.6373   -2.7567   -2.8130 N.1     1  UNL1       -0.1907
      2 C           5.5459   -2.0260   -1.8936 C.1     1  UNL1        0.1029
      3 C           5.4135   -1.1276   -0.7826 C.ar    1  UNL1        0.0969
      4 C           6.5300   -0.5994   -0.1416 C.ar    1  UNL1       -0.0406
      5 C           6.3766    0.2612    0.9231 C.ar    1  UNL1       -0.0569
      6 C           5.1223    0.6257    1.3864 C.ar    1  UNL1       -0.0162
      7 C           4.0031    0.1111    0.7622 C.ar    1  UNL1        0.1643
      8 C           4.1739   -0.7494   -0.3025 C.ar    1  UNL1        0.1794
      9 O           3.0267   -1.2630   -0.9250 O.3     1  UNL1       -0.4830
     10 C           1.8536   -0.4411   -0.8175 C.3     1  UNL1        0.1308
     11 C           1.6330   -0.2085    0.6428 C.3     1  UNL1        0.1605
     12 C           0.3954    0.5443    0.9360 C.ar    1  UNL1        0.0143
     13 C           0.1907    1.0089    2.2148 C.ar    1  UNL1        0.0344
     14 N          -0.9099    1.7002    2.5523 N.ar    1  UNL1       -0.2625
     15 C          -1.8760    1.9795    1.6638 C.ar    1  UNL1        0.0322
     16 C          -1.6756    1.5092    0.3564 C.ar    1  UNL1       -0.0119
     17 C          -2.7334    1.8267   -0.6211 C.3     1  UNL1        0.0383
     18 N          -3.8098    0.8797   -0.6583 N.am    1  UNL1       -0.3109
     19 C          -3.7327   -0.3655   -1.2830 C.2     1  UNL1        0.2164
     20 O          -2.6692   -0.7041   -1.8574 O.2     1  UNL1       -0.2755
     21 C          -4.8583   -1.3427   -1.3134 C.3     1  UNL1        0.0356
     22 C          -6.2581   -0.8453   -1.3670 C.3     1  UNL1       -0.0412
     23 C          -5.7376   -1.4865   -0.0860 C.3     1  UNL1       -0.0412
     24 C          -0.5793    0.8089   -0.0233 C.ar    1  UNL1       -0.0474
     25 O           2.7254    0.4764    1.2268 O.3     1  UNL1       -0.4771
     26 H           7.5199   -0.8529   -0.4653 H       1  UNL1        0.0632
     27 H           7.2224    0.6945    1.4494 H       1  UNL1        0.0619
     28 H           4.9855    1.3023    2.2233 H       1  UNL1        0.0655
     29 H           2.0101    0.5083   -1.3784 H       1  UNL1        0.0738
     30 H           1.0235   -1.0400   -1.2155 H       1  UNL1        0.0738
     31 H           1.5654   -1.2293    1.1210 H       1  UNL1        0.0820
     32 H           0.9530    0.8031    2.9693 H       1  UNL1        0.0833
     33 H          -2.7745    2.5357    1.9093 H       1  UNL1        0.0833
     34 H          -2.2246    1.9163   -1.6249 H       1  UNL1        0.0512
     35 H          -3.1309    2.8576   -0.4020 H       1  UNL1        0.0512
     36 H          -4.7121    1.1393   -0.1858 H       1  UNL1        0.1490
     37 H          -4.6753   -2.2973   -1.8419 H       1  UNL1        0.0394
     38 H          -6.5151    0.2117   -1.2839 H       1  UNL1        0.0273
     39 H          -7.0269   -1.4640   -1.9052 H       1  UNL1        0.0273
     40 H          -5.5261   -0.8321    0.7885 H       1  UNL1        0.0273
     41 H          -6.1100   -2.5020    0.1852 H       1  UNL1        0.0273
     42 H          -0.3717    0.4328   -1.0011 H       1  UNL1        0.0626
@<TRIPOS>BOND
     1     1     2    3
     2     2     3    1
     3     3     4   ar
     4     4     5   ar
     5     5     6   ar
     6     6     7   ar
     7     7     8   ar
     8     8     9    1
     9     9    10    1
    10    10    11    1
    11    11    12    1
    12    12    13   ar
    13    13    14   ar
    14    14    15   ar
    15    15    16   ar
    16    16    17    1
    17    17    18    1
    18    18    19   am
    19    19    20    2
    20    19    21    1
    21    21    22    1
    22    22    23    1
    23    16    24   ar
    24    11    25    1
    25     8     3   ar
    26    24    12   ar
    27    25     7    1
    28    23    21    1
    29     4    26    1
    30     5    27    1
    31     6    28    1
    32    10    29    1
    33    10    30    1
    34    11    31    1
    35    13    32    1
    36    15    33    1
    37    17    34    1
    38    17    35    1
    39    18    36    1
    40    21    37    1
    41    22    38    1
    42    22    39    1
    43    23    40    1
    44    23    41    1
    45    24    42    1
