
     RDKit          3D

 37 39  0  0  0  0  0  0  0  0999 V2000
   -3.6980    2.5164   -0.7439 C   0  0  0  0  0  0  0  0  0  0  0  0
   -2.9128    1.3965   -0.1522 C   0  0  0  0  0  0  0  0  0  0  0  0
   -1.9719    1.4395    0.8534 C   0  0  0  0  0  0  0  0  0  0  0  0
   -1.4861    0.1925    1.1007 N   0  0  0  0  0  0  0  0  0  0  0  0
   -0.4684   -0.0697    2.1165 C   0  0  0  0  0  0  0  0  0  0  0  0
    0.8516    0.0772    1.4440 C   0  0  0  0  0  0  0  0  0  0  0  0
    1.4670   -1.0068    0.8708 C   0  0  0  0  0  0  0  0  0  0  0  0
    2.7105   -0.8786    0.2336 C   0  0  0  0  0  0  0  0  0  0  0  0
    3.3613    0.3237    0.1552 C   0  0  0  0  0  0  0  0  0  0  0  0
    4.6521    0.5079   -0.4948 C   0  0  0  0  0  0  0  0  0  0  0  0
    5.2168    1.6359   -0.5439 O   0  0  0  0  0  0  0  0  0  0  0  0
    5.3332   -0.5741   -1.1025 N   0  0  0  0  0  0  0  0  0  0  0  0
    6.5467   -0.3439   -1.7008 O   0  0  0  0  0  0  0  0  0  0  0  0
    2.7206    1.4192    0.7446 C   0  0  0  0  0  0  0  0  0  0  0  0
    1.4997    1.3018    1.3721 C   0  0  0  0  0  0  0  0  0  0  0  0
   -2.0983   -0.6631    0.2693 C   0  0  0  0  0  0  0  0  0  0  0  0
   -1.9817   -2.0266    0.1024 C   0  0  0  0  0  0  0  0  0  0  0  0
   -2.7775   -2.6240   -0.8671 C   0  0  0  0  0  0  0  0  0  0  0  0
   -3.6596   -1.9234   -1.6514 C   0  0  0  0  0  0  0  0  0  0  0  0
   -3.7603   -0.5599   -1.4675 C   0  0  0  0  0  0  0  0  0  0  0  0
   -2.9837    0.0651   -0.5124 C   0  0  0  0  0  0  0  0  0  0  0  0
   -3.7895    2.3215   -1.8338 H   0  0  0  0  0  0  0  0  0  0  0  0
   -3.1048    3.4354   -0.6206 H   0  0  0  0  0  0  0  0  0  0  0  0
   -4.6623    2.5508   -0.2220 H   0  0  0  0  0  0  0  0  0  0  0  0
   -1.6783    2.3479    1.3590 H   0  0  0  0  0  0  0  0  0  0  0  0
   -0.5646    0.6868    2.9201 H   0  0  0  0  0  0  0  0  0  0  0  0
   -0.6331   -1.0782    2.5083 H   0  0  0  0  0  0  0  0  0  0  0  0
    1.0061   -1.9794    0.9004 H   0  0  0  0  0  0  0  0  0  0  0  0
    3.1768   -1.7581   -0.2138 H   0  0  0  0  0  0  0  0  0  0  0  0
    4.9453   -1.5340   -1.1103 H   0  0  0  0  0  0  0  0  0  0  0  0
    7.2232   -0.9885   -1.4046 H   0  0  0  0  0  0  0  0  0  0  0  0
    3.2262    2.3759    0.6888 H   0  0  0  0  0  0  0  0  0  0  0  0
    1.0094    2.1475    1.8247 H   0  0  0  0  0  0  0  0  0  0  0  0
   -1.2941   -2.5965    0.7108 H   0  0  0  0  0  0  0  0  0  0  0  0
   -2.6809   -3.6892   -0.9917 H   0  0  0  0  0  0  0  0  0  0  0  0
   -4.2792   -2.4213   -2.4133 H   0  0  0  0  0  0  0  0  0  0  0  0
   -4.4608   -0.0265   -2.0952 H   0  0  0  0  0  0  0  0  0  0  0  0
  1  2  1  0
  2  3  2  0
  3  4  1  0
  4  5  1  0
  5  6  1  0
  6  7  2  0
  7  8  1  0
  8  9  2  0
  9 10  1  0
 10 11  2  0
 10 12  1  0
 12 13  1  0
  9 14  1  0
 14 15  2  0
  4 16  1  0
 16 17  2  0
 17 18  1  0
 18 19  2  0
 19 20  1  0
 20 21  2  0
 21  2  1  0
 15  6  1  0
 21 16  1  0
  1 22  1  0
  1 23  1  0
  1 24  1  0
  3 25  1  0
  5 26  1  0
  5 27  1  0
  7 28  1  0
  8 29  1  0
 12 30  1  0
 13 31  1  0
 14 32  1  0
 15 33  1  0
 17 34  1  0
 18 35  1  0
 19 36  1  0
 20 37  1  0
M  END
$$$$
