@<TRIPOS>MOLECULE
*****
 37 39 0 0 0
SMALL
GASTEIGER

@<TRIPOS>ATOM
      1 C          -3.6980    2.5164   -0.7439 C.3     1  UNL1       -0.0377
      2 C          -2.9128    1.3965   -0.1522 C.ar    1  UNL1       -0.0252
      3 C          -1.9719    1.4395    0.8534 C.ar    1  UNL1        0.0090
      4 N          -1.4861    0.1925    1.1007 N.ar    1  UNL1       -0.3420
      5 C          -0.4684   -0.0697    2.1165 C.3     1  UNL1        0.0483
      6 C           0.8516    0.0772    1.4440 C.ar    1  UNL1       -0.0277
      7 C           1.4670   -1.0068    0.8708 C.ar    1  UNL1       -0.0562
      8 C           2.7105   -0.8786    0.2336 C.ar    1  UNL1       -0.0493
      9 C           3.3613    0.3237    0.1552 C.ar    1  UNL1        0.0387
     10 C           4.6521    0.5079   -0.4948 C.2     1  UNL1        0.2665
     11 O           5.2168    1.6359   -0.5439 O.2     1  UNL1       -0.2681
     12 N           5.3332   -0.5741   -1.1025 N.am    1  UNL1       -0.1935
     13 O           6.5467   -0.3439   -1.7008 O.3     1  UNL1       -0.2949
     14 C           2.7206    1.4192    0.7446 C.ar    1  UNL1       -0.0493
     15 C           1.4997    1.3018    1.3721 C.ar    1  UNL1       -0.0562
     16 C          -2.0983   -0.6631    0.2693 C.ar    1  UNL1        0.0496
     17 C          -1.9817   -2.0266    0.1024 C.ar    1  UNL1       -0.0376
     18 C          -2.7775   -2.6240   -0.8671 C.ar    1  UNL1       -0.0598
     19 C          -3.6596   -1.9234   -1.6514 C.ar    1  UNL1       -0.0611
     20 C          -3.7603   -0.5599   -1.4675 C.ar    1  UNL1       -0.0523
     21 C          -2.9837    0.0651   -0.5124 C.ar    1  UNL1        0.0028
     22 H          -3.7895    2.3215   -1.8338 H       1  UNL1        0.0278
     23 H          -3.1048    3.4354   -0.6206 H       1  UNL1        0.0278
     24 H          -4.6623    2.5508   -0.2220 H       1  UNL1        0.0278
     25 H          -1.6783    2.3479    1.3590 H       1  UNL1        0.0812
     26 H          -0.5646    0.6868    2.9201 H       1  UNL1        0.0541
     27 H          -0.6331   -1.0782    2.5083 H       1  UNL1        0.0541
     28 H           1.0061   -1.9794    0.9004 H       1  UNL1        0.0621
     29 H           3.1768   -1.7581   -0.2138 H       1  UNL1        0.0625
     30 H           4.9453   -1.5340   -1.1103 H       1  UNL1        0.1825
     31 H           7.2232   -0.9885   -1.4046 H       1  UNL1        0.2414
     32 H           3.2262    2.3759    0.6888 H       1  UNL1        0.0625
     33 H           1.0094    2.1475    1.8247 H       1  UNL1        0.0621
     34 H          -1.2941   -2.5965    0.7108 H       1  UNL1        0.0638
     35 H          -2.6809   -3.6892   -0.9917 H       1  UNL1        0.0618
     36 H          -4.2792   -2.4213   -2.4133 H       1  UNL1        0.0618
     37 H          -4.4608   -0.0265   -2.0952 H       1  UNL1        0.0624
@<TRIPOS>BOND
     1     1     2    1
     2     2     3   ar
     3     3     4   ar
     4     4     5    1
     5     5     6    1
     6     6     7   ar
     7     7     8   ar
     8     8     9   ar
     9     9    10    1
    10    10    11    2
    11    10    12   am
    12    12    13    1
    13     9    14   ar
    14    14    15   ar
    15     4    16   ar
    16    16    17   ar
    17    17    18   ar
    18    18    19   ar
    19    19    20   ar
    20    20    21   ar
    21    21     2   ar
    22    15     6   ar
    23    21    16   ar
    24     1    22    1
    25     1    23    1
    26     1    24    1
    27     3    25    1
    28     5    26    1
    29     5    27    1
    30     7    28    1
    31     8    29    1
    32    12    30    1
    33    13    31    1
    34    14    32    1
    35    15    33    1
    36    17    34    1
    37    18    35    1
    38    19    36    1
    39    20    37    1
