@<TRIPOS>MOLECULE
*****
 35 35 0 0 0
SMALL
GASTEIGER

@<TRIPOS>ATOM
      1 C           6.3231    1.1401   -0.3074 C.3     1  UNL1       -0.0009
      2 N           5.4455    0.2871    0.4378 N.3     1  UNL1       -0.2594
      3 N           4.1074    0.3878    0.1141 N.3     1  UNL1       -0.2525
      4 C           3.4228   -0.8656    0.4499 C.3     1  UNL1        0.0357
      5 C           1.9816   -0.7514    0.0997 C.ar    1  UNL1       -0.0322
      6 C           1.1191   -0.2755    1.0577 C.ar    1  UNL1       -0.0566
      7 C          -0.2312   -0.1391    0.8138 C.ar    1  UNL1       -0.0493
      8 C          -0.7576   -0.4783   -0.4054 C.ar    1  UNL1        0.0367
      9 C           0.1228   -0.9622   -1.3778 C.ar    1  UNL1       -0.0493
     10 C           1.4852   -1.1058   -1.1488 C.ar    1  UNL1       -0.0566
     11 C          -2.1623   -0.3825   -0.7909 C.2     1  UNL1        0.2443
     12 O          -2.5933   -0.7136   -1.9423 O.2     1  UNL1       -0.2702
     13 N          -3.1246    0.0936    0.1210 N.am    1  UNL1       -0.3090
     14 C          -4.5600    0.2373   -0.1418 C.3     1  UNL1        0.0178
     15 C          -5.2428   -0.7562    0.7828 C.3     1  UNL1       -0.0469
     16 C          -5.0244    1.6500    0.1147 C.3     1  UNL1       -0.0469
     17 H           7.1676    1.5558    0.2943 H       1  UNL1        0.0402
     18 H           6.7769    0.5902   -1.1740 H       1  UNL1        0.0402
     19 H           5.8086    2.0446   -0.7152 H       1  UNL1        0.0402
     20 H           5.7808   -0.6941    0.4108 H       1  UNL1        0.1402
     21 H           3.6133    1.1976    0.4963 H       1  UNL1        0.1409
     22 H           3.5139   -1.0117    1.5364 H       1  UNL1        0.0487
     23 H           3.8630   -1.7102   -0.1179 H       1  UNL1        0.0487
     24 H           1.4433    0.0189    2.0536 H       1  UNL1        0.0621
     25 H          -0.9284    0.2369    1.5631 H       1  UNL1        0.0625
     26 H          -0.2656   -1.2441   -2.3679 H       1  UNL1        0.0625
     27 H           2.1569   -1.4810   -1.9079 H       1  UNL1        0.0621
     28 H          -2.9061    0.3944    1.0853 H       1  UNL1        0.1493
     29 H          -4.8284   -0.0776   -1.1687 H       1  UNL1        0.0493
     30 H          -6.2361   -1.0688    0.4146 H       1  UNL1        0.0247
     31 H          -5.2662   -0.3928    1.8308 H       1  UNL1        0.0247
     32 H          -4.6232   -1.6865    0.7925 H       1  UNL1        0.0247
     33 H          -6.0421    1.6288    0.5755 H       1  UNL1        0.0247
     34 H          -4.2678    2.1544    0.7217 H       1  UNL1        0.0247
     35 H          -5.0718    2.1795   -0.8721 H       1  UNL1        0.0247
@<TRIPOS>BOND
     1     1     2    1
     2     2     3    1
     3     3     4    1
     4     4     5    1
     5     5     6   ar
     6     6     7   ar
     7     7     8   ar
     8     8     9   ar
     9     9    10   ar
    10     8    11    1
    11    11    12    2
    12    11    13   am
    13    13    14    1
    14    14    15    1
    15    14    16    1
    16    10     5   ar
    17     1    17    1
    18     1    18    1
    19     1    19    1
    20     2    20    1
    21     3    21    1
    22     4    22    1
    23     4    23    1
    24     6    24    1
    25     7    25    1
    26     9    26    1
    27    10    27    1
    28    13    28    1
    29    14    29    1
    30    15    30    1
    31    15    31    1
    32    15    32    1
    33    16    33    1
    34    16    34    1
    35    16    35    1
