
     RDKit          3D

 35 35  0  0  0  0  0  0  0  0999 V2000
    6.3231    1.1401   -0.3074 C   0  0  0  0  0  0  0  0  0  0  0  0
    5.4455    0.2871    0.4378 N   0  0  0  0  0  0  0  0  0  0  0  0
    4.1074    0.3878    0.1141 N   0  0  0  0  0  0  0  0  0  0  0  0
    3.4228   -0.8656    0.4499 C   0  0  0  0  0  0  0  0  0  0  0  0
    1.9816   -0.7514    0.0997 C   0  0  0  0  0  0  0  0  0  0  0  0
    1.1191   -0.2755    1.0577 C   0  0  0  0  0  0  0  0  0  0  0  0
   -0.2312   -0.1391    0.8138 C   0  0  0  0  0  0  0  0  0  0  0  0
   -0.7576   -0.4783   -0.4054 C   0  0  0  0  0  0  0  0  0  0  0  0
    0.1228   -0.9622   -1.3778 C   0  0  0  0  0  0  0  0  0  0  0  0
    1.4852   -1.1058   -1.1488 C   0  0  0  0  0  0  0  0  0  0  0  0
   -2.1623   -0.3825   -0.7909 C   0  0  0  0  0  0  0  0  0  0  0  0
   -2.5933   -0.7136   -1.9423 O   0  0  0  0  0  0  0  0  0  0  0  0
   -3.1246    0.0936    0.1210 N   0  0  0  0  0  0  0  0  0  0  0  0
   -4.5600    0.2373   -0.1418 C   0  0  0  0  0  0  0  0  0  0  0  0
   -5.2428   -0.7562    0.7828 C   0  0  0  0  0  0  0  0  0  0  0  0
   -5.0244    1.6500    0.1147 C   0  0  0  0  0  0  0  0  0  0  0  0
    7.1676    1.5558    0.2943 H   0  0  0  0  0  0  0  0  0  0  0  0
    6.7769    0.5902   -1.1740 H   0  0  0  0  0  0  0  0  0  0  0  0
    5.8086    2.0446   -0.7152 H   0  0  0  0  0  0  0  0  0  0  0  0
    5.7808   -0.6941    0.4108 H   0  0  0  0  0  0  0  0  0  0  0  0
    3.6133    1.1976    0.4963 H   0  0  0  0  0  0  0  0  0  0  0  0
    3.5139   -1.0117    1.5364 H   0  0  0  0  0  0  0  0  0  0  0  0
    3.8630   -1.7102   -0.1179 H   0  0  0  0  0  0  0  0  0  0  0  0
    1.4433    0.0189    2.0536 H   0  0  0  0  0  0  0  0  0  0  0  0
   -0.9284    0.2369    1.5631 H   0  0  0  0  0  0  0  0  0  0  0  0
   -0.2656   -1.2441   -2.3679 H   0  0  0  0  0  0  0  0  0  0  0  0
    2.1569   -1.4810   -1.9079 H   0  0  0  0  0  0  0  0  0  0  0  0
   -2.9061    0.3944    1.0853 H   0  0  0  0  0  0  0  0  0  0  0  0
   -4.8284   -0.0776   -1.1687 H   0  0  0  0  0  0  0  0  0  0  0  0
   -6.2361   -1.0688    0.4146 H   0  0  0  0  0  0  0  0  0  0  0  0
   -5.2662   -0.3928    1.8308 H   0  0  0  0  0  0  0  0  0  0  0  0
   -4.6232   -1.6865    0.7925 H   0  0  0  0  0  0  0  0  0  0  0  0
   -6.0421    1.6288    0.5755 H   0  0  0  0  0  0  0  0  0  0  0  0
   -4.2678    2.1544    0.7217 H   0  0  0  0  0  0  0  0  0  0  0  0
   -5.0718    2.1795   -0.8721 H   0  0  0  0  0  0  0  0  0  0  0  0
  1  2  1  0
  2  3  1  0
  3  4  1  0
  4  5  1  0
  5  6  2  0
  6  7  1  0
  7  8  2  0
  8  9  1  0
  9 10  2  0
  8 11  1  0
 11 12  2  0
 11 13  1  0
 13 14  1  0
 14 15  1  0
 14 16  1  0
 10  5  1  0
  1 17  1  0
  1 18  1  0
  1 19  1  0
  2 20  1  0
  3 21  1  0
  4 22  1  0
  4 23  1  0
  6 24  1  0
  7 25  1  0
  9 26  1  0
 10 27  1  0
 13 28  1  0
 14 29  1  0
 15 30  1  0
 15 31  1  0
 15 32  1  0
 16 33  1  0
 16 34  1  0
 16 35  1  0
M  END
$$$$
