@<TRIPOS>MOLECULE
*****
 55 58 0 0 0
SMALL
GASTEIGER

@<TRIPOS>ATOM
      1 O           1.2138   -3.4149   -3.8679 O.2     1  UNL1       -0.2733
      2 C           0.9508   -2.7297   -2.8165 C.2     1  UNL1        0.2418
      3 N           0.5419   -3.5026   -1.7068 N.am    1  UNL1       -0.1972
      4 O           0.4549   -4.8632   -1.7872 O.3     1  UNL1       -0.2952
      5 C           1.0815   -1.2751   -2.8363 C.3     1  UNL1        0.0730
      6 C           2.1949   -0.6878   -2.0505 C.3     1  UNL1       -0.0210
      7 C           2.2134   -0.9545   -0.5876 C.3     1  UNL1        0.0388
      8 N           3.3779   -0.2486   -0.0375 N.am    1  UNL1       -0.1677
      9 C           3.4623    1.0611    0.4476 C.2     1  UNL1        0.2675
     10 O           2.4308    1.8264    0.4457 O.2     1  UNL1       -0.2683
     11 C           4.7630    1.4615    0.9325 C.ar    1  UNL1        0.0650
     12 C           5.1648    2.6785    1.4728 C.ar    1  UNL1       -0.0477
     13 C           6.4449    2.9103    1.8963 C.ar    1  UNL1       -0.0609
     14 C           7.3903    1.9279    1.7986 C.ar    1  UNL1       -0.0599
     15 C           7.0014    0.6975    1.2569 C.ar    1  UNL1       -0.0343
     16 C           5.7156    0.4798    0.8367 C.ar    1  UNL1        0.1209
     17 S           4.9532   -0.9214    0.1306 S.O2    1  UNL1        0.0778
     18 O           5.5832   -1.2151   -1.1967 O.2     1  UNL1       -0.1497
     19 O           4.9661   -2.1039    1.0455 O.2     1  UNL1       -0.1497
     20 C          -0.2599   -0.6143   -2.5026 C.3     1  UNL1        0.1008
     21 O          -0.7071   -0.9919   -1.2352 O.3     1  UNL1       -0.4912
     22 C          -1.8876   -0.5532   -0.6623 C.ar    1  UNL1        0.1206
     23 C          -2.2476   -0.9839    0.6034 C.ar    1  UNL1       -0.0194
     24 C          -3.4153   -0.5682    1.2061 C.ar    1  UNL1       -0.0506
     25 C          -4.2431    0.2975    0.5297 C.ar    1  UNL1       -0.0177
     26 C          -5.4687    0.7233    1.1835 C.ar    1  UNL1       -0.0179
     27 C          -5.4754    0.8401    2.5477 C.ar    1  UNL1       -0.0540
     28 C          -6.6288    1.2415    3.1760 C.ar    1  UNL1       -0.0612
     29 C          -7.7519    1.5186    2.4356 C.ar    1  UNL1       -0.0617
     30 C          -7.7149    1.3906    1.0473 C.ar    1  UNL1       -0.0612
     31 C          -6.5661    0.9885    0.3944 C.ar    1  UNL1       -0.0540
     32 C          -3.9074    0.7440   -0.7374 C.ar    1  UNL1       -0.0506
     33 C          -2.7329    0.3127   -1.3179 C.ar    1  UNL1       -0.0194
     34 H           0.2863   -3.0597   -0.8117 H       1  UNL1        0.1822
     35 H          -0.3823   -5.1047   -1.3096 H       1  UNL1        0.2414
     36 H           1.2607   -0.9689   -3.9112 H       1  UNL1        0.0429
     37 H           2.2339    0.4375   -2.1582 H       1  UNL1        0.0289
     38 H           3.1655   -1.0194   -2.5260 H       1  UNL1        0.0289
     39 H           2.3356   -2.0579   -0.4083 H       1  UNL1        0.0483
     40 H           1.3150   -0.6363   -0.0507 H       1  UNL1        0.0483
     41 H           4.4540    3.4940    1.5737 H       1  UNL1        0.0626
     42 H           6.7416    3.8855    2.3226 H       1  UNL1        0.0618
     43 H           8.4044    2.0693    2.1195 H       1  UNL1        0.0618
     44 H           7.7583   -0.0723    1.1846 H       1  UNL1        0.0637
     45 H          -1.0122   -0.9710   -3.2469 H       1  UNL1        0.0704
     46 H          -0.1831    0.4756   -2.6352 H       1  UNL1        0.0704
     47 H          -1.5583   -1.6664    1.0929 H       1  UNL1        0.0654
     48 H          -3.6508   -0.9356    2.2006 H       1  UNL1        0.0625
     49 H          -4.5864    0.6202    3.1305 H       1  UNL1        0.0624
     50 H          -6.6031    1.3236    4.2497 H       1  UNL1        0.0618
     51 H          -8.6639    1.8353    2.9220 H       1  UNL1        0.0618
     52 H          -8.5924    1.6055    0.4513 H       1  UNL1        0.0618
     53 H          -6.5181    0.8834   -0.6832 H       1  UNL1        0.0624
     54 H          -4.5939    1.4342   -1.2439 H       1  UNL1        0.0625
     55 H          -2.5092    0.6855   -2.3072 H       1  UNL1        0.0654
@<TRIPOS>BOND
     1     1     2    2
     2     2     3   am
     3     3     4    1
     4     2     5    1
     5     5     6    1
     6     6     7    1
     7     7     8    1
     8     8     9   am
     9     9    10    2
    10     9    11    1
    11    11    12   ar
    12    12    13   ar
    13    13    14   ar
    14    14    15   ar
    15    15    16   ar
    16    16    17    1
    17    17    18    2
    18    17    19    2
    19     5    20    1
    20    20    21    1
    21    21    22    1
    22    22    23   ar
    23    23    24   ar
    24    24    25   ar
    25    25    26    1
    26    26    27   ar
    27    27    28   ar
    28    28    29   ar
    29    29    30   ar
    30    30    31   ar
    31    25    32   ar
    32    32    33   ar
    33    17     8    1
    34    33    22   ar
    35    16    11   ar
    36    31    26   ar
    37     3    34    1
    38     4    35    1
    39     5    36    1
    40     6    37    1
    41     6    38    1
    42     7    39    1
    43     7    40    1
    44    12    41    1
    45    13    42    1
    46    14    43    1
    47    15    44    1
    48    20    45    1
    49    20    46    1
    50    23    47    1
    51    24    48    1
    52    27    49    1
    53    28    50    1
    54    29    51    1
    55    30    52    1
    56    31    53    1
    57    32    54    1
    58    33    55    1
