
     RDKit          3D

 55 58  0  0  0  0  0  0  0  0999 V2000
    1.2138   -3.4149   -3.8679 O   0  0  0  0  0  0  0  0  0  0  0  0
    0.9508   -2.7297   -2.8165 C   0  0  0  0  0  0  0  0  0  0  0  0
    0.5419   -3.5026   -1.7068 N   0  0  0  0  0  0  0  0  0  0  0  0
    0.4549   -4.8632   -1.7872 O   0  0  0  0  0  0  0  0  0  0  0  0
    1.0815   -1.2751   -2.8363 C   0  0  0  0  0  0  0  0  0  0  0  0
    2.1949   -0.6878   -2.0505 C   0  0  0  0  0  0  0  0  0  0  0  0
    2.2134   -0.9545   -0.5876 C   0  0  0  0  0  0  0  0  0  0  0  0
    3.3779   -0.2486   -0.0375 N   0  0  0  0  0  0  0  0  0  0  0  0
    3.4623    1.0611    0.4476 C   0  0  0  0  0  0  0  0  0  0  0  0
    2.4308    1.8264    0.4457 O   0  0  0  0  0  0  0  0  0  0  0  0
    4.7630    1.4615    0.9325 C   0  0  0  0  0  0  0  0  0  0  0  0
    5.1648    2.6785    1.4728 C   0  0  0  0  0  0  0  0  0  0  0  0
    6.4449    2.9103    1.8963 C   0  0  0  0  0  0  0  0  0  0  0  0
    7.3903    1.9279    1.7986 C   0  0  0  0  0  0  0  0  0  0  0  0
    7.0014    0.6975    1.2569 C   0  0  0  0  0  0  0  0  0  0  0  0
    5.7156    0.4798    0.8367 C   0  0  0  0  0  0  0  0  0  0  0  0
    4.9532   -0.9214    0.1306 S   0  0  0  0  0  6  0  0  0  0  0  0
    5.5832   -1.2151   -1.1967 O   0  0  0  0  0  0  0  0  0  0  0  0
    4.9661   -2.1039    1.0455 O   0  0  0  0  0  0  0  0  0  0  0  0
   -0.2599   -0.6143   -2.5026 C   0  0  0  0  0  0  0  0  0  0  0  0
   -0.7071   -0.9919   -1.2352 O   0  0  0  0  0  0  0  0  0  0  0  0
   -1.8876   -0.5532   -0.6623 C   0  0  0  0  0  0  0  0  0  0  0  0
   -2.2476   -0.9839    0.6034 C   0  0  0  0  0  0  0  0  0  0  0  0
   -3.4153   -0.5682    1.2061 C   0  0  0  0  0  0  0  0  0  0  0  0
   -4.2431    0.2975    0.5297 C   0  0  0  0  0  0  0  0  0  0  0  0
   -5.4687    0.7233    1.1835 C   0  0  0  0  0  0  0  0  0  0  0  0
   -5.4754    0.8401    2.5477 C   0  0  0  0  0  0  0  0  0  0  0  0
   -6.6288    1.2415    3.1760 C   0  0  0  0  0  0  0  0  0  0  0  0
   -7.7519    1.5186    2.4356 C   0  0  0  0  0  0  0  0  0  0  0  0
   -7.7149    1.3906    1.0473 C   0  0  0  0  0  0  0  0  0  0  0  0
   -6.5661    0.9885    0.3944 C   0  0  0  0  0  0  0  0  0  0  0  0
   -3.9074    0.7440   -0.7374 C   0  0  0  0  0  0  0  0  0  0  0  0
   -2.7329    0.3127   -1.3179 C   0  0  0  0  0  0  0  0  0  0  0  0
    0.2863   -3.0597   -0.8117 H   0  0  0  0  0  0  0  0  0  0  0  0
   -0.3823   -5.1047   -1.3096 H   0  0  0  0  0  0  0  0  0  0  0  0
    1.2607   -0.9689   -3.9112 H   0  0  0  0  0  0  0  0  0  0  0  0
    2.2339    0.4375   -2.1582 H   0  0  0  0  0  0  0  0  0  0  0  0
    3.1655   -1.0194   -2.5260 H   0  0  0  0  0  0  0  0  0  0  0  0
    2.3356   -2.0579   -0.4083 H   0  0  0  0  0  0  0  0  0  0  0  0
    1.3150   -0.6363   -0.0507 H   0  0  0  0  0  0  0  0  0  0  0  0
    4.4540    3.4940    1.5737 H   0  0  0  0  0  0  0  0  0  0  0  0
    6.7416    3.8855    2.3226 H   0  0  0  0  0  0  0  0  0  0  0  0
    8.4044    2.0693    2.1195 H   0  0  0  0  0  0  0  0  0  0  0  0
    7.7583   -0.0723    1.1846 H   0  0  0  0  0  0  0  0  0  0  0  0
   -1.0122   -0.9710   -3.2469 H   0  0  0  0  0  0  0  0  0  0  0  0
   -0.1831    0.4756   -2.6352 H   0  0  0  0  0  0  0  0  0  0  0  0
   -1.5583   -1.6664    1.0929 H   0  0  0  0  0  0  0  0  0  0  0  0
   -3.6508   -0.9356    2.2006 H   0  0  0  0  0  0  0  0  0  0  0  0
   -4.5864    0.6202    3.1305 H   0  0  0  0  0  0  0  0  0  0  0  0
   -6.6031    1.3236    4.2497 H   0  0  0  0  0  0  0  0  0  0  0  0
   -8.6639    1.8353    2.9220 H   0  0  0  0  0  0  0  0  0  0  0  0
   -8.5924    1.6055    0.4513 H   0  0  0  0  0  0  0  0  0  0  0  0
   -6.5181    0.8834   -0.6832 H   0  0  0  0  0  0  0  0  0  0  0  0
   -4.5939    1.4342   -1.2439 H   0  0  0  0  0  0  0  0  0  0  0  0
   -2.5092    0.6855   -2.3072 H   0  0  0  0  0  0  0  0  0  0  0  0
  1  2  2  0
  2  3  1  0
  3  4  1  0
  2  5  1  0
  5  6  1  0
  6  7  1  0
  7  8  1  0
  8  9  1  0
  9 10  2  0
  9 11  1  0
 11 12  2  0
 12 13  1  0
 13 14  2  0
 14 15  1  0
 15 16  2  0
 16 17  1  0
 17 18  2  0
 17 19  2  0
  5 20  1  0
 20 21  1  0
 21 22  1  0
 22 23  2  0
 23 24  1  0
 24 25  2  0
 25 26  1  0
 26 27  2  0
 27 28  1  0
 28 29  2  0
 29 30  1  0
 30 31  2  0
 25 32  1  0
 32 33  2  0
 17  8  1  0
 33 22  1  0
 16 11  1  0
 31 26  1  0
  3 34  1  0
  4 35  1  0
  5 36  1  0
  6 37  1  0
  6 38  1  0
  7 39  1  0
  7 40  1  0
 12 41  1  0
 13 42  1  0
 14 43  1  0
 15 44  1  0
 20 45  1  0
 20 46  1  0
 23 47  1  0
 24 48  1  0
 27 49  1  0
 28 50  1  0
 29 51  1  0
 30 52  1  0
 31 53  1  0
 32 54  1  0
 33 55  1  0
M  END
$$$$
