@<TRIPOS>MOLECULE
*****
 39 41 0 0 0
SMALL
GASTEIGER

@<TRIPOS>ATOM
      1 O           6.6285    0.2797    1.4463 O.2     1  UNL1       -0.2451
      2 C           5.5700    0.8026    1.0244 C.2     1  UNL1        0.3369
      3 O           5.3544    2.1399    1.2794 O.3     1  UNL1       -0.4771
      4 C           4.6319   -0.0350    0.2900 C.ar    1  UNL1        0.0607
      5 C           4.9141   -1.3655    0.0725 C.ar    1  UNL1       -0.0477
      6 C           4.0486   -2.1774   -0.6159 C.ar    1  UNL1       -0.0591
      7 C           2.8649   -1.6409   -1.1011 C.ar    1  UNL1       -0.0353
      8 C           2.5407   -0.3140   -0.9070 C.ar    1  UNL1        0.1063
      9 S           1.0531    0.3729   -1.5132 S.O2    1  UNL1        0.0612
     10 O           1.2633    1.8312   -1.8035 O.2     1  UNL1       -0.1528
     11 O           0.6850   -0.3917   -2.7524 O.2     1  UNL1       -0.1528
     12 N          -0.2246    0.2455   -0.3655 N.3     1  UNL1       -0.1720
     13 C          -0.5422   -1.1025   -0.0360 C.3     1  UNL1        0.0248
     14 C          -1.8705   -1.5848   -0.5575 C.3     1  UNL1       -0.0129
     15 C          -2.8976   -0.6515    0.0031 C.ar    1  UNL1       -0.0412
     16 C          -4.0418   -1.1064    0.5797 C.ar    1  UNL1       -0.0518
     17 C          -4.9417   -0.1784    1.0754 C.ar    1  UNL1        0.0159
     18 C          -4.6703    1.1731    0.9796 C.ar    1  UNL1        0.2735
     19 N          -5.6253    2.1212    1.5046 N.pl3   1  UNL1        0.0796
     20 O          -5.3646    3.3137    1.4090 O.2     1  UNL1        0.0414
     21 O          -6.7782    1.6616    2.0855 O.co2   1  UNL1       -0.5760
     22 C          -3.5023    1.5975    0.3897 C.ar    1  UNL1        0.0203
     23 C          -2.6021    0.6875   -0.1057 C.ar    1  UNL1       -0.0221
     24 C          -1.3291    1.0701   -0.7523 C.3     1  UNL1        0.0460
     25 C           3.4415    0.4594   -0.2104 C.ar    1  UNL1       -0.0214
     26 H           6.1265    2.8184    1.3681 H       1  UNL1        0.2954
     27 H           5.8603   -1.7655    0.4683 H       1  UNL1        0.0626
     28 H           4.3129   -3.2085   -0.7601 H       1  UNL1        0.0618
     29 H           2.1995   -2.3176   -1.6449 H       1  UNL1        0.0637
     30 H          -0.5826   -1.1866    1.0724 H       1  UNL1        0.0447
     31 H           0.2212   -1.8411   -0.3726 H       1  UNL1        0.0447
     32 H          -1.9194   -1.6754   -1.6420 H       1  UNL1        0.0326
     33 H          -2.0605   -2.5733   -0.1086 H       1  UNL1        0.0326
     34 H          -4.2199   -2.1754    0.6365 H       1  UNL1        0.0622
     35 H          -5.8370   -0.5776    1.5252 H       1  UNL1        0.0685
     36 H          -3.3034    2.6588    0.3218 H       1  UNL1        0.0688
     37 H          -1.4946    0.9910   -1.8613 H       1  UNL1        0.0493
     38 H          -1.1300    2.1570   -0.5708 H       1  UNL1        0.0493
     39 H           3.2217    1.4879   -0.0432 H       1  UNL1        0.0645
@<TRIPOS>UNITY_ATOM_ATTR
19 1
charge 1
21 1
charge -1
@<TRIPOS>BOND
     1     1     2    2
     2     2     3    1
     3     2     4    1
     4     4     5   ar
     5     5     6   ar
     6     6     7   ar
     7     7     8   ar
     8     8     9    1
     9     9    10    2
    10     9    11    2
    11     9    12    1
    12    12    13    1
    13    13    14    1
    14    14    15    1
    15    15    16   ar
    16    16    17   ar
    17    17    18   ar
    18    18    19    1
    19    19    20    2
    20    19    21    1
    21    18    22   ar
    22    22    23   ar
    23    23    24    1
    24     8    25   ar
    25    25     4   ar
    26    24    12    1
    27    23    15   ar
    28     3    26    1
    29     5    27    1
    30     6    28    1
    31     7    29    1
    32    13    30    1
    33    13    31    1
    34    14    32    1
    35    14    33    1
    36    16    34    1
    37    17    35    1
    38    22    36    1
    39    24    37    1
    40    24    38    1
    41    25    39    1
