
     RDKit          3D

 39 41  0  0  0  0  0  0  0  0999 V2000
    6.6285    0.2797    1.4463 O   0  0  0  0  0  0  0  0  0  0  0  0
    5.5700    0.8026    1.0244 C   0  0  0  0  0  0  0  0  0  0  0  0
    5.3544    2.1399    1.2794 O   0  0  0  0  0  0  0  0  0  0  0  0
    4.6319   -0.0350    0.2900 C   0  0  0  0  0  0  0  0  0  0  0  0
    4.9141   -1.3655    0.0725 C   0  0  0  0  0  0  0  0  0  0  0  0
    4.0486   -2.1774   -0.6159 C   0  0  0  0  0  0  0  0  0  0  0  0
    2.8649   -1.6409   -1.1011 C   0  0  0  0  0  0  0  0  0  0  0  0
    2.5407   -0.3140   -0.9070 C   0  0  0  0  0  0  0  0  0  0  0  0
    1.0531    0.3729   -1.5132 S   0  0  0  0  0  6  0  0  0  0  0  0
    1.2633    1.8312   -1.8035 O   0  0  0  0  0  0  0  0  0  0  0  0
    0.6850   -0.3917   -2.7524 O   0  0  0  0  0  0  0  0  0  0  0  0
   -0.2246    0.2455   -0.3655 N   0  0  0  0  0  0  0  0  0  0  0  0
   -0.5422   -1.1025   -0.0360 C   0  0  0  0  0  0  0  0  0  0  0  0
   -1.8705   -1.5848   -0.5575 C   0  0  0  0  0  0  0  0  0  0  0  0
   -2.8976   -0.6515    0.0031 C   0  0  0  0  0  0  0  0  0  0  0  0
   -4.0418   -1.1064    0.5797 C   0  0  0  0  0  0  0  0  0  0  0  0
   -4.9417   -0.1784    1.0754 C   0  0  0  0  0  0  0  0  0  0  0  0
   -4.6703    1.1731    0.9796 C   0  0  0  0  0  0  0  0  0  0  0  0
   -5.6253    2.1212    1.5046 N   0  0  0  0  0  4  0  0  0  0  0  0
   -5.3646    3.3137    1.4090 O   0  0  0  0  0  0  0  0  0  0  0  0
   -6.7782    1.6616    2.0855 O   0  0  0  0  0  1  0  0  0  0  0  0
   -3.5023    1.5975    0.3897 C   0  0  0  0  0  0  0  0  0  0  0  0
   -2.6021    0.6875   -0.1057 C   0  0  0  0  0  0  0  0  0  0  0  0
   -1.3291    1.0701   -0.7523 C   0  0  0  0  0  0  0  0  0  0  0  0
    3.4415    0.4594   -0.2104 C   0  0  0  0  0  0  0  0  0  0  0  0
    6.1265    2.8184    1.3681 H   0  0  0  0  0  0  0  0  0  0  0  0
    5.8603   -1.7655    0.4683 H   0  0  0  0  0  0  0  0  0  0  0  0
    4.3129   -3.2085   -0.7601 H   0  0  0  0  0  0  0  0  0  0  0  0
    2.1995   -2.3176   -1.6449 H   0  0  0  0  0  0  0  0  0  0  0  0
   -0.5826   -1.1866    1.0724 H   0  0  0  0  0  0  0  0  0  0  0  0
    0.2212   -1.8411   -0.3726 H   0  0  0  0  0  0  0  0  0  0  0  0
   -1.9194   -1.6754   -1.6420 H   0  0  0  0  0  0  0  0  0  0  0  0
   -2.0605   -2.5733   -0.1086 H   0  0  0  0  0  0  0  0  0  0  0  0
   -4.2199   -2.1754    0.6365 H   0  0  0  0  0  0  0  0  0  0  0  0
   -5.8370   -0.5776    1.5252 H   0  0  0  0  0  0  0  0  0  0  0  0
   -3.3034    2.6588    0.3218 H   0  0  0  0  0  0  0  0  0  0  0  0
   -1.4946    0.9910   -1.8613 H   0  0  0  0  0  0  0  0  0  0  0  0
   -1.1300    2.1570   -0.5708 H   0  0  0  0  0  0  0  0  0  0  0  0
    3.2217    1.4879   -0.0432 H   0  0  0  0  0  0  0  0  0  0  0  0
  1  2  2  0
  2  3  1  0
  2  4  1  0
  4  5  2  0
  5  6  1  0
  6  7  2  0
  7  8  1  0
  8  9  1  0
  9 10  2  0
  9 11  2  0
  9 12  1  0
 12 13  1  0
 13 14  1  0
 14 15  1  0
 15 16  2  0
 16 17  1  0
 17 18  2  0
 18 19  1  0
 19 20  2  0
 19 21  1  0
 18 22  1  0
 22 23  2  0
 23 24  1  0
  8 25  2  0
 25  4  1  0
 24 12  1  0
 23 15  1  0
  3 26  1  0
  5 27  1  0
  6 28  1  0
  7 29  1  0
 13 30  1  0
 13 31  1  0
 14 32  1  0
 14 33  1  0
 16 34  1  0
 17 35  1  0
 22 36  1  0
 24 37  1  0
 24 38  1  0
 25 39  1  0
M  CHG  2  19   1  21  -1
M  END
$$$$
