@<TRIPOS>MOLECULE
*****
 52 54 0 0 0
SMALL
GASTEIGER

@<TRIPOS>ATOM
      1 C          -0.6923   -3.5234    0.8446 C.3     1  UNL1       -0.0612
      2 C          -0.8045   -2.3492    1.7401 C.3     1  UNL1       -0.0273
      3 C          -1.6465   -1.2832    1.2018 C.ar    1  UNL1       -0.0084
      4 C          -2.9692   -1.2570    1.6514 C.ar    1  UNL1        0.0332
      5 N          -3.8494   -0.3530    1.2868 N.ar    1  UNL1       -0.2545
      6 C          -3.5258    0.6505    0.4209 C.ar    1  UNL1        0.0755
      7 C          -4.5369    1.6270    0.0495 C.ar    1  UNL1        0.0369
      8 C          -5.8125    1.4701    0.6125 C.ar    1  UNL1       -0.0314
      9 C          -6.8554    2.3296    0.3413 C.ar    1  UNL1        0.0418
     10 CL         -8.4287    2.1056    1.0585 Cl      1  UNL1       -0.0835
     11 C          -6.6771    3.3910   -0.5071 C.ar    1  UNL1       -0.0406
     12 C          -5.4462    3.5607   -1.0639 C.ar    1  UNL1       -0.0244
     13 C          -4.3801    2.6877   -0.7909 C.ar    1  UNL1        0.1326
     14 F          -3.1902    2.9265   -1.3836 F       1  UNL1       -0.2048
     15 C          -2.2489    0.6450   -0.0289 C.ar    1  UNL1       -0.0142
     16 C          -1.3032   -0.2962    0.3394 C.ar    1  UNL1        0.0380
     17 N           0.0442   -0.1328   -0.1244 N.pl3   1  UNL1       -0.3135
     18 C           0.6564   -0.9389   -1.1120 C.ar    1  UNL1        0.0465
     19 C          -0.1258   -1.8297   -1.8126 C.ar    1  UNL1       -0.0217
     20 C           0.4473   -2.6169   -2.7729 C.ar    1  UNL1        0.0293
     21 N           1.7640   -2.5145   -3.0234 N.ar    1  UNL1       -0.2624
     22 C           2.5561   -1.6592   -2.3610 C.ar    1  UNL1        0.0415
     23 C           1.9947   -0.8471   -1.3776 C.ar    1  UNL1        0.0758
     24 C           2.9168    0.0443   -0.6415 C.2     1  UNL1        0.2474
     25 O           2.6050    0.7180    0.3650 O.2     1  UNL1       -0.2701
     26 N           4.2635    0.2048   -1.0392 N.am    1  UNL1       -0.3088
     27 C           5.1790    1.0719   -0.3276 C.3     1  UNL1        0.0377
     28 C           5.3741    0.6918    1.1056 C.3     1  UNL1        0.0679
     29 C           6.4382    1.6246    1.6764 C.3     1  UNL1       -0.0375
     30 O           5.8861   -0.5963    1.2020 O.3     1  UNL1       -0.3905
     31 H           0.3369   -3.5802    0.4194 H       1  UNL1        0.0233
     32 H          -1.4920   -3.5417    0.0796 H       1  UNL1        0.0233
     33 H          -0.8186   -4.5018    1.4005 H       1  UNL1        0.0233
     34 H          -1.2577   -2.7148    2.6984 H       1  UNL1        0.0312
     35 H           0.1993   -1.9661    2.0750 H       1  UNL1        0.0312
     36 H          -3.3228   -2.0276    2.3539 H       1  UNL1        0.0833
     37 H          -5.9802    0.6344    1.2895 H       1  UNL1        0.0639
     38 H          -7.4949    4.0793   -0.7293 H       1  UNL1        0.0633
     39 H          -5.2750    4.3898   -1.7383 H       1  UNL1        0.0647
     40 H          -1.9013    1.4129   -0.7278 H       1  UNL1        0.0658
     41 H           0.5928    0.6515    0.2901 H       1  UNL1        0.1522
     42 H          -1.1671   -1.9124   -1.6219 H       1  UNL1        0.0651
     43 H          -0.1046   -3.3304   -3.3540 H       1  UNL1        0.0830
     44 H           3.6123   -1.6003   -2.5778 H       1  UNL1        0.0838
     45 H           4.6436   -0.2840   -1.8552 H       1  UNL1        0.1491
     46 H           6.1626    1.0203   -0.8263 H       1  UNL1        0.0487
     47 H           4.8589    2.1506   -0.3852 H       1  UNL1        0.0487
     48 H           4.4813    0.8421    1.7451 H       1  UNL1        0.0606
     49 H           7.4067    1.4662    1.1860 H       1  UNL1        0.0255
     50 H           6.4746    1.3889    2.7777 H       1  UNL1        0.0255
     51 H           6.0542    2.6574    1.6172 H       1  UNL1        0.0255
     52 H           6.3584   -0.7855    0.3541 H       1  UNL1        0.2098
@<TRIPOS>BOND
     1     1     2    1
     2     2     3    1
     3     3     4   ar
     4     4     5   ar
     5     5     6   ar
     6     6     7    1
     7     7     8   ar
     8     8     9   ar
     9     9    10    1
    10     9    11   ar
    11    11    12   ar
    12    12    13   ar
    13    13    14    1
    14     6    15   ar
    15    15    16   ar
    16    16    17    1
    17    17    18    1
    18    18    19   ar
    19    19    20   ar
    20    20    21   ar
    21    21    22   ar
    22    22    23   ar
    23    23    24    1
    24    24    25    2
    25    24    26   am
    26    26    27    1
    27    27    28    1
    28    28    29    1
    29    28    30    1
    30    16     3   ar
    31    23    18   ar
    32    13     7   ar
    33     1    31    1
    34     1    32    1
    35     1    33    1
    36     2    34    1
    37     2    35    1
    38     4    36    1
    39     8    37    1
    40    11    38    1
    41    12    39    1
    42    15    40    1
    43    17    41    1
    44    19    42    1
    45    20    43    1
    46    22    44    1
    47    26    45    1
    48    27    46    1
    49    27    47    1
    50    28    48    1
    51    29    49    1
    52    29    50    1
    53    29    51    1
    54    30    52    1
