
     RDKit          3D

 52 54  0  0  0  0  0  0  0  0999 V2000
   -0.6923   -3.5234    0.8446 C   0  0  0  0  0  0  0  0  0  0  0  0
   -0.8045   -2.3492    1.7401 C   0  0  0  0  0  0  0  0  0  0  0  0
   -1.6465   -1.2832    1.2018 C   0  0  0  0  0  0  0  0  0  0  0  0
   -2.9692   -1.2570    1.6514 C   0  0  0  0  0  0  0  0  0  0  0  0
   -3.8494   -0.3530    1.2868 N   0  0  0  0  0  0  0  0  0  0  0  0
   -3.5258    0.6505    0.4209 C   0  0  0  0  0  0  0  0  0  0  0  0
   -4.5369    1.6270    0.0495 C   0  0  0  0  0  0  0  0  0  0  0  0
   -5.8125    1.4701    0.6125 C   0  0  0  0  0  0  0  0  0  0  0  0
   -6.8554    2.3296    0.3413 C   0  0  0  0  0  0  0  0  0  0  0  0
   -8.4287    2.1056    1.0585 Cl  0  0  0  0  0  0  0  0  0  0  0  0
   -6.6771    3.3910   -0.5071 C   0  0  0  0  0  0  0  0  0  0  0  0
   -5.4462    3.5607   -1.0639 C   0  0  0  0  0  0  0  0  0  0  0  0
   -4.3801    2.6877   -0.7909 C   0  0  0  0  0  0  0  0  0  0  0  0
   -3.1902    2.9265   -1.3836 F   0  0  0  0  0  0  0  0  0  0  0  0
   -2.2489    0.6450   -0.0289 C   0  0  0  0  0  0  0  0  0  0  0  0
   -1.3032   -0.2962    0.3394 C   0  0  0  0  0  0  0  0  0  0  0  0
    0.0442   -0.1328   -0.1244 N   0  0  0  0  0  0  0  0  0  0  0  0
    0.6564   -0.9389   -1.1120 C   0  0  0  0  0  0  0  0  0  0  0  0
   -0.1258   -1.8297   -1.8126 C   0  0  0  0  0  0  0  0  0  0  0  0
    0.4473   -2.6169   -2.7729 C   0  0  0  0  0  0  0  0  0  0  0  0
    1.7640   -2.5145   -3.0234 N   0  0  0  0  0  0  0  0  0  0  0  0
    2.5561   -1.6592   -2.3610 C   0  0  0  0  0  0  0  0  0  0  0  0
    1.9947   -0.8471   -1.3776 C   0  0  0  0  0  0  0  0  0  0  0  0
    2.9168    0.0443   -0.6415 C   0  0  0  0  0  0  0  0  0  0  0  0
    2.6050    0.7180    0.3650 O   0  0  0  0  0  0  0  0  0  0  0  0
    4.2635    0.2048   -1.0392 N   0  0  0  0  0  0  0  0  0  0  0  0
    5.1790    1.0719   -0.3276 C   0  0  0  0  0  0  0  0  0  0  0  0
    5.3741    0.6918    1.1056 C   0  0  2  0  0  0  0  0  0  0  0  0
    6.4382    1.6246    1.6764 C   0  0  0  0  0  0  0  0  0  0  0  0
    5.8861   -0.5963    1.2020 O   0  0  0  0  0  0  0  0  0  0  0  0
    0.3369   -3.5802    0.4194 H   0  0  0  0  0  0  0  0  0  0  0  0
   -1.4920   -3.5417    0.0796 H   0  0  0  0  0  0  0  0  0  0  0  0
   -0.8186   -4.5018    1.4005 H   0  0  0  0  0  0  0  0  0  0  0  0
   -1.2577   -2.7148    2.6984 H   0  0  0  0  0  0  0  0  0  0  0  0
    0.1993   -1.9661    2.0750 H   0  0  0  0  0  0  0  0  0  0  0  0
   -3.3228   -2.0276    2.3539 H   0  0  0  0  0  0  0  0  0  0  0  0
   -5.9802    0.6344    1.2895 H   0  0  0  0  0  0  0  0  0  0  0  0
   -7.4949    4.0793   -0.7293 H   0  0  0  0  0  0  0  0  0  0  0  0
   -5.2750    4.3898   -1.7383 H   0  0  0  0  0  0  0  0  0  0  0  0
   -1.9013    1.4129   -0.7278 H   0  0  0  0  0  0  0  0  0  0  0  0
    0.5928    0.6515    0.2901 H   0  0  0  0  0  0  0  0  0  0  0  0
   -1.1671   -1.9124   -1.6219 H   0  0  0  0  0  0  0  0  0  0  0  0
   -0.1046   -3.3304   -3.3540 H   0  0  0  0  0  0  0  0  0  0  0  0
    3.6123   -1.6003   -2.5778 H   0  0  0  0  0  0  0  0  0  0  0  0
    4.6436   -0.2840   -1.8552 H   0  0  0  0  0  0  0  0  0  0  0  0
    6.1626    1.0203   -0.8263 H   0  0  0  0  0  0  0  0  0  0  0  0
    4.8589    2.1506   -0.3852 H   0  0  0  0  0  0  0  0  0  0  0  0
    4.4813    0.8421    1.7451 H   0  0  0  0  0  0  0  0  0  0  0  0
    7.4067    1.4662    1.1860 H   0  0  0  0  0  0  0  0  0  0  0  0
    6.4746    1.3889    2.7777 H   0  0  0  0  0  0  0  0  0  0  0  0
    6.0542    2.6574    1.6172 H   0  0  0  0  0  0  0  0  0  0  0  0
    6.3584   -0.7855    0.3541 H   0  0  0  0  0  0  0  0  0  0  0  0
  1  2  1  0
  2  3  1  0
  3  4  2  0
  4  5  1  0
  5  6  2  0
  6  7  1  0
  7  8  2  0
  8  9  1  0
  9 10  1  0
  9 11  2  0
 11 12  1  0
 12 13  2  0
 13 14  1  0
  6 15  1  0
 15 16  2  0
 16 17  1  0
 17 18  1  0
 18 19  2  0
 19 20  1  0
 20 21  2  0
 21 22  1  0
 22 23  2  0
 23 24  1  0
 24 25  2  0
 24 26  1  0
 26 27  1  0
 27 28  1  0
 28 29  1  0
 28 30  1  0
 16  3  1  0
 23 18  1  0
 13  7  1  0
  1 31  1  0
  1 32  1  0
  1 33  1  0
  2 34  1  0
  2 35  1  0
  4 36  1  0
  8 37  1  0
 11 38  1  0
 12 39  1  0
 15 40  1  0
 17 41  1  0
 19 42  1  0
 20 43  1  0
 22 44  1  0
 26 45  1  0
 27 46  1  0
 27 47  1  0
 28 48  1  1
 29 49  1  0
 29 50  1  0
 29 51  1  0
 30 52  1  0
M  END
$$$$
