@<TRIPOS>MOLECULE
*****
 85 87 0 0 0
SMALL
GASTEIGER

@<TRIPOS>ATOM
      1 C          -3.0809   -0.9314    0.1595 C.3     1  UNL1       -0.0325
      2 C          -2.2955   -1.7047    1.2439 C.3     1  UNL1       -0.0489
      3 C          -1.1024   -0.8055    1.4693 C.3     1  UNL1       -0.0457
      4 C          -1.1656    0.2657    0.4255 C.3     1  UNL1       -0.0139
      5 C           0.0906    0.7501   -0.1152 C.2     1  UNL1       -0.0659
      6 C          -0.2397    1.8686   -1.0693 C.3     1  UNL1       -0.0312
      7 C          -1.1776    1.4182   -2.1396 C.3     1  UNL1       -0.0488
      8 C          -2.3020    0.5579   -1.6984 C.3     1  UNL1       -0.0465
      9 C          -1.9192   -0.4522   -0.6749 C.3     1  UNL1       -0.0225
     10 C          -1.0335   -1.4943   -1.2392 C.3     1  UNL1       -0.0588
     11 C           1.3703    0.4148    0.0631 C.2     1  UNL1       -0.0620
     12 C           2.4958    1.0438   -0.5931 C.2     1  UNL1       -0.0582
     13 C           3.7386    0.6225   -0.3324 C.2     1  UNL1       -0.0397
     14 C           4.9132    1.2774   -1.0214 C.3     1  UNL1        0.0013
     15 C           5.7800    0.1510   -1.5369 C.3     1  UNL1        0.0880
     16 O           6.8199    0.5843   -2.3338 O.3     1  UNL1       -0.3888
     17 C           6.3233   -0.5716   -0.2793 C.3     1  UNL1        0.1146
     18 O           6.6307    0.4870    0.5862 O.3     1  UNL1       -0.3710
     19 C           7.9785    0.6208    0.7909 C.3     1  UNL1        0.0503
     20 C           8.6386   -0.5147    1.5078 C.3     1  UNL1       -0.0062
     21 C           8.1215   -0.6212    2.9014 C.3     1  UNL1        0.0463
     22 O           6.7719   -0.8236    2.9867 O.3     1  UNL1       -0.3949
     23 C           5.1734   -1.3496    0.2443 C.3     1  UNL1        0.1084
     24 O           4.6993   -2.1450   -0.8378 O.3     1  UNL1       -0.3845
     25 C           4.0316   -0.4701    0.6276 C.2     1  UNL1       -0.0204
     26 C           3.2416   -0.4882    1.6868 C.2     1  UNL1       -0.0927
     27 C          -4.0995   -1.7229   -0.4706 C.3     1  UNL1       -0.0405
     28 C          -3.6346   -2.9639   -1.2156 C.3     1  UNL1       -0.0621
     29 C          -5.2368   -1.1158   -1.1752 C.3     1  UNL1       -0.0501
     30 C          -6.2648   -0.2905   -0.5327 C.3     1  UNL1       -0.0502
     31 C          -5.8451    0.9387    0.1538 C.3     1  UNL1       -0.0245
     32 C          -7.0823    1.7238    0.6731 C.3     1  UNL1        0.0605
     33 C          -6.5858    2.9721    1.3658 C.3     1  UNL1       -0.0363
     34 C          -8.0058    2.1026   -0.4357 C.3     1  UNL1       -0.0363
     35 O          -7.7507    0.9539    1.6216 O.3     1  UNL1       -0.3891
     36 H          -3.4408   -0.0525    0.6723 H       1  UNL1        0.0309
     37 H          -2.9510   -1.7440    2.1603 H       1  UNL1        0.0268
     38 H          -2.0645   -2.7109    0.9046 H       1  UNL1        0.0268
     39 H          -0.2318   -1.4442    1.4853 H       1  UNL1        0.0271
     40 H          -1.2546   -0.2881    2.4581 H       1  UNL1        0.0271
     41 H          -1.8036    1.1085    0.7778 H       1  UNL1        0.0351
     42 H           0.6266    2.3303   -1.5109 H       1  UNL1        0.0310
     43 H          -0.7302    2.6591   -0.4255 H       1  UNL1        0.0310
     44 H          -0.5849    0.9795   -2.9725 H       1  UNL1        0.0268
     45 H          -1.6143    2.3544   -2.5863 H       1  UNL1        0.0268
     46 H          -2.6149   -0.0360   -2.6122 H       1  UNL1        0.0271
     47 H          -3.1394    1.1908   -1.4119 H       1  UNL1        0.0271
     48 H           0.0682   -1.2636   -1.1311 H       1  UNL1        0.0235
     49 H          -1.1296   -2.5082   -0.8628 H       1  UNL1        0.0235
     50 H          -1.1540   -1.4472   -2.3668 H       1  UNL1        0.0235
     51 H           1.2314   -0.3716    0.7517 H       1  UNL1        0.0617
     52 H           2.4598    1.8523   -1.3006 H       1  UNL1        0.0620
     53 H           5.4120    1.9144   -0.2802 H       1  UNL1        0.0339
     54 H           4.5555    1.9327   -1.8427 H       1  UNL1        0.0339
     55 H           5.1216   -0.5737   -2.0447 H       1  UNL1        0.0623
     56 H           6.4359    0.7450   -3.2405 H       1  UNL1        0.2099
     57 H           7.1944   -1.1513   -0.5972 H       1  UNL1        0.0651
     58 H           8.5448    0.7375   -0.1767 H       1  UNL1        0.0561
     59 H           8.2300    1.5504    1.3692 H       1  UNL1        0.0561
     60 H           9.7305   -0.3015    1.5046 H       1  UNL1        0.0309
     61 H           8.4923   -1.4608    0.9353 H       1  UNL1        0.0309
     62 H           8.3787    0.3361    3.4312 H       1  UNL1        0.0558
     63 H           8.6987   -1.4038    3.4790 H       1  UNL1        0.0558
     64 H           6.5375   -1.3734    3.7744 H       1  UNL1        0.2094
     65 H           5.4423   -2.0430    1.0476 H       1  UNL1        0.0670
     66 H           5.4085   -2.7528   -1.1414 H       1  UNL1        0.2103
     67 H           2.7691   -0.7606    2.6407 H       1  UNL1        0.0538
     68 H           2.8445   -0.8265    2.6222 H       1  UNL1        0.0538
     69 H          -4.6218   -2.2565    0.4513 H       1  UNL1        0.0301
     70 H          -3.1749   -3.6904   -0.5206 H       1  UNL1        0.0233
     71 H          -4.6041   -3.4683   -1.5099 H       1  UNL1        0.0233
     72 H          -3.1220   -2.7795   -2.1491 H       1  UNL1        0.0233
     73 H          -5.7934   -1.9675   -1.7513 H       1  UNL1        0.0268
     74 H          -4.8616   -0.4632   -2.0615 H       1  UNL1        0.0268
     75 H          -7.0042   -0.0103   -1.3453 H       1  UNL1        0.0266
     76 H          -6.8261   -0.9155    0.2365 H       1  UNL1        0.0266
     77 H          -5.3328    0.7316    1.1364 H       1  UNL1        0.0293
     78 H          -5.2760    1.6458   -0.4539 H       1  UNL1        0.0293
     79 H          -5.7933    3.3992    0.7412 H       1  UNL1        0.0257
     80 H          -7.4569    3.6596    1.5253 H       1  UNL1        0.0257
     81 H          -6.1319    2.6657    2.3359 H       1  UNL1        0.0257
     82 H          -8.4856    3.0680   -0.2070 H       1  UNL1        0.0257
     83 H          -7.4640    2.2383   -1.4087 H       1  UNL1        0.0257
     84 H          -8.8376    1.3605   -0.5329 H       1  UNL1        0.0257
     85 H          -8.6793    1.3167    1.6909 H       1  UNL1        0.2101
@<TRIPOS>BOND
     1     1     2    1
     2     2     3    1
     3     3     4    1
     4     4     5    1
     5     5     6    1
     6     6     7    1
     7     7     8    1
     8     8     9    1
     9     9    10    1
    10     5    11    2
    11    11    12    1
    12    12    13    2
    13    13    14    1
    14    14    15    1
    15    15    16    1
    16    15    17    1
    17    17    18    1
    18    18    19    1
    19    19    20    1
    20    20    21    1
    21    21    22    1
    22    17    23    1
    23    23    24    1
    24    23    25    1
    25    25    26    2
    26     1    27    1
    27    27    28    1
    28    27    29    1
    29    29    30    1
    30    30    31    1
    31    31    32    1
    32    32    33    1
    33    32    34    1
    34    32    35    1
    35     9     1    1
    36    25    13    1
    37     9     4    1
    38     1    36    1
    39     2    37    1
    40     2    38    1
    41     3    39    1
    42     3    40    1
    43     4    41    1
    44     6    42    1
    45     6    43    1
    46     7    44    1
    47     7    45    1
    48     8    46    1
    49     8    47    1
    50    10    48    1
    51    10    49    1
    52    10    50    1
    53    11    51    1
    54    12    52    1
    55    14    53    1
    56    14    54    1
    57    15    55    1
    58    16    56    1
    59    17    57    1
    60    19    58    1
    61    19    59    1
    62    20    60    1
    63    20    61    1
    64    21    62    1
    65    21    63    1
    66    22    64    1
    67    23    65    1
    68    24    66    1
    69    26    67    1
    70    26    68    1
    71    27    69    1
    72    28    70    1
    73    28    71    1
    74    28    72    1
    75    29    73    1
    76    29    74    1
    77    30    75    1
    78    30    76    1
    79    31    77    1
    80    31    78    1
    81    33    79    1
    82    33    80    1
    83    33    81    1
    84    34    82    1
    85    34    83    1
    86    34    84    1
    87    35    85    1
