
     RDKit          3D

 34 37  0  0  0  0  0  0  0  0999 V2000
   -0.0143    2.4310    3.0504 O   0  0  0  0  0  0  0  0  0  0  0  0
   -0.0641    1.6422    2.0594 C   0  0  0  0  0  0  0  0  0  0  0  0
   -1.2826    1.0942    1.6334 C   0  0  0  0  0  0  0  0  0  0  0  0
   -1.3842    0.2371    0.5671 C   0  0  0  0  0  0  0  0  0  0  0  0
   -2.6558   -0.3222    0.1386 C   0  0  0  0  0  0  0  0  0  0  0  0
   -3.8602   -0.0667    0.7301 C   0  0  0  0  0  0  0  0  0  0  0  0
   -5.0416   -0.6530    0.2472 C   0  0  0  0  0  0  0  0  0  0  0  0
   -5.0191   -1.4996   -0.8332 C   0  0  0  0  0  0  0  0  0  0  0  0
   -3.8090   -1.7654   -1.4390 C   0  0  0  0  0  0  0  0  0  0  0  0
   -2.6640   -1.1890   -0.9607 C   0  0  0  0  0  0  0  0  0  0  0  0
   -0.2583   -0.0672   -0.0689 O   0  0  0  0  0  0  0  0  0  0  0  0
    0.9131    0.4073    0.2742 C   0  0  0  0  0  0  0  0  0  0  0  0
    2.0598    0.0558   -0.4265 C   0  0  0  0  0  0  0  0  0  0  0  0
    3.3106    0.5315   -0.0994 C   0  0  0  0  0  0  0  0  0  0  0  0
    3.4078    1.3929    0.9732 C   0  0  0  0  0  0  0  0  0  0  0  0
    2.2970    1.7695    1.6978 C   0  0  0  0  0  0  0  0  0  0  0  0
    2.3655    2.6328    2.7791 O   0  0  0  0  0  0  0  0  0  0  0  0
    1.0507    1.2711    1.3409 C   0  0  0  0  0  0  0  0  0  0  0  0
    4.3775    0.1233   -0.8544 O   0  0  0  0  0  0  0  0  0  0  0  0
    4.3889   -0.7338   -1.9457 C   0  0  0  0  0  0  0  0  0  0  0  0
    3.0272   -1.2075   -2.2456 C   0  0  0  0  0  0  0  0  0  0  0  0
    1.9742   -0.8524   -1.5612 C   0  0  0  0  0  0  0  0  0  0  0  0
   -2.1688    1.3699    2.1800 H   0  0  0  0  0  0  0  0  0  0  0  0
   -3.8916    0.5965    1.5795 H   0  0  0  0  0  0  0  0  0  0  0  0
   -5.9772   -0.4427    0.7218 H   0  0  0  0  0  0  0  0  0  0  0  0
   -5.9182   -1.9717   -1.2335 H   0  0  0  0  0  0  0  0  0  0  0  0
   -3.8091   -2.4415   -2.2978 H   0  0  0  0  0  0  0  0  0  0  0  0
   -1.7275   -1.3985   -1.4344 H   0  0  0  0  0  0  0  0  0  0  0  0
    4.3898    1.7646    1.2276 H   0  0  0  0  0  0  0  0  0  0  0  0
    2.3150    2.2180    3.7012 H   0  0  0  0  0  0  0  0  0  0  0  0
    4.7950   -0.1827   -2.8477 H   0  0  0  0  0  0  0  0  0  0  0  0
    5.0451   -1.6376   -1.7775 H   0  0  0  0  0  0  0  0  0  0  0  0
    2.8616   -1.8915   -3.0778 H   0  0  0  0  0  0  0  0  0  0  0  0
    0.9671   -1.2148   -1.7983 H   0  0  0  0  0  0  0  0  0  0  0  0
  1  2  2  0
  2  3  1  0
  3  4  2  0
  4  5  1  0
  5  6  2  0
  6  7  1  0
  7  8  2  0
  8  9  1  0
  9 10  2  0
  4 11  1  0
 11 12  1  0
 12 13  2  0
 13 14  1  0
 14 15  2  0
 15 16  1  0
 16 17  1  0
 16 18  2  0
 14 19  1  0
 19 20  1  0
 20 21  1  0
 21 22  2  0
 18  2  1  0
 10  5  1  0
 18 12  1  0
 22 13  1  0
  3 23  1  0
  6 24  1  0
  7 25  1  0
  8 26  1  0
  9 27  1  0
 10 28  1  0
 15 29  1  0
 17 30  1  0
 20 31  1  0
 20 32  1  0
 21 33  1  0
 22 34  1  0
M  END
$$$$
