@<TRIPOS>MOLECULE
*****
 34 37 0 0 0
SMALL
GASTEIGER

@<TRIPOS>ATOM
      1 O          -0.0143    2.4310    3.0504 O.2     1  UNL1       -0.2869
      2 C          -0.0641    1.6422    2.0594 C.ar    1  UNL1        0.1966
      3 C          -1.2826    1.0942    1.6334 C.ar    1  UNL1        0.0288
      4 C          -1.3842    0.2371    0.5671 C.ar    1  UNL1        0.1393
      5 C          -2.6558   -0.3222    0.1386 C.ar    1  UNL1        0.0174
      6 C          -3.8602   -0.0667    0.7301 C.ar    1  UNL1       -0.0511
      7 C          -5.0416   -0.6530    0.2472 C.ar    1  UNL1       -0.0611
      8 C          -5.0191   -1.4996   -0.8332 C.ar    1  UNL1       -0.0617
      9 C          -3.8090   -1.7654   -1.4390 C.ar    1  UNL1       -0.0611
     10 C          -2.6640   -1.1890   -0.9607 C.ar    1  UNL1       -0.0511
     11 O          -0.2583   -0.0672   -0.0689 O.2     1  UNL1       -0.4538
     12 C           0.9131    0.4073    0.2742 C.ar    1  UNL1        0.1534
     13 C           2.0598    0.0558   -0.4265 C.ar    1  UNL1        0.0596
     14 C           3.3106    0.5315   -0.0994 C.ar    1  UNL1        0.1351
     15 C           3.4078    1.3929    0.9732 C.ar    1  UNL1        0.0231
     16 C           2.2970    1.7695    1.6978 C.ar    1  UNL1        0.1347
     17 O           2.3655    2.6328    2.7791 O.3     1  UNL1       -0.5058
     18 C           1.0507    1.2711    1.3409 C.ar    1  UNL1        0.1061
     19 O           4.3775    0.1233   -0.8544 O.3     1  UNL1       -0.4871
     20 C           4.3889   -0.7338   -1.9457 C.3     1  UNL1        0.1082
     21 C           3.0272   -1.2075   -2.2456 C.2     1  UNL1       -0.0463
     22 C           1.9742   -0.8524   -1.5612 C.2     1  UNL1       -0.0483
     23 H          -2.1688    1.3699    2.1800 H       1  UNL1        0.0693
     24 H          -3.8916    0.5965    1.5795 H       1  UNL1        0.0625
     25 H          -5.9772   -0.4427    0.7218 H       1  UNL1        0.0618
     26 H          -5.9182   -1.9717   -1.2335 H       1  UNL1        0.0618
     27 H          -3.8091   -2.4415   -2.2978 H       1  UNL1        0.0618
     28 H          -1.7275   -1.3985   -1.4344 H       1  UNL1        0.0625
     29 H           4.3898    1.7646    1.2276 H       1  UNL1        0.0691
     30 H           2.3150    2.2180    3.7012 H       1  UNL1        0.2922
     31 H           4.7950   -0.1827   -2.8477 H       1  UNL1        0.0742
     32 H           5.0451   -1.6376   -1.7775 H       1  UNL1        0.0742
     33 H           2.8616   -1.8915   -3.0778 H       1  UNL1        0.0606
     34 H           0.9671   -1.2148   -1.7983 H       1  UNL1        0.0624
@<TRIPOS>BOND
     1     1     2    2
     2     2     3   ar
     3     3     4   ar
     4     4     5    1
     5     5     6   ar
     6     6     7   ar
     7     7     8   ar
     8     8     9   ar
     9     9    10   ar
    10     4    11   ar
    11    11    12   ar
    12    12    13   ar
    13    13    14   ar
    14    14    15   ar
    15    15    16   ar
    16    16    17    1
    17    16    18   ar
    18    14    19    1
    19    19    20    1
    20    20    21    1
    21    21    22    2
    22    18     2   ar
    23    10     5   ar
    24    18    12   ar
    25    22    13    1
    26     3    23    1
    27     6    24    1
    28     7    25    1
    29     8    26    1
    30     9    27    1
    31    10    28    1
    32    15    29    1
    33    17    30    1
    34    20    31    1
    35    20    32    1
    36    21    33    1
    37    22    34    1
