@<TRIPOS>MOLECULE
*****
 33 35 0 0 0
SMALL
GASTEIGER

@<TRIPOS>ATOM
      1 N           3.7611   -0.3389   -0.7631 N.3     1  UNL1       -0.3235
      2 C           2.6121   -0.5531    0.0952 C.3     1  UNL1        0.0336
      3 C           1.7662   -1.6914   -0.3364 C.3     1  UNL1       -0.0174
      4 C           0.4804   -1.7960    0.4602 C.3     1  UNL1        0.0190
      5 N          -0.2737   -0.5517    0.2758 N.pl3   1  UNL1       -0.2997
      6 C          -1.6248   -0.5239   -0.0665 C.ar    1  UNL1        0.0354
      7 C          -2.4340   -1.5414    0.4403 C.ar    1  UNL1       -0.0389
      8 C          -3.7746   -1.6264    0.1481 C.ar    1  UNL1       -0.0402
      9 C          -4.3717   -0.6865   -0.6734 C.ar    1  UNL1        0.0594
     10 CL         -6.0744   -0.7556   -1.0714 Cl      1  UNL1       -0.0820
     11 C          -3.5822    0.3191   -1.1775 C.ar    1  UNL1        0.0610
     12 CL         -4.3022    1.5236   -2.2185 Cl      1  UNL1       -0.0820
     13 C          -2.2388    0.4010   -0.8828 C.ar    1  UNL1       -0.0206
     14 C           0.4929    0.6556    0.4784 C.ar    1  UNL1        0.0386
     15 C          -0.1899    1.8282    0.7790 C.ar    1  UNL1       -0.0400
     16 C           0.5262    2.9899    0.9632 C.ar    1  UNL1       -0.0600
     17 C           1.8999    3.0140    0.8569 C.ar    1  UNL1       -0.0613
     18 C           2.5811    1.8685    0.5635 C.ar    1  UNL1       -0.0553
     19 C           1.8584    0.6627    0.3709 C.ar    1  UNL1       -0.0093
     20 H           4.6468   -0.1917   -0.2208 H       1  UNL1        0.1188
     21 H           3.9496   -1.2086   -1.3432 H       1  UNL1        0.1188
     22 H           3.0588   -0.8727    1.0976 H       1  UNL1        0.0509
     23 H           1.5621   -1.6751   -1.4277 H       1  UNL1        0.0299
     24 H           2.3326   -2.6379   -0.1140 H       1  UNL1        0.0299
     25 H           0.7076   -1.9104    1.5245 H       1  UNL1        0.0468
     26 H          -0.0792   -2.6618    0.1034 H       1  UNL1        0.0468
     27 H          -2.0168   -2.3174    1.0987 H       1  UNL1        0.0637
     28 H          -4.4083   -2.4153    0.5395 H       1  UNL1        0.0633
     29 H          -1.6659    1.2108   -1.3244 H       1  UNL1        0.0651
     30 H          -1.2832    1.8090    0.8807 H       1  UNL1        0.0636
     31 H          -0.0209    3.8847    1.1941 H       1  UNL1        0.0618
     32 H           2.4406    3.9600    1.0098 H       1  UNL1        0.0618
     33 H           3.6642    1.8289    0.4678 H       1  UNL1        0.0621
@<TRIPOS>BOND
     1     1     2    1
     2     2     3    1
     3     3     4    1
     4     4     5    1
     5     5     6    1
     6     6     7   ar
     7     7     8   ar
     8     8     9   ar
     9     9    10    1
    10     9    11   ar
    11    11    12    1
    12    11    13   ar
    13     5    14    1
    14    14    15   ar
    15    15    16   ar
    16    16    17   ar
    17    17    18   ar
    18    18    19   ar
    19    19     2    1
    20    13     6   ar
    21    19    14   ar
    22     1    20    1
    23     1    21    1
    24     2    22    1
    25     3    23    1
    26     3    24    1
    27     4    25    1
    28     4    26    1
    29     7    27    1
    30     8    28    1
    31    13    29    1
    32    15    30    1
    33    16    31    1
    34    17    32    1
    35    18    33    1
