
     RDKit          3D

 22 22  0  0  0  0  0  0  0  0999 V2000
   -1.6708    0.0165    0.5856 C   0  0  1  0  0  0  0  0  0  0  0  0
   -1.2075   -1.5694    1.3472 S   0  0  0  0  0  0  0  0  0  0  0  0
   -0.9390    0.0924   -0.7517 C   0  0  0  0  0  0  0  0  0  0  0  0
    0.5136    0.0290   -0.5424 C   0  0  0  0  0  0  0  0  0  0  0  0
    1.2811   -1.1002   -0.5083 C   0  0  0  0  0  0  0  0  0  0  0  0
    2.6469   -1.0491   -0.3038 C   0  0  0  0  0  0  0  0  0  0  0  0
    3.2742    0.1548   -0.1274 C   0  0  0  0  0  0  0  0  0  0  0  0
    5.3636    0.2924    0.1897 I   0  0  0  0  0  0  0  0  0  0  0  0
    2.5218    1.3078   -0.1575 C   0  0  0  0  0  0  0  0  0  0  0  0
    1.1641    1.2501   -0.3614 C   0  0  0  0  0  0  0  0  0  0  0  0
   -3.1388    0.0356    0.3696 C   0  0  0  0  0  0  0  0  0  0  0  0
   -3.5869    1.1675   -0.2679 O   0  0  0  0  0  0  0  0  0  0  0  0
   -4.0258   -0.8010    0.6696 O   0  0  0  0  0  0  0  0  0  0  0  0
   -1.3277    0.8201    1.2669 H   0  0  0  0  0  0  0  0  0  0  0  0
   -1.4281   -2.5929    0.4097 H   0  0  0  0  0  0  0  0  0  0  0  0
   -1.3103   -0.7659   -1.3500 H   0  0  0  0  0  0  0  0  0  0  0  0
   -1.2499    1.0136   -1.3001 H   0  0  0  0  0  0  0  0  0  0  0  0
    0.7657   -2.0422   -0.6499 H   0  0  0  0  0  0  0  0  0  0  0  0
    3.2350   -1.9390   -0.2794 H   0  0  0  0  0  0  0  0  0  0  0  0
    3.0175    2.2637   -0.0178 H   0  0  0  0  0  0  0  0  0  0  0  0
    0.6424    2.1946   -0.3722 H   0  0  0  0  0  0  0  0  0  0  0  0
   -4.5411    1.2216   -0.6550 H   0  0  0  0  0  0  0  0  0  0  0  0
  1  2  1  0
  1  3  1  0
  3  4  1  0
  4  5  2  0
  5  6  1  0
  6  7  2  0
  7  8  1  0
  7  9  1  0
  9 10  2  0
  1 11  1  0
 11 12  1  0
 11 13  2  0
 10  4  1  0
  1 14  1  1
  2 15  1  0
  3 16  1  0
  3 17  1  0
  5 18  1  0
  6 19  1  0
  9 20  1  0
 10 21  1  0
 12 22  1  0
M  END
$$$$
