@<TRIPOS>MOLECULE
*****
 22 22 0 0 0
SMALL
GASTEIGER

@<TRIPOS>ATOM
      1 C          -1.6708    0.0165    0.5856 C.3     1  UNL1        0.1031
      2 S          -1.2075   -1.5694    1.3472 S.3     1  UNL1       -0.1633
      3 C          -0.9390    0.0924   -0.7517 C.3     1  UNL1       -0.0058
      4 C           0.5136    0.0290   -0.5424 C.ar    1  UNL1       -0.0457
      5 C           1.2811   -1.1002   -0.5083 C.ar    1  UNL1       -0.0575
      6 C           2.6469   -1.0491   -0.3038 C.ar    1  UNL1       -0.0484
      7 C           3.2742    0.1548   -0.1274 C.ar    1  UNL1        0.0134
      8 I           5.3636    0.2924    0.1897 I       1  UNL1       -0.0438
      9 C           2.5218    1.3078   -0.1575 C.ar    1  UNL1       -0.0484
     10 C           1.1641    1.2501   -0.3614 C.ar    1  UNL1       -0.0575
     11 C          -3.1388    0.0356    0.3696 C.2     1  UNL1        0.3179
     12 O          -3.5869    1.1675   -0.2679 O.3     1  UNL1       -0.4798
     13 O          -4.0258   -0.8010    0.6696 O.2     1  UNL1       -0.2498
     14 H          -1.3277    0.8201    1.2669 H       1  UNL1        0.0527
     15 H          -1.4281   -2.5929    0.4097 H       1  UNL1        0.1024
     16 H          -1.3103   -0.7659   -1.3500 H       1  UNL1        0.0329
     17 H          -1.2499    1.0136   -1.3001 H       1  UNL1        0.0329
     18 H           0.7657   -2.0422   -0.6499 H       1  UNL1        0.0621
     19 H           3.2350   -1.9390   -0.2794 H       1  UNL1        0.0628
     20 H           3.0175    2.2637   -0.0178 H       1  UNL1        0.0628
     21 H           0.6424    2.1946   -0.3722 H       1  UNL1        0.0621
     22 H          -4.5411    1.2216   -0.6550 H       1  UNL1        0.2951
@<TRIPOS>BOND
     1     1     2    1
     2     1     3    1
     3     3     4    1
     4     4     5   ar
     5     5     6   ar
     6     6     7   ar
     7     7     8    1
     8     7     9   ar
     9     9    10   ar
    10     1    11    1
    11    11    12    1
    12    11    13    2
    13    10     4   ar
    14     1    14    1
    15     2    15    1
    16     3    16    1
    17     3    17    1
    18     5    18    1
    19     6    19    1
    20     9    20    1
    21    10    21    1
    22    12    22    1
