@<TRIPOS>MOLECULE
*****
 33 33 0 0 0
SMALL
GASTEIGER

@<TRIPOS>ATOM
      1 N           4.1082    1.3633   -0.6060 N.3     1  UNL1       -0.3225
      2 C           4.5454    0.0301   -0.9892 C.3     1  UNL1        0.0708
      3 C           3.4424   -0.9367   -0.7718 C.2     1  UNL1        0.2286
      4 O           3.4740   -2.1785   -0.9978 O.2     1  UNL1       -0.2744
      5 N           2.1836   -0.5113   -0.2592 N.am    1  UNL1       -0.2869
      6 C           1.0219   -1.3429    0.0020 C.3     1  UNL1        0.1538
      7 O          -0.0474   -0.9231   -0.7741 O.3     1  UNL1       -0.3480
      8 C          -1.1398   -0.7757    0.0552 C.3     1  UNL1        0.1132
      9 C          -2.1254    0.2150   -0.5193 C.3     1  UNL1        0.0878
     10 O          -3.2166    0.3358    0.3502 O.3     1  UNL1       -0.2841
     11 P          -4.2824    1.4521   -0.3409 P.3     1  UNL1        0.4724
     12 O          -3.3347    2.8103   -0.7644 O.3     1  UNL1       -0.3026
     13 O          -4.9546    0.8818   -1.7639 O.3     1  UNL1       -0.3026
     14 O          -5.3586    1.8724    0.6281 O.2     1  UNL1       -0.2275
     15 C          -0.5118   -0.1693    1.3157 C.3     1  UNL1        0.1133
     16 O          -1.3742   -0.1984    2.3816 O.3     1  UNL1       -0.3864
     17 C           0.6651   -1.1274    1.4531 C.3     1  UNL1        0.1261
     18 O           0.2110   -2.3524    1.9594 O.3     1  UNL1       -0.3849
     19 H           3.8833    1.4306    0.3922 H       1  UNL1        0.1186
     20 H           3.3736    1.7402   -1.2435 H       1  UNL1        0.1186
     21 H           5.3713   -0.2381   -0.2837 H       1  UNL1        0.0518
     22 H           4.9563    0.0297   -2.0003 H       1  UNL1        0.0518
     23 H           2.0058    0.4895   -0.0239 H       1  UNL1        0.1513
     24 H           1.2114   -2.4003   -0.2470 H       1  UNL1        0.0835
     25 H          -1.5632   -1.7512    0.3013 H       1  UNL1        0.0647
     26 H          -2.4222   -0.0801   -1.5271 H       1  UNL1        0.0592
     27 H          -1.6044    1.1993   -0.5543 H       1  UNL1        0.0592
     28 H          -3.8639    3.6260   -0.8154 H       1  UNL1        0.2220
     29 H          -5.1198   -0.0733   -1.8086 H       1  UNL1        0.2220
     30 H          -0.1206    0.8330    1.0473 H       1  UNL1        0.0647
     31 H          -1.1707    0.5299    3.0049 H       1  UNL1        0.2100
     32 H           1.4722   -0.6973    2.0517 H       1  UNL1        0.0663
     33 H           0.2849   -3.0829    1.3185 H       1  UNL1        0.2101
@<TRIPOS>BOND
     1     1     2    1
     2     2     3    1
     3     3     4    2
     4     3     5   am
     5     5     6    1
     6     6     7    1
     7     7     8    1
     8     8     9    1
     9     9    10    1
    10    10    11    1
    11    11    12    1
    12    11    13    1
    13    11    14    2
    14     8    15    1
    15    15    16    1
    16    15    17    1
    17    17    18    1
    18    17     6    1
    19     1    19    1
    20     1    20    1
    21     2    21    1
    22     2    22    1
    23     5    23    1
    24     6    24    1
    25     8    25    1
    26     9    26    1
    27     9    27    1
    28    12    28    1
    29    13    29    1
    30    15    30    1
    31    16    31    1
    32    17    32    1
    33    18    33    1
