@<TRIPOS>MOLECULE
*****
 34 37 0 0 0
SMALL
GASTEIGER

@<TRIPOS>ATOM
      1 O           4.3914    1.7295    2.4161 O.3     1  UNL1       -0.2498
      2 S           4.1054    2.0084    0.8027 S.O2    1  UNL1        0.1096
      3 O           5.4033    2.2706    0.1131 O.2     1  UNL1       -0.1421
      4 O           3.1911    3.2141    0.6423 O.2     1  UNL1       -0.1421
      5 C           3.3150    0.5878    0.1092 C.ar    1  UNL1        0.1175
      6 C           4.1788   -0.3846   -0.4113 C.ar    1  UNL1       -0.0326
      7 C           3.6058   -1.5098   -0.9623 C.ar    1  UNL1       -0.0380
      8 C           2.2222   -1.6225   -0.9742 C.ar    1  UNL1        0.0417
      9 N           1.5382   -2.7652   -1.5303 N.am    1  UNL1       -0.2809
     10 C           0.1544   -2.4951   -1.3483 C.2     1  UNL1        0.2508
     11 O          -0.7384   -3.2791   -1.7160 O.2     1  UNL1       -0.2698
     12 C           0.0408   -1.2207   -0.6994 C.2     1  UNL1        0.0708
     13 C          -1.0659   -0.6429   -0.3706 C.2     1  UNL1        0.0922
     14 N          -2.3760   -1.1284   -0.5735 N.pl3   1  UNL1       -0.3103
     15 C          -3.3978   -0.2476   -0.0941 C.ar    1  UNL1        0.0424
     16 C          -4.7677   -0.4015   -0.1272 C.ar    1  UNL1       -0.0398
     17 C          -5.4774    0.6286    0.4175 C.ar    1  UNL1       -0.0600
     18 C          -4.9096    1.7562    0.9697 C.ar    1  UNL1       -0.0610
     19 C          -3.5413    1.8186    0.9565 C.ar    1  UNL1       -0.0491
     20 C          -2.6902    0.8384    0.4324 C.ar    1  UNL1        0.0447
     21 C          -1.2662    0.6171    0.2738 C.2     1  UNL1        0.2095
     22 O          -0.5681    1.5181    0.7070 O.2     1  UNL1       -0.2852
     23 C           1.3531   -0.7023   -0.4798 C.ar    1  UNL1        0.0121
     24 C           1.9586    0.3765    0.0466 C.ar    1  UNL1       -0.0247
     25 H           5.3262    1.4501    2.5932 H       1  UNL1        0.2449
     26 H           5.2499   -0.2657   -0.3862 H       1  UNL1        0.0638
     27 H           4.2784   -2.2330   -1.3505 H       1  UNL1        0.0637
     28 H           1.9301   -3.6323   -1.9821 H       1  UNL1        0.1552
     29 H          -2.5635   -2.0447   -1.0311 H       1  UNL1        0.1523
     30 H          -5.2182   -1.2669   -0.5505 H       1  UNL1        0.0636
     31 H          -6.5567    0.5680    0.4221 H       1  UNL1        0.0618
     32 H          -5.4891    2.5657    1.3984 H       1  UNL1        0.0618
     33 H          -3.0913    2.6996    1.3877 H       1  UNL1        0.0625
     34 H           1.4748    1.1948    0.4767 H       1  UNL1        0.0644
@<TRIPOS>BOND
     1     1     2    1
     2     2     3    2
     3     2     4    2
     4     2     5    1
     5     5     6   ar
     6     6     7   ar
     7     7     8   ar
     8     8     9    1
     9     9    10   am
    10    10    11    2
    11    10    12    1
    12    12    13    2
    13    13    14    1
    14    14    15    1
    15    15    16   ar
    16    16    17   ar
    17    17    18   ar
    18    18    19   ar
    19    19    20   ar
    20    20    21    1
    21    21    22    2
    22    12    23    1
    23    23    24   ar
    24    24     5   ar
    25    23     8   ar
    26    21    13    1
    27    20    15   ar
    28     1    25    1
    29     6    26    1
    30     7    27    1
    31     9    28    1
    32    14    29    1
    33    16    30    1
    34    17    31    1
    35    18    32    1
    36    19    33    1
    37    24    34    1
