
     RDKit          3D

 94 96  0  0  0  0  0  0  0  0999 V2000
   12.4887    2.0240    0.4140 C   0  0  0  0  0  0  0  0  0  0  0  0
   11.8472    0.7267    0.7569 C   0  0  0  0  0  0  0  0  0  0  0  0
   12.1008   -0.2169   -0.0076 O   0  0  0  0  0  0  0  0  0  0  0  0
   11.0289    0.8058    1.9564 C   0  0  0  0  0  0  0  0  0  0  0  0
   10.6796   -0.5671    2.4535 C   0  0  0  0  0  0  0  0  0  0  0  0
   11.3020   -1.2196    1.6498 O   0  0  0  0  0  0  0  0  0  0  0  0
   10.0457   -1.9698    3.3232 S   0  0  0  0  0  0  0  0  0  0  0  0
    8.9525   -1.5802    4.6540 C   0  0  0  0  0  0  0  0  0  0  0  0
    7.5465   -1.3004    4.3303 C   0  0  0  0  0  0  0  0  0  0  0  0
    7.2744   -0.2805    3.3969 N   0  0  0  0  0  0  0  0  0  0  0  0
    7.3556    0.1392    2.0842 C   0  0  0  0  0  0  0  0  0  0  0  0
    7.8745   -0.7595    1.3479 O   0  0  0  0  0  0  0  0  0  0  0  0
    6.8793    1.4948    1.6244 C   0  0  0  0  0  0  0  0  0  0  0  0
    6.9056    1.4760    0.1383 C   0  0  0  0  0  0  0  0  0  0  0  0
    5.9745    0.4495   -0.3397 N   0  0  0  0  0  0  0  0  0  0  0  0
    4.5676    0.5771   -0.0352 C   0  0  0  0  0  0  0  0  0  0  0  0
    4.0834    1.5468    0.6370 O   0  0  0  0  0  0  0  0  0  0  0  0
    3.4547   -0.3212   -0.4072 C   0  0  2  0  0  0  0  0  0  0  0  0
    3.8759   -1.4190   -1.1596 O   0  0  0  0  0  0  0  0  0  0  0  0
    2.4430    0.4899   -1.2053 C   0  0  0  0  0  0  0  0  0  0  0  0
    3.0782    1.0515   -2.4331 C   0  0  0  0  0  0  0  0  0  0  0  0
    1.8151    1.5922   -0.3934 C   0  0  0  0  0  0  0  0  0  0  0  0
    1.3621   -0.4865   -1.5978 C   0  0  0  0  0  0  0  0  0  0  0  0
    0.3719    0.1434   -2.3387 O   0  0  0  0  0  0  0  0  0  0  0  0
   -1.0330   -0.8047   -2.3998 P   0  0  0  0  0  0  0  0  0  0  0  0
   -1.4736   -1.3150   -0.8305 O   0  0  0  0  0  0  0  0  0  0  0  0
   -0.7760   -2.0142   -3.3046 O   0  0  0  0  0  0  0  0  0  0  0  0
   -2.3490    0.0181   -3.0501 O   0  0  0  0  0  0  0  0  0  0  0  0
   -3.0317    1.0857   -1.9604 P   0  0  0  0  0  0  0  0  0  0  0  0
   -2.3976    2.6472   -2.1222 O   0  0  0  0  0  0  0  0  0  0  0  0
   -2.7379    0.6796   -0.5158 O   0  0  0  0  0  0  0  0  0  0  0  0
   -4.7109    1.0413   -2.1117 O   0  0  0  0  0  0  0  0  0  0  0  0
   -5.2872   -0.0224   -1.4253 C   0  0  0  0  0  0  0  0  0  0  0  0
   -6.7701    0.1111   -1.4708 C   0  0  1  0  0  0  0  0  0  0  0  0
   -7.4047   -0.9637   -0.7854 O   0  0  0  0  0  0  0  0  0  0  0  0
   -8.7384   -0.5882   -1.0798 C   0  0  2  0  0  0  0  0  0  0  0  0
   -8.7910    0.7929   -0.4751 C   0  0  2  0  0  0  0  0  0  0  0  0
   -9.6148    1.5507   -1.3059 O   0  0  0  0  0  0  0  0  0  0  0  0
   -7.3431    1.2711   -0.7236 C   0  0  2  0  0  0  0  0  0  0  0  0
   -7.3499    2.3892   -1.5443 O   0  0  0  0  0  0  0  0  0  0  0  0
   -6.7799    3.7606   -0.7402 P   0  0  0  0  0  0  0  0  0  0  0  0
   -7.4638    3.8711    0.8134 O   0  0  0  0  0  0  0  0  0  0  0  0
   -5.1111    3.6724   -0.6236 O   0  0  0  0  0  0  0  0  0  0  0  0
   -7.1295    4.9574   -1.5826 O   0  0  0  0  0  0  0  0  0  0  0  0
   -9.6821   -1.5160   -0.5440 N   0  0  0  0  0  0  0  0  0  0  0  0
  -10.9839   -1.2136   -0.4316 C   0  0  0  0  0  0  0  0  0  0  0  0
  -11.7055   -2.2124    0.0966 N   0  0  0  0  0  0  0  0  0  0  0  0
  -10.8304   -3.2116    0.3382 C   0  0  0  0  0  0  0  0  0  0  0  0
   -9.5969   -2.7643   -0.0607 C   0  0  0  0  0  0  0  0  0  0  0  0
   -8.5080   -3.5397    0.0520 N   0  0  0  0  0  0  0  0  0  0  0  0
   -8.5672   -4.7762    0.5544 C   0  0  0  0  0  0  0  0  0  0  0  0
   -9.7667   -5.2503    0.9590 N   0  0  0  0  0  0  0  0  0  0  0  0
  -10.8532   -4.4847    0.8497 C   0  0  0  0  0  0  0  0  0  0  0  0
  -12.1614   -4.9118    1.2562 N   0  0  0  0  0  0  0  0  0  0  0  0
   11.7657    2.8226    0.2585 H   0  0  0  0  0  0  0  0  0  0  0  0
   13.1566    1.8840   -0.4561 H   0  0  0  0  0  0  0  0  0  0  0  0
   13.1169    2.3158    1.3131 H   0  0  0  0  0  0  0  0  0  0  0  0
   11.5775    1.3036    2.8020 H   0  0  0  0  0  0  0  0  0  0  0  0
   10.0775    1.3437    1.7453 H   0  0  0  0  0  0  0  0  0  0  0  0
    9.4017   -0.6607    5.1853 H   0  0  0  0  0  0  0  0  0  0  0  0
    9.0093   -2.3698    5.4931 H   0  0  0  0  0  0  0  0  0  0  0  0
    6.9598   -1.1610    5.2984 H   0  0  0  0  0  0  0  0  0  0  0  0
    7.0768   -2.2668    3.8641 H   0  0  0  0  0  0  0  0  0  0  0  0
    6.7938    0.5091    3.9398 H   0  0  0  0  0  0  0  0  0  0  0  0
    7.5802    2.2644    2.0275 H   0  0  0  0  0  0  0  0  0  0  0  0
    5.8691    1.6389    2.0175 H   0  0  0  0  0  0  0  0  0  0  0  0
    7.9269    1.1935   -0.1956 H   0  0  0  0  0  0  0  0  0  0  0  0
    6.6769    2.4593   -0.2962 H   0  0  0  0  0  0  0  0  0  0  0  0
    6.1824   -0.4053   -0.8942 H   0  0  0  0  0  0  0  0  0  0  0  0
    2.9942   -0.6858    0.5358 H   0  0  0  0  0  0  0  0  0  0  0  0
    3.6919   -2.2723   -0.6695 H   0  0  0  0  0  0  0  0  0  0  0  0
    2.4198    0.9419   -3.3012 H   0  0  0  0  0  0  0  0  0  0  0  0
    3.2979    2.1461   -2.3185 H   0  0  0  0  0  0  0  0  0  0  0  0
    4.0350    0.5016   -2.6349 H   0  0  0  0  0  0  0  0  0  0  0  0
    2.3516    2.5229   -0.5997 H   0  0  0  0  0  0  0  0  0  0  0  0
    1.8033    1.3214    0.6949 H   0  0  0  0  0  0  0  0  0  0  0  0
    0.7406    1.7110   -0.6897 H   0  0  0  0  0  0  0  0  0  0  0  0
    0.9660   -0.9134   -0.6522 H   0  0  0  0  0  0  0  0  0  0  0  0
    1.8074   -1.3162   -2.1754 H   0  0  0  0  0  0  0  0  0  0  0  0
   -2.2261   -1.9756   -0.9023 H   0  0  0  0  0  0  0  0  0  0  0  0
   -2.0634    2.7069   -3.0758 H   0  0  0  0  0  0  0  0  0  0  0  0
   -4.9380   -0.9657   -1.8805 H   0  0  0  0  0  0  0  0  0  0  0  0
   -4.9040    0.0851   -0.3615 H   0  0  0  0  0  0  0  0  0  0  0  0
   -7.2066    0.0984   -2.4626 H   0  0  0  0  0  0  0  0  0  0  0  0
   -8.7521   -0.4998   -2.1983 H   0  0  0  0  0  0  0  0  0  0  0  0
   -9.0574    0.8129    0.5791 H   0  0  0  0  0  0  0  0  0  0  0  0
   -9.2106    1.5018   -2.2226 H   0  0  0  0  0  0  0  0  0  0  0  0
   -6.8542    1.4699    0.2537 H   0  0  0  0  0  0  0  0  0  0  0  0
   -7.3690    4.8359    1.0881 H   0  0  0  0  0  0  0  0  0  0  0  0
   -4.7857    3.5532    0.2945 H   0  0  0  0  0  0  0  0  0  0  0  0
  -11.5696   -0.3171   -0.6828 H   0  0  0  0  0  0  0  0  0  0  0  0
   -7.6391   -5.3244    0.6067 H   0  0  0  0  0  0  0  0  0  0  0  0
  -12.2064   -5.8931    1.6636 H   0  0  0  0  0  0  0  0  0  0  0  0
  -12.8559   -5.5724    1.6455 H   0  0  0  0  0  0  0  0  0  0  0  0
  1  2  1  0
  2  3  2  0
  2  4  1  0
  4  5  1  0
  5  6  2  0
  5  7  1  0
  7  8  1  0
  8  9  1  0
  9 10  1  0
 10 11  1  0
 11 12  2  0
 11 13  1  0
 13 14  1  0
 14 15  1  0
 15 16  1  0
 16 17  2  0
 16 18  1  0
 18 19  1  0
 18 20  1  0
 20 21  1  0
 20 22  1  0
 20 23  1  0
 23 24  1  0
 24 25  1  0
 25 26  1  0
 25 27  2  0
 25 28  1  0
 28 29  1  0
 29 30  1  0
 29 31  2  0
 29 32  1  0
 32 33  1  0
 33 34  1  0
 34 35  1  0
 35 36  1  0
 36 37  1  0
 37 38  1  0
 37 39  1  0
 39 40  1  0
 40 41  1  0
 41 42  1  0
 41 43  1  0
 41 44  2  0
 36 45  1  0
 45 46  1  0
 46 47  2  0
 47 48  1  0
 48 49  2  0
 49 50  1  0
 50 51  2  0
 51 52  1  0
 52 53  2  0
 53 54  1  0
 39 34  1  0
 49 45  1  0
 53 48  1  0
  1 55  1  0
  1 56  1  0
  1 57  1  0
  4 58  1  0
  4 59  1  0
  8 60  1  0
  8 61  1  0
  9 62  1  0
  9 63  1  0
 10 64  1  0
 13 65  1  0
 13 66  1  0
 14 67  1  0
 14 68  1  0
 15 69  1  0
 18 70  1  1
 19 71  1  0
 21 72  1  0
 21 73  1  0
 21 74  1  0
 22 75  1  0
 22 76  1  0
 22 77  1  0
 23 78  1  0
 23 79  1  0
 26 80  1  0
 30 81  1  0
 33 82  1  0
 33 83  1  0
 34 84  1  6
 36 85  1  6
 37 86  1  1
 38 87  1  0
 39 88  1  1
 42 89  1  0
 43 90  1  0
 46 91  1  0
 51 92  1  0
 54 93  1  0
 54 94  1  0
M  END
$$$$
