@<TRIPOS>MOLECULE
*****
 34 34 0 0 0
SMALL
GASTEIGER

@<TRIPOS>ATOM
      1 C          -0.1742    0.0062    0.3864 C.3     1  UNL1        0.0653
      2 C           1.0523   -0.8037    0.7560 C.3     1  UNL1       -0.0146
      3 C           2.3222   -0.3299    0.2347 C.ar    1  UNL1       -0.0466
      4 C           3.1125   -0.6606   -0.8433 C.ar    1  UNL1       -0.0586
      5 C           4.2863   -0.0346   -1.1633 C.ar    1  UNL1       -0.0615
      6 C           4.7553    0.9937   -0.3971 C.ar    1  UNL1       -0.0617
      7 C           4.0089    1.3767    0.7040 C.ar    1  UNL1       -0.0615
      8 C           2.8257    0.7247    1.0017 C.ar    1  UNL1       -0.0586
      9 C          -1.3252   -0.6786    1.0448 C.3     1  UNL1        0.0208
     10 C          -2.6722   -0.1009    0.8843 C.3     1  UNL1        0.2322
     11 O          -2.8257    1.2023    1.3507 O.3     1  UNL1       -0.3598
     12 O          -3.5171   -0.8950    1.7420 O.3     1  UNL1       -0.3598
     13 C          -3.2763   -0.2746   -0.4723 C.3     1  UNL1        0.2603
     14 N          -4.7193    0.0200   -0.3205 N.pl3   1  UNL1        0.0434
     15 O          -4.9153    1.3190    0.1365 O.co2   1  UNL1       -0.5816
     16 O          -5.6046   -0.8295   -0.5845 O.2     1  UNL1        0.0345
     17 C          -0.2692    0.1464   -1.0775 C.2     1  UNL1        0.3083
     18 O          -0.5574    0.4198   -2.4156 O.3     1  UNL1       -0.4804
     19 O           0.4529   -0.3281   -1.9909 O.2     1  UNL1       -0.2507
     20 H          -0.0707    1.0192    0.8801 H       1  UNL1        0.0418
     21 H           1.1167   -0.9448    1.8532 H       1  UNL1        0.0321
     22 H           0.9124   -1.8545    0.3523 H       1  UNL1        0.0321
     23 H           2.7310   -1.4902   -1.4168 H       1  UNL1        0.0620
     24 H           4.7975   -0.4055   -2.0422 H       1  UNL1        0.0618
     25 H           5.6884    1.4127   -0.7419 H       1  UNL1        0.0618
     26 H           4.4306    2.1930    1.2694 H       1  UNL1        0.0618
     27 H           2.3722    1.1473    1.8892 H       1  UNL1        0.0620
     28 H          -1.3200   -1.7510    0.6978 H       1  UNL1        0.0327
     29 H          -1.0623   -0.7428    2.1400 H       1  UNL1        0.0327
     30 H          -1.9399    1.5616    1.6435 H       1  UNL1        0.2130
     31 H          -3.3332   -1.8232    1.3897 H       1  UNL1        0.2130
     32 H          -3.1475   -1.2890   -0.8668 H       1  UNL1        0.1144
     33 H          -2.9358    0.4934   -1.1994 H       1  UNL1        0.1144
     34 H          -1.1990    1.2005   -2.6647 H       1  UNL1        0.2951
@<TRIPOS>UNITY_ATOM_ATTR
14 1
charge 1
15 1
charge -1
@<TRIPOS>BOND
     1     1     2    1
     2     2     3    1
     3     3     4   ar
     4     4     5   ar
     5     5     6   ar
     6     6     7   ar
     7     7     8   ar
     8     1     9    1
     9     9    10    1
    10    10    11    1
    11    10    12    1
    12    10    13    1
    13    13    14    1
    14    14    15    1
    15    14    16    2
    16     1    17    1
    17    17    18    1
    18    17    19    2
    19     8     3   ar
    20     1    20    1
    21     2    21    1
    22     2    22    1
    23     4    23    1
    24     5    24    1
    25     6    25    1
    26     7    26    1
    27     8    27    1
    28     9    28    1
    29     9    29    1
    30    11    30    1
    31    12    31    1
    32    13    32    1
    33    13    33    1
    34    18    34    1
