
     RDKit          3D

 34 34  0  0  0  0  0  0  0  0999 V2000
   -0.1742    0.0062    0.3864 C   0  0  2  0  0  0  0  0  0  0  0  0
    1.0523   -0.8037    0.7560 C   0  0  0  0  0  0  0  0  0  0  0  0
    2.3222   -0.3299    0.2347 C   0  0  0  0  0  0  0  0  0  0  0  0
    3.1125   -0.6606   -0.8433 C   0  0  0  0  0  0  0  0  0  0  0  0
    4.2863   -0.0346   -1.1633 C   0  0  0  0  0  0  0  0  0  0  0  0
    4.7553    0.9937   -0.3971 C   0  0  0  0  0  0  0  0  0  0  0  0
    4.0089    1.3767    0.7040 C   0  0  0  0  0  0  0  0  0  0  0  0
    2.8257    0.7247    1.0017 C   0  0  0  0  0  0  0  0  0  0  0  0
   -1.3252   -0.6786    1.0448 C   0  0  0  0  0  0  0  0  0  0  0  0
   -2.6722   -0.1009    0.8843 C   0  0  0  0  0  0  0  0  0  0  0  0
   -2.8257    1.2023    1.3507 O   0  0  0  0  0  0  0  0  0  0  0  0
   -3.5171   -0.8950    1.7420 O   0  0  0  0  0  0  0  0  0  0  0  0
   -3.2763   -0.2746   -0.4723 C   0  0  0  0  0  0  0  0  0  0  0  0
   -4.7193    0.0200   -0.3205 N   0  0  0  0  0  4  0  0  0  0  0  0
   -4.9153    1.3190    0.1365 O   0  0  0  0  0  1  0  0  0  0  0  0
   -5.6046   -0.8295   -0.5845 O   0  0  0  0  0  0  0  0  0  0  0  0
   -0.2692    0.1464   -1.0775 C   0  0  0  0  0  0  0  0  0  0  0  0
   -0.5574    0.4198   -2.4156 O   0  0  0  0  0  0  0  0  0  0  0  0
    0.4529   -0.3281   -1.9909 O   0  0  0  0  0  0  0  0  0  0  0  0
   -0.0707    1.0192    0.8801 H   0  0  0  0  0  0  0  0  0  0  0  0
    1.1167   -0.9448    1.8532 H   0  0  0  0  0  0  0  0  0  0  0  0
    0.9124   -1.8545    0.3523 H   0  0  0  0  0  0  0  0  0  0  0  0
    2.7310   -1.4902   -1.4168 H   0  0  0  0  0  0  0  0  0  0  0  0
    4.7975   -0.4055   -2.0422 H   0  0  0  0  0  0  0  0  0  0  0  0
    5.6884    1.4127   -0.7419 H   0  0  0  0  0  0  0  0  0  0  0  0
    4.4306    2.1930    1.2694 H   0  0  0  0  0  0  0  0  0  0  0  0
    2.3722    1.1473    1.8892 H   0  0  0  0  0  0  0  0  0  0  0  0
   -1.3200   -1.7510    0.6978 H   0  0  0  0  0  0  0  0  0  0  0  0
   -1.0623   -0.7428    2.1400 H   0  0  0  0  0  0  0  0  0  0  0  0
   -1.9399    1.5616    1.6435 H   0  0  0  0  0  0  0  0  0  0  0  0
   -3.3332   -1.8232    1.3897 H   0  0  0  0  0  0  0  0  0  0  0  0
   -3.1475   -1.2890   -0.8668 H   0  0  0  0  0  0  0  0  0  0  0  0
   -2.9358    0.4934   -1.1994 H   0  0  0  0  0  0  0  0  0  0  0  0
   -1.1990    1.2005   -2.6647 H   0  0  0  0  0  0  0  0  0  0  0  0
  1  2  1  0
  2  3  1  0
  3  4  2  0
  4  5  1  0
  5  6  2  0
  6  7  1  0
  7  8  2  0
  1  9  1  0
  9 10  1  0
 10 11  1  0
 10 12  1  0
 10 13  1  0
 13 14  1  0
 14 15  1  0
 14 16  2  0
  1 17  1  0
 17 18  1  0
 17 19  2  0
  8  3  1  0
  1 20  1  1
  2 21  1  0
  2 22  1  0
  4 23  1  0
  5 24  1  0
  6 25  1  0
  7 26  1  0
  8 27  1  0
  9 28  1  0
  9 29  1  0
 11 30  1  0
 12 31  1  0
 13 32  1  0
 13 33  1  0
 18 34  1  0
M  CHG  2  14   1  15  -1
M  END
$$$$
