
     RDKit          3D

 43 46  0  0  0  0  0  0  0  0999 V2000
   -3.9793    3.1968   -0.2776 C   0  0  0  0  0  0  0  0  0  0  0  0
   -2.5025    3.3046   -0.2539 C   0  0  0  0  0  0  0  0  0  0  0  0
   -1.9026    4.5352   -0.2814 C   0  0  0  0  0  0  0  0  0  0  0  0
   -0.5499    4.7089   -0.2621 C   0  0  0  0  0  0  0  0  0  0  0  0
    0.2188    6.2828   -0.2973 Cl  0  0  0  0  0  0  0  0  0  0  0  0
    0.2817    3.5883   -0.2118 C   0  0  0  0  0  0  0  0  0  0  0  0
   -0.2922    2.3240   -0.1827 C   0  0  0  0  0  0  0  0  0  0  0  0
    0.4694    1.1850   -0.1331 C   0  0  0  0  0  0  0  0  0  0  0  0
    1.9223    1.2136   -0.1075 C   0  0  0  0  0  0  0  0  0  0  0  0
    2.6579    2.2115   -0.1253 O   0  0  0  0  0  0  0  0  0  0  0  0
    2.6358   -0.0121   -0.0560 O   0  0  0  0  0  0  0  0  0  0  0  0
    4.0512   -0.0034   -0.0304 C   0  0  0  0  0  0  0  0  0  0  0  0
    4.6068   -1.3598    0.0224 C   0  0  0  0  0  0  0  0  0  0  0  0
    4.8698   -2.0218    1.2240 C   0  0  0  0  0  0  0  0  0  0  0  0
    5.3811   -3.2640    0.9109 C   0  0  0  0  0  0  0  0  0  0  0  0
    5.4087   -3.3085   -0.4623 C   0  0  0  0  0  0  0  0  0  0  0  0
    4.9491   -2.1788   -0.9441 O   0  0  0  0  0  0  0  0  0  0  0  0
   -0.1888   -0.0453   -0.1067 C   0  0  0  0  0  0  0  0  0  0  0  0
   -1.5506   -0.1481   -0.1284 C   0  0  0  0  0  0  0  0  0  0  0  0
   -2.2449   -1.4365   -0.1008 C   0  0  0  0  0  0  0  0  0  0  0  0
   -1.5676   -2.6217   -0.0513 C   0  0  0  0  0  0  0  0  0  0  0  0
   -2.2322   -3.8529   -0.0249 C   0  0  0  0  0  0  0  0  0  0  0  0
   -3.6028   -3.9016   -0.0485 C   0  0  0  0  0  0  0  0  0  0  0  0
   -4.4561   -5.6065   -0.0108 Br  0  0  0  0  0  0  0  0  0  0  0  0
   -4.2891   -2.7210   -0.0980 C   0  0  0  0  0  0  0  0  0  0  0  0
   -3.6292   -1.5017   -0.1241 C   0  0  0  0  0  0  0  0  0  0  0  0
   -2.3005    0.9912   -0.1778 N   0  0  0  0  0  0  0  0  0  0  0  0
   -1.6734    2.1799   -0.2035 C   0  0  0  0  0  0  0  0  0  0  0  0
   -4.3224    2.1718   -0.1061 H   0  0  0  0  0  0  0  0  0  0  0  0
   -4.4154    3.8779    0.4640 H   0  0  0  0  0  0  0  0  0  0  0  0
   -4.3272    3.5693   -1.2834 H   0  0  0  0  0  0  0  0  0  0  0  0
   -2.5174    5.4338   -0.3208 H   0  0  0  0  0  0  0  0  0  0  0  0
    1.3363    3.7185   -0.1966 H   0  0  0  0  0  0  0  0  0  0  0  0
    4.4726    0.4966   -0.9351 H   0  0  0  0  0  0  0  0  0  0  0  0
    4.4107    0.5704    0.8347 H   0  0  0  0  0  0  0  0  0  0  0  0
    4.7060   -1.6389    2.2300 H   0  0  0  0  0  0  0  0  0  0  0  0
    5.6761   -3.9962    1.6492 H   0  0  0  0  0  0  0  0  0  0  0  0
    5.7702   -4.1810   -1.0169 H   0  0  0  0  0  0  0  0  0  0  0  0
    0.4486   -0.9400   -0.0670 H   0  0  0  0  0  0  0  0  0  0  0  0
   -0.4924   -2.6891   -0.0295 H   0  0  0  0  0  0  0  0  0  0  0  0
   -1.6656   -4.7736    0.0143 H   0  0  0  0  0  0  0  0  0  0  0  0
   -5.3731   -2.7762   -0.1162 H   0  0  0  0  0  0  0  0  0  0  0  0
   -4.1979   -0.5814   -0.1633 H   0  0  0  0  0  0  0  0  0  0  0  0
  1  2  1  0
  2  3  2  0
  3  4  1  0
  4  5  1  0
  4  6  2  0
  6  7  1  0
  7  8  2  0
  8  9  1  0
  9 10  2  0
  9 11  1  0
 11 12  1  0
 12 13  1  0
 13 14  2  0
 14 15  1  0
 15 16  2  0
 16 17  1  0
  8 18  1  0
 18 19  2  0
 19 20  1  0
 20 21  2  0
 21 22  1  0
 22 23  2  0
 23 24  1  0
 23 25  1  0
 25 26  2  0
 19 27  1  0
 27 28  2  0
 28  2  1  0
 28  7  1  0
 17 13  1  0
 26 20  1  0
  1 29  1  0
  1 30  1  0
  1 31  1  0
  3 32  1  0
  6 33  1  0
 12 34  1  0
 12 35  1  0
 14 36  1  0
 15 37  1  0
 16 38  1  0
 18 39  1  0
 21 40  1  0
 22 41  1  0
 25 42  1  0
 26 43  1  0
M  END
$$$$
