@<TRIPOS>MOLECULE
*****
 43 46 0 0 0
SMALL
GASTEIGER

@<TRIPOS>ATOM
      1 C          -3.9793    3.1968   -0.2776 C.3     1  UNL1       -0.0376
      2 C          -2.5025    3.3046   -0.2539 C.ar    1  UNL1       -0.0231
      3 C          -1.9026    4.5352   -0.2814 C.ar    1  UNL1       -0.0384
      4 C          -0.5499    4.7089   -0.2621 C.ar    1  UNL1        0.0419
      5 CL          0.2188    6.2828   -0.2973 Cl      1  UNL1       -0.0835
      6 C           0.2817    3.5883   -0.2118 C.ar    1  UNL1       -0.0334
      7 C          -0.2922    2.3240   -0.1827 C.ar    1  UNL1        0.0160
      8 C           0.4694    1.1850   -0.1331 C.ar    1  UNL1        0.0702
      9 C           1.9223    1.2136   -0.1075 C.2     1  UNL1        0.3403
     10 O           2.6579    2.2115   -0.1253 O.2     1  UNL1       -0.2449
     11 O           2.6358   -0.0121   -0.0560 O.3     1  UNL1       -0.4533
     12 C           4.0512   -0.0034   -0.0304 C.3     1  UNL1        0.1501
     13 C           4.6068   -1.3598    0.0224 C.ar    1  UNL1        0.1422
     14 C           4.8698   -2.0218    1.2240 C.ar    1  UNL1       -0.0173
     15 C           5.3811   -3.2640    0.9109 C.ar    1  UNL1       -0.0235
     16 C           5.4087   -3.3085   -0.4623 C.ar    1  UNL1        0.0922
     17 O           4.9491   -2.1788   -0.9441 O.2     1  UNL1       -0.4644
     18 C          -0.1888   -0.0453   -0.1067 C.ar    1  UNL1       -0.0211
     19 C          -1.5506   -0.1481   -0.1284 C.ar    1  UNL1        0.0725
     20 C          -2.2449   -1.4365   -0.1008 C.ar    1  UNL1        0.0004
     21 C          -1.5676   -2.6217   -0.0513 C.ar    1  UNL1       -0.0515
     22 C          -2.2322   -3.8529   -0.0249 C.ar    1  UNL1       -0.0471
     23 C          -3.6028   -3.9016   -0.0485 C.ar    1  UNL1        0.0179
     24 BR         -4.4561   -5.6065   -0.0108 Br      1  UNL1       -0.0503
     25 C          -4.2891   -2.7210   -0.0980 C.ar    1  UNL1       -0.0471
     26 C          -3.6292   -1.5017   -0.1241 C.ar    1  UNL1       -0.0515
     27 N          -2.3005    0.9912   -0.1778 N.ar    1  UNL1       -0.2464
     28 C          -1.6734    2.1799   -0.2035 C.ar    1  UNL1        0.0754
     29 H          -4.3224    2.1718   -0.1061 H       1  UNL1        0.0278
     30 H          -4.4154    3.8779    0.4640 H       1  UNL1        0.0278
     31 H          -4.3272    3.5693   -1.2834 H       1  UNL1        0.0278
     32 H          -2.5174    5.4338   -0.3208 H       1  UNL1        0.0635
     33 H           1.3363    3.7185   -0.1966 H       1  UNL1        0.0639
     34 H           4.4726    0.4966   -0.9351 H       1  UNL1        0.0780
     35 H           4.4107    0.5704    0.8347 H       1  UNL1        0.0780
     36 H           4.7060   -1.6389    2.2300 H       1  UNL1        0.0653
     37 H           5.6761   -3.9962    1.6492 H       1  UNL1        0.0649
     38 H           5.7702   -4.1810   -1.0169 H       1  UNL1        0.1029
     39 H           0.4486   -0.9400   -0.0670 H       1  UNL1        0.0647
     40 H          -0.4924   -2.6891   -0.0295 H       1  UNL1        0.0624
     41 H          -1.6656   -4.7736    0.0143 H       1  UNL1        0.0629
     42 H          -5.3731   -2.7762   -0.1162 H       1  UNL1        0.0629
     43 H          -4.1979   -0.5814   -0.1633 H       1  UNL1        0.0624
@<TRIPOS>BOND
     1     1     2    1
     2     2     3   ar
     3     3     4   ar
     4     4     5    1
     5     4     6   ar
     6     6     7   ar
     7     7     8   ar
     8     8     9    1
     9     9    10    2
    10     9    11    1
    11    11    12    1
    12    12    13    1
    13    13    14   ar
    14    14    15   ar
    15    15    16   ar
    16    16    17   ar
    17     8    18   ar
    18    18    19   ar
    19    19    20    1
    20    20    21   ar
    21    21    22   ar
    22    22    23   ar
    23    23    24    1
    24    23    25   ar
    25    25    26   ar
    26    19    27   ar
    27    27    28   ar
    28    28     2   ar
    29    28     7   ar
    30    17    13   ar
    31    26    20   ar
    32     1    29    1
    33     1    30    1
    34     1    31    1
    35     3    32    1
    36     6    33    1
    37    12    34    1
    38    12    35    1
    39    14    36    1
    40    15    37    1
    41    16    38    1
    42    18    39    1
    43    21    40    1
    44    22    41    1
    45    25    42    1
    46    26    43    1
