@<TRIPOS>MOLECULE
*****
 54 57 0 0 0
SMALL
GASTEIGER

@<TRIPOS>ATOM
      1 C          -6.7049    4.6926    2.5249 C.3     1  UNL1       -0.0319
      2 C          -5.4505    4.1266    2.2391 C.ar    1  UNL1        0.0068
      3 C          -4.1315    4.3697    2.7597 C.ar    1  UNL1        0.0383
      4 N          -3.1856    3.6933    2.3042 N.ar    1  UNL1       -0.2471
      5 C          -3.2336    2.7826    1.4067 C.ar    1  UNL1        0.1086
      6 C          -2.2957    1.8686    0.7202 C.ar    1  UNL1        0.0113
      7 C          -2.7557    1.0018   -0.2305 C.ar    1  UNL1       -0.0102
      8 C          -1.8677    0.1379   -0.8752 C.ar    1  UNL1        0.1224
      9 O          -2.3385   -0.7308   -1.8304 O.3     1  UNL1       -0.4864
     10 C          -1.6218   -1.6586   -2.5752 C.3     1  UNL1        0.1254
     11 C          -1.9271   -1.3441   -4.0509 C.3     1  UNL1        0.0099
     12 C          -3.2611   -2.0071   -4.2026 C.3     1  UNL1        0.0512
     13 O          -3.3991   -2.9905   -3.2665 O.3     1  UNL1       -0.3760
     14 C          -2.2555   -3.0347   -2.4860 C.3     1  UNL1        0.0846
     15 C          -0.5272    0.1544   -0.5573 C.ar    1  UNL1       -0.0078
     16 C          -0.0667    1.0288    0.4013 C.ar    1  UNL1        0.0408
     17 C           1.3239    1.1157    0.8047 C.2     1  UNL1        0.2447
     18 O           1.6419    1.9364    1.7002 O.2     1  UNL1       -0.2702
     19 N           2.3740    0.3378    0.2636 N.am    1  UNL1       -0.3047
     20 C           3.7502    0.4423    0.6853 C.3     1  UNL1        0.0487
     21 C           4.6641    0.8833   -0.4339 C.3     1  UNL1       -0.0423
     22 C           4.2830   -0.8408    1.2079 C.ar    1  UNL1        0.0087
     23 C           5.0058   -0.8965    2.3835 C.ar    1  UNL1        0.0363
     24 N           5.4967   -2.0535    2.8701 N.ar    1  UNL1       -0.2321
     25 C           5.3037   -3.2188    2.2274 C.ar    1  UNL1        0.2339
     26 C           5.8532   -4.4970    2.7768 C.3     1  UNL1        0.4522
     27 F           7.1595   -4.6761    2.3083 F       1  UNL1       -0.1632
     28 F           5.1210   -5.5545    2.2757 F       1  UNL1       -0.1632
     29 F           5.8826   -4.4530    4.1415 F       1  UNL1       -0.1632
     30 N           4.6020   -3.1818    1.0811 N.ar    1  UNL1       -0.2321
     31 C           4.0929   -2.0510    0.5573 C.ar    1  UNL1        0.0363
     32 C          -0.9698    1.8648    1.0151 C.ar    1  UNL1       -0.0397
     33 S          -5.0386    2.7987    1.0339 S.2     1  UNL1       -0.0725
     34 H          -7.5234    3.9807    2.2325 H       1  UNL1        0.0283
     35 H          -6.7868    4.8940    3.6336 H       1  UNL1        0.0283
     36 H          -6.9165    5.6473    2.0025 H       1  UNL1        0.0283
     37 H          -4.0599    5.1568    3.5418 H       1  UNL1        0.0838
     38 H          -3.8074    1.0005   -0.4691 H       1  UNL1        0.0661
     39 H          -0.5511   -1.7232   -2.3997 H       1  UNL1        0.0757
     40 H          -1.1963   -1.8893   -4.6910 H       1  UNL1        0.0324
     41 H          -1.9353   -0.2631   -4.2265 H       1  UNL1        0.0324
     42 H          -3.4193   -2.3940   -5.2415 H       1  UNL1        0.0561
     43 H          -4.0462   -1.2252   -4.0032 H       1  UNL1        0.0561
     44 H          -2.4452   -3.2536   -1.4357 H       1  UNL1        0.0597
     45 H          -1.5525   -3.7754   -2.9225 H       1  UNL1        0.0597
     46 H           0.1901   -0.4820   -1.0183 H       1  UNL1        0.0662
     47 H           2.1255   -0.3450   -0.4807 H       1  UNL1        0.1496
     48 H           3.8199    1.2020    1.4877 H       1  UNL1        0.0546
     49 H           4.3670    0.2652   -1.3315 H       1  UNL1        0.0251
     50 H           5.6897    0.6037   -0.2021 H       1  UNL1        0.0251
     51 H           4.4843    1.9394   -0.6475 H       1  UNL1        0.0251
     52 H           5.1652    0.0501    2.9098 H       1  UNL1        0.0834
     53 H           3.5273   -2.0192   -0.3661 H       1  UNL1        0.0834
     54 H          -0.6531    2.5840    1.7893 H       1  UNL1        0.0632
@<TRIPOS>BOND
     1     1     2    1
     2     2     3   ar
     3     3     4   ar
     4     4     5   ar
     5     5     6    1
     6     6     7   ar
     7     7     8   ar
     8     8     9    1
     9     9    10    1
    10    10    11    1
    11    11    12    1
    12    12    13    1
    13    13    14    1
    14     8    15   ar
    15    15    16   ar
    16    16    17    1
    17    17    18    2
    18    17    19   am
    19    19    20    1
    20    20    21    1
    21    20    22    1
    22    22    23   ar
    23    23    24   ar
    24    24    25   ar
    25    25    26    1
    26    26    27    1
    27    26    28    1
    28    26    29    1
    29    25    30   ar
    30    30    31   ar
    31    16    32   ar
    32     5    33   ar
    33    33     2   ar
    34    32     6   ar
    35    14    10    1
    36    31    22   ar
    37     1    34    1
    38     1    35    1
    39     1    36    1
    40     3    37    1
    41     7    38    1
    42    10    39    1
    43    11    40    1
    44    11    41    1
    45    12    42    1
    46    12    43    1
    47    14    44    1
    48    14    45    1
    49    15    46    1
    50    19    47    1
    51    20    48    1
    52    21    49    1
    53    21    50    1
    54    21    51    1
    55    23    52    1
    56    31    53    1
    57    32    54    1
