
     RDKit          3D

 55 58  0  0  0  0  0  0  0  0999 V2000
    6.4160   -0.5693    3.1944 C   0  0  0  0  0  0  0  0  0  0  0  0
    6.3948    0.4969    2.4528 C   0  0  0  0  0  0  0  0  0  0  0  0
    5.6898    0.5580    1.1966 C   0  0  0  0  0  0  0  0  0  0  0  0
    4.9945   -0.4949    0.6918 C   0  0  0  0  0  0  0  0  0  0  0  0
    4.3244   -0.3899   -0.5315 C   0  0  0  0  0  0  0  0  0  0  0  0
    4.3399    0.7669   -1.2662 C   0  0  0  0  0  0  0  0  0  0  0  0
    3.6405    0.8664   -2.5331 C   0  0  0  0  0  0  0  0  0  0  0  0
    2.2686    1.3362   -2.3780 N   0  0  0  0  0  0  0  0  0  0  0  0
    1.8059    2.6862   -2.3804 C   0  0  0  0  0  0  0  0  0  0  0  0
    2.5372    3.7034   -2.5199 O   0  0  0  0  0  0  0  0  0  0  0  0
    0.3636    2.6725   -2.1959 C   0  0  0  0  0  0  0  0  0  0  0  0
   -0.4098    3.6504   -2.1417 O   0  0  0  0  0  0  0  0  0  0  0  0
   -0.0271    1.2846   -2.0831 C   0  0  0  0  0  0  0  0  0  0  0  0
   -1.2946    0.7189   -1.8964 C   0  0  0  0  0  0  0  0  0  0  0  0
   -1.4485   -0.6390   -1.8159 C   0  0  0  0  0  0  0  0  0  0  0  0
   -2.9769   -1.4399   -1.5851 S   0  0  0  0  0  6  0  0  0  0  0  0
   -4.0218   -0.5953   -2.2903 O   0  0  0  0  0  0  0  0  0  0  0  0
   -2.9281   -2.7447   -2.3550 O   0  0  0  0  0  0  0  0  0  0  0  0
   -3.4324   -1.7094   -0.0300 N   0  0  0  0  0  0  0  0  0  0  0  0
   -2.6977   -2.5030    0.8427 C   0  0  0  0  0  0  0  0  0  0  0  0
   -3.3002   -2.1897    2.2023 C   0  0  0  0  0  0  0  0  0  0  0  0
   -4.7456   -1.9211    1.8416 C   0  0  0  0  0  0  0  0  0  0  0  0
   -4.6142   -1.2169    0.5098 C   0  0  1  0  0  0  0  0  0  0  0  0
   -4.7187    0.2775    0.6218 C   0  0  0  0  0  0  0  0  0  0  0  0
   -5.9614    0.5744    1.1791 O   0  0  0  0  0  0  0  0  0  0  0  0
   -6.0823    1.9594    1.2928 C   0  0  0  0  0  0  0  0  0  0  0  0
   -0.3151   -1.4150   -1.9254 C   0  0  0  0  0  0  0  0  0  0  0  0
    0.9356   -0.8629   -2.1093 C   0  0  0  0  0  0  0  0  0  0  0  0
    1.1141    0.5218   -2.1940 C   0  0  0  0  0  0  0  0  0  0  0  0
    5.0441    1.8283   -0.7518 C   0  0  0  0  0  0  0  0  0  0  0  0
    5.7063    1.7281    0.4547 C   0  0  0  0  0  0  0  0  0  0  0  0
    5.9241   -1.4753    2.9454 H   0  0  0  0  0  0  0  0  0  0  0  0
    6.9702   -0.5505    4.1379 H   0  0  0  0  0  0  0  0  0  0  0  0
    6.9308    1.3841    2.7903 H   0  0  0  0  0  0  0  0  0  0  0  0
    4.9492   -1.4412    1.2366 H   0  0  0  0  0  0  0  0  0  0  0  0
    3.7984   -1.2771   -0.8553 H   0  0  0  0  0  0  0  0  0  0  0  0
    4.1148    1.5251   -3.2865 H   0  0  0  0  0  0  0  0  0  0  0  0
    3.5823   -0.1439   -3.0226 H   0  0  0  0  0  0  0  0  0  0  0  0
   -2.1766    1.3289   -1.8116 H   0  0  0  0  0  0  0  0  0  0  0  0
   -2.9385   -3.5874    0.6561 H   0  0  0  0  0  0  0  0  0  0  0  0
   -1.6068   -2.4269    0.8267 H   0  0  0  0  0  0  0  0  0  0  0  0
   -3.2165   -3.0472    2.9033 H   0  0  0  0  0  0  0  0  0  0  0  0
   -2.8869   -1.2561    2.6285 H   0  0  0  0  0  0  0  0  0  0  0  0
   -5.2509   -1.2914    2.6011 H   0  0  0  0  0  0  0  0  0  0  0  0
   -5.2830   -2.8974    1.7137 H   0  0  0  0  0  0  0  0  0  0  0  0
   -5.4860   -1.5730   -0.1102 H   0  0  0  0  0  0  0  0  0  0  0  0
   -4.6464    0.6887   -0.4006 H   0  0  0  0  0  0  0  0  0  0  0  0
   -3.9167    0.6551    1.2855 H   0  0  0  0  0  0  0  0  0  0  0  0
   -6.0044    2.4665    0.2931 H   0  0  0  0  0  0  0  0  0  0  0  0
   -7.0310    2.2536    1.7767 H   0  0  0  0  0  0  0  0  0  0  0  0
   -5.2378    2.3606    1.8909 H   0  0  0  0  0  0  0  0  0  0  0  0
   -0.3570   -2.5126   -1.8708 H   0  0  0  0  0  0  0  0  0  0  0  0
    1.8293   -1.4636   -2.1974 H   0  0  0  0  0  0  0  0  0  0  0  0
    5.0797    2.7701   -1.3103 H   0  0  0  0  0  0  0  0  0  0  0  0
    6.2588    2.5720    0.8510 H   0  0  0  0  0  0  0  0  0  0  0  0
  1  2  2  3
  2  3  1  0
  3  4  2  0
  4  5  1  0
  5  6  2  0
  6  7  1  0
  7  8  1  0
  8  9  1  0
  9 10  2  0
  9 11  1  0
 11 12  2  0
 11 13  1  0
 13 14  2  0
 14 15  1  0
 15 16  1  0
 16 17  2  0
 16 18  2  0
 16 19  1  0
 19 20  1  0
 20 21  1  0
 21 22  1  0
 22 23  1  0
 23 24  1  0
 24 25  1  0
 25 26  1  0
 15 27  2  0
 27 28  1  0
 28 29  2  0
  6 30  1  0
 30 31  2  0
 31  3  1  0
 29  8  1  0
 29 13  1  0
 23 19  1  0
  1 32  1  0
  1 33  1  0
  2 34  1  0
  4 35  1  0
  5 36  1  0
  7 37  1  0
  7 38  1  0
 14 39  1  0
 20 40  1  0
 20 41  1  0
 21 42  1  0
 21 43  1  0
 22 44  1  0
 22 45  1  0
 23 46  1  6
 24 47  1  0
 24 48  1  0
 26 49  1  0
 26 50  1  0
 26 51  1  0
 27 52  1  0
 28 53  1  0
 30 54  1  0
 31 55  1  0
M  END
$$$$
