@<TRIPOS>MOLECULE
*****
 55 58 0 0 0
SMALL
GASTEIGER

@<TRIPOS>ATOM
      1 C           6.4160   -0.5693    3.1944 C.2     1  UNL1       -0.0981
      2 C           6.3948    0.4969    2.4528 C.2     1  UNL1       -0.0617
      3 C           5.6898    0.5580    1.1966 C.ar    1  UNL1       -0.0256
      4 C           4.9945   -0.4949    0.6918 C.ar    1  UNL1       -0.0543
      5 C           4.3244   -0.3899   -0.5315 C.ar    1  UNL1       -0.0565
      6 C           4.3399    0.7669   -1.2662 C.ar    1  UNL1       -0.0297
      7 C           3.6405    0.8664   -2.5331 C.3     1  UNL1        0.0452
      8 N           2.2686    1.3362   -2.3780 N.am    1  UNL1       -0.2598
      9 C           1.8059    2.6862   -2.3804 C.2     1  UNL1        0.2915
     10 O           2.5372    3.7034   -2.5199 O.2     1  UNL1       -0.2661
     11 C           0.3636    2.6725   -2.1959 C.2     1  UNL1        0.2496
     12 O          -0.4098    3.6504   -2.1417 O.2     1  UNL1       -0.2817
     13 C          -0.0271    1.2846   -2.0831 C.ar    1  UNL1        0.0502
     14 C          -1.2946    0.7189   -1.8964 C.ar    1  UNL1       -0.0226
     15 C          -1.4485   -0.6390   -1.8159 C.ar    1  UNL1        0.1063
     16 S          -2.9769   -1.4399   -1.5851 S.O2    1  UNL1        0.0612
     17 O          -4.0218   -0.5953   -2.2903 O.2     1  UNL1       -0.1528
     18 O          -2.9281   -2.7447   -2.3550 O.2     1  UNL1       -0.1528
     19 N          -3.4324   -1.7094   -0.0300 N.3     1  UNL1       -0.1713
     20 C          -2.6977   -2.5030    0.8427 C.3     1  UNL1        0.0209
     21 C          -3.3002   -2.1897    2.2023 C.3     1  UNL1       -0.0370
     22 C          -4.7456   -1.9211    1.8416 C.3     1  UNL1       -0.0323
     23 C          -4.6142   -1.2169    0.5098 C.3     1  UNL1        0.0552
     24 C          -4.7187    0.2775    0.6218 C.3     1  UNL1        0.0645
     25 O          -5.9614    0.5744    1.1791 O.3     1  UNL1       -0.3814
     26 C          -6.0823    1.9594    1.2928 C.3     1  UNL1        0.0365
     27 C          -0.3151   -1.4150   -1.9254 C.ar    1  UNL1       -0.0335
     28 C           0.9356   -0.8629   -2.1093 C.ar    1  UNL1       -0.0377
     29 C           1.1141    0.5218   -2.1940 C.ar    1  UNL1        0.0481
     30 C           5.0441    1.8283   -0.7518 C.ar    1  UNL1       -0.0565
     31 C           5.7063    1.7281    0.4547 C.ar    1  UNL1       -0.0543
     32 H           5.9241   -1.4753    2.9454 H       1  UNL1        0.0535
     33 H           6.9702   -0.5505    4.1379 H       1  UNL1        0.0535
     34 H           6.9308    1.3841    2.7903 H       1  UNL1        0.0618
     35 H           4.9492   -1.4412    1.2366 H       1  UNL1        0.0624
     36 H           3.7984   -1.2771   -0.8553 H       1  UNL1        0.0621
     37 H           4.1148    1.5251   -3.2865 H       1  UNL1        0.0518
     38 H           3.5823   -0.1439   -3.0226 H       1  UNL1        0.0518
     39 H          -2.1766    1.3289   -1.8116 H       1  UNL1        0.0645
     40 H          -2.9385   -3.5874    0.6561 H       1  UNL1        0.0444
     41 H          -1.6068   -2.4269    0.8267 H       1  UNL1        0.0444
     42 H          -3.2165   -3.0472    2.9033 H       1  UNL1        0.0279
     43 H          -2.8869   -1.2561    2.6285 H       1  UNL1        0.0279
     44 H          -5.2509   -1.2914    2.6011 H       1  UNL1        0.0282
     45 H          -5.2830   -2.8974    1.7137 H       1  UNL1        0.0282
     46 H          -5.4860   -1.5730   -0.1102 H       1  UNL1        0.0502
     47 H          -4.6464    0.6887   -0.4006 H       1  UNL1        0.0576
     48 H          -3.9167    0.6551    1.2855 H       1  UNL1        0.0576
     49 H          -6.0044    2.4665    0.2931 H       1  UNL1        0.0523
     50 H          -7.0310    2.2536    1.7767 H       1  UNL1        0.0523
     51 H          -5.2378    2.3606    1.8909 H       1  UNL1        0.0523
     52 H          -0.3570   -2.5126   -1.8708 H       1  UNL1        0.0638
     53 H           1.8293   -1.4636   -2.1974 H       1  UNL1        0.0637
     54 H           5.0797    2.7701   -1.3103 H       1  UNL1        0.0621
     55 H           6.2588    2.5720    0.8510 H       1  UNL1        0.0624
@<TRIPOS>BOND
     1     1     2    2
     2     2     3    1
     3     3     4   ar
     4     4     5   ar
     5     5     6   ar
     6     6     7    1
     7     7     8    1
     8     8     9   am
     9     9    10    2
    10     9    11    1
    11    11    12    2
    12    11    13    1
    13    13    14   ar
    14    14    15   ar
    15    15    16    1
    16    16    17    2
    17    16    18    2
    18    16    19    1
    19    19    20    1
    20    20    21    1
    21    21    22    1
    22    22    23    1
    23    23    24    1
    24    24    25    1
    25    25    26    1
    26    15    27   ar
    27    27    28   ar
    28    28    29   ar
    29     6    30   ar
    30    30    31   ar
    31    31     3   ar
    32    29     8    1
    33    29    13   ar
    34    23    19    1
    35     1    32    1
    36     1    33    1
    37     2    34    1
    38     4    35    1
    39     5    36    1
    40     7    37    1
    41     7    38    1
    42    14    39    1
    43    20    40    1
    44    20    41    1
    45    21    42    1
    46    21    43    1
    47    22    44    1
    48    22    45    1
    49    23    46    1
    50    24    47    1
    51    24    48    1
    52    26    49    1
    53    26    50    1
    54    26    51    1
    55    27    52    1
    56    28    53    1
    57    30    54    1
    58    31    55    1
