@<TRIPOS>MOLECULE
*****
 74 77 0 0 0
SMALL
GASTEIGER

@<TRIPOS>ATOM
      1 C           1.3136    5.1269   -0.2301 C.3     1  UNL1       -0.0652
      2 C           0.2360    4.8390   -1.2461 C.3     1  UNL1       -0.0545
      3 C          -0.1134    3.3669   -1.2892 C.3     1  UNL1       -0.0374
      4 C          -0.6183    2.9146    0.0852 C.3     1  UNL1        0.0158
      5 N          -0.9591    1.5155    0.0739 N.am    1  UNL1       -0.2856
      6 C          -2.2963    1.1720   -0.2679 C.2     1  UNL1        0.2367
      7 O          -3.0610    2.0241   -0.7978 O.2     1  UNL1       -0.2735
      8 C          -2.8227   -0.1899   -0.0113 C.3     1  UNL1        0.0999
      9 C          -4.3047   -0.0987    0.2177 C.3     1  UNL1       -0.0231
     10 C          -4.9634   -1.4099    0.4896 C.3     1  UNL1       -0.0389
     11 C          -6.4438   -1.1454    0.6965 C.3     1  UNL1       -0.0501
     12 C          -7.2061   -2.4064    1.0328 C.3     1  UNL1       -0.0528
     13 C          -6.8826   -3.5543    0.1306 C.3     1  UNL1       -0.0530
     14 C          -5.4236   -3.7042   -0.1704 C.3     1  UNL1       -0.0528
     15 C          -4.8595   -2.3789   -0.6639 C.3     1  UNL1       -0.0501
     16 N          -2.0996   -0.7751    1.0615 N.am    1  UNL1       -0.3022
     17 C          -0.7118   -0.5268    1.2583 C.2     1  UNL1        0.2374
     18 O          -0.0858   -1.1412    2.1584 O.2     1  UNL1       -0.2734
     19 C           0.0218    0.4683    0.3981 C.3     1  UNL1        0.1156
     20 C           0.4440   -0.2443   -0.8442 C.3     1  UNL1       -0.0100
     21 C           1.7630   -0.9484   -0.7330 C.3     1  UNL1        0.0016
     22 N           2.1018   -1.2072    0.6389 N.3     1  UNL1       -0.2980
     23 C           3.2840   -2.0247    0.7257 C.3     1  UNL1        0.0240
     24 C           4.4909   -1.4460    0.1293 C.ar    1  UNL1       -0.0331
     25 C           5.3850   -0.7194    0.8655 C.ar    1  UNL1       -0.0539
     26 C           6.5154   -0.1813    0.2599 C.ar    1  UNL1       -0.0197
     27 C           6.7435   -0.3723   -1.0701 C.ar    1  UNL1        0.1201
     28 O           7.8535    0.1343   -1.7521 O.3     1  UNL1       -0.4951
     29 C           8.7803    0.8872   -0.9916 C.3     1  UNL1        0.0788
     30 C           5.8510   -1.1051   -1.8335 C.ar    1  UNL1       -0.0197
     31 C           4.7366   -1.6292   -1.2122 C.ar    1  UNL1       -0.0539
     32 C           2.2467   -0.0316    1.4292 C.3     1  UNL1        0.0016
     33 C           1.2011    1.0201    1.1219 C.3     1  UNL1       -0.0100
     34 H           2.0951    4.3616   -0.1782 H       1  UNL1        0.0230
     35 H           0.7910    5.2567    0.7594 H       1  UNL1        0.0230
     36 H           1.7299    6.1512   -0.4533 H       1  UNL1        0.0230
     37 H           0.6758    5.0765   -2.2541 H       1  UNL1        0.0263
     38 H          -0.6366    5.4725   -1.0223 H       1  UNL1        0.0263
     39 H          -0.8857    3.1370   -2.0201 H       1  UNL1        0.0280
     40 H           0.8090    2.8198   -1.5655 H       1  UNL1        0.0280
     41 H           0.1570    3.2004    0.8126 H       1  UNL1        0.0465
     42 H          -1.5325    3.4980    0.3368 H       1  UNL1        0.0465
     43 H          -2.7072   -0.7914   -0.9610 H       1  UNL1        0.0595
     44 H          -4.4875    0.5663    1.0737 H       1  UNL1        0.0290
     45 H          -4.8006    0.3535   -0.6649 H       1  UNL1        0.0290
     46 H          -4.6077   -1.8740    1.4481 H       1  UNL1        0.0301
     47 H          -6.8193   -0.7226   -0.2774 H       1  UNL1        0.0268
     48 H          -6.5577   -0.4443    1.5357 H       1  UNL1        0.0268
     49 H          -8.2940   -2.1692    0.8853 H       1  UNL1        0.0265
     50 H          -7.0504   -2.6380    2.0913 H       1  UNL1        0.0265
     51 H          -7.2108   -4.4923    0.6648 H       1  UNL1        0.0265
     52 H          -7.4586   -3.5423   -0.8185 H       1  UNL1        0.0265
     53 H          -5.3122   -4.5006   -0.9300 H       1  UNL1        0.0265
     54 H          -4.8875   -3.9515    0.7793 H       1  UNL1        0.0265
     55 H          -3.8419   -2.4838   -1.0563 H       1  UNL1        0.0268
     56 H          -5.5248   -2.0108   -1.4612 H       1  UNL1        0.0268
     57 H          -2.5714   -1.4065    1.7373 H       1  UNL1        0.1495
     58 H          -0.3292   -1.0004   -1.0864 H       1  UNL1        0.0303
     59 H           0.5240    0.4410   -1.7289 H       1  UNL1        0.0303
     60 H           2.5826   -0.3802   -1.2636 H       1  UNL1        0.0427
     61 H           1.6849   -1.9015   -1.2914 H       1  UNL1        0.0427
     62 H           3.0713   -3.0578    0.3115 H       1  UNL1        0.0476
     63 H           3.5467   -2.2494    1.8011 H       1  UNL1        0.0476
     64 H           5.2795   -0.5268    1.9257 H       1  UNL1        0.0622
     65 H           7.2218    0.3906    0.8318 H       1  UNL1        0.0654
     66 H           8.3818    1.9024   -0.7471 H       1  UNL1        0.0660
     67 H           9.7418    1.0170   -1.5637 H       1  UNL1        0.0660
     68 H           9.0628    0.3876   -0.0448 H       1  UNL1        0.0660
     69 H           6.0177   -1.2645   -2.8856 H       1  UNL1        0.0654
     70 H           4.0586   -2.2034   -1.8627 H       1  UNL1        0.0622
     71 H           2.2329   -0.3246    2.5108 H       1  UNL1        0.0427
     72 H           3.2329    0.4160    1.1945 H       1  UNL1        0.0427
     73 H           0.8284    1.3838    2.1219 H       1  UNL1        0.0303
     74 H           1.6737    1.8752    0.6480 H       1  UNL1        0.0303
@<TRIPOS>BOND
     1     1     2    1
     2     2     3    1
     3     3     4    1
     4     4     5    1
     5     5     6   am
     6     6     7    2
     7     6     8    1
     8     8     9    1
     9     9    10    1
    10    10    11    1
    11    11    12    1
    12    12    13    1
    13    13    14    1
    14    14    15    1
    15     8    16    1
    16    16    17   am
    17    17    18    2
    18    17    19    1
    19    19    20    1
    20    20    21    1
    21    21    22    1
    22    22    23    1
    23    23    24    1
    24    24    25   ar
    25    25    26   ar
    26    26    27   ar
    27    27    28    1
    28    28    29    1
    29    27    30   ar
    30    30    31   ar
    31    22    32    1
    32    32    33    1
    33    19     5    1
    34    31    24   ar
    35    15    10    1
    36    33    19    1
    37     1    34    1
    38     1    35    1
    39     1    36    1
    40     2    37    1
    41     2    38    1
    42     3    39    1
    43     3    40    1
    44     4    41    1
    45     4    42    1
    46     8    43    1
    47     9    44    1
    48     9    45    1
    49    10    46    1
    50    11    47    1
    51    11    48    1
    52    12    49    1
    53    12    50    1
    54    13    51    1
    55    13    52    1
    56    14    53    1
    57    14    54    1
    58    15    55    1
    59    15    56    1
    60    16    57    1
    61    20    58    1
    62    20    59    1
    63    21    60    1
    64    21    61    1
    65    23    62    1
    66    23    63    1
    67    25    64    1
    68    26    65    1
    69    29    66    1
    70    29    67    1
    71    29    68    1
    72    30    69    1
    73    31    70    1
    74    32    71    1
    75    32    72    1
    76    33    73    1
    77    33    74    1
