@<TRIPOS>MOLECULE
*****
 38 39 0 0 0
SMALL
GASTEIGER

@<TRIPOS>ATOM
      1 C          -3.9481    2.1812   -0.0483 C.3     1  UNL1       -0.0612
      2 C          -2.6532    1.9912   -0.7952 C.3     1  UNL1       -0.0288
      3 C          -1.9544    0.7486   -0.4078 C.ar    1  UNL1       -0.0265
      4 C          -0.8871    0.8447    0.4566 C.ar    1  UNL1       -0.0533
      5 C          -0.1723   -0.2752    0.8939 C.ar    1  UNL1       -0.0423
      6 C           0.9586   -0.1410    1.8367 C.3     1  UNL1        0.0023
      7 C           2.2487    0.1977    1.2022 C.ar    1  UNL1        0.0146
      8 C           2.7091    1.5161    1.2375 C.ar    1  UNL1        0.0379
      9 N           3.8730    1.8593    0.6616 N.ar    1  UNL1       -0.2227
     10 C           4.6545    0.9687    0.0255 C.ar    1  UNL1        0.2142
     11 N           5.8857    1.3300   -0.5824 N.pl3   1  UNL1       -0.3274
     12 N           4.2291   -0.3228   -0.0238 N.ar    1  UNL1       -0.1999
     13 C           3.0503   -0.7036    0.5525 C.ar    1  UNL1        0.1247
     14 N           2.6487   -2.0610    0.4886 N.pl3   1  UNL1       -0.3428
     15 C          -0.5428   -1.5185    0.4486 C.ar    1  UNL1       -0.0536
     16 C          -1.6254   -1.6495   -0.4333 C.ar    1  UNL1       -0.0293
     17 C          -2.0360   -2.9883   -0.9286 C.3     1  UNL1       -0.0380
     18 C          -2.2957   -0.5160   -0.8328 C.ar    1  UNL1        0.0307
     19 N          -3.3843   -0.6386   -1.7199 N.pl3   1  UNL1       -0.3575
     20 H          -3.9193    1.6523    0.9497 H       1  UNL1        0.0233
     21 H          -4.0306    3.2528    0.2240 H       1  UNL1        0.0233
     22 H          -4.8217    1.9130   -0.6365 H       1  UNL1        0.0233
     23 H          -2.9457    1.9146   -1.8798 H       1  UNL1        0.0311
     24 H          -1.9951    2.8443   -0.6010 H       1  UNL1        0.0311
     25 H          -0.5373    1.7951    0.8503 H       1  UNL1        0.0624
     26 H           0.7061    0.6119    2.6418 H       1  UNL1        0.0363
     27 H           1.1222   -1.0885    2.4180 H       1  UNL1        0.0363
     28 H           2.0741    2.2276    1.7514 H       1  UNL1        0.0834
     29 H           6.0016    1.2056   -1.6029 H       1  UNL1        0.1452
     30 H           6.6987    1.7228   -0.0490 H       1  UNL1        0.1452
     31 H           2.5132   -2.5518    1.4132 H       1  UNL1        0.1437
     32 H           2.4789   -2.6061   -0.3776 H       1  UNL1        0.1437
     33 H          -0.0527   -2.4400    0.7407 H       1  UNL1        0.0624
     34 H          -1.6351   -3.0655   -1.9738 H       1  UNL1        0.0278
     35 H          -3.1401   -3.0258   -0.9138 H       1  UNL1        0.0278
     36 H          -1.6646   -3.8160   -0.3078 H       1  UNL1        0.0278
     37 H          -3.2559   -0.5312   -2.7547 H       1  UNL1        0.1423
     38 H          -4.3551   -0.8384   -1.3953 H       1  UNL1        0.1423
@<TRIPOS>BOND
     1     1     2    1
     2     2     3    1
     3     3     4   ar
     4     4     5   ar
     5     5     6    1
     6     6     7    1
     7     7     8   ar
     8     8     9   ar
     9     9    10   ar
    10    10    11    1
    11    10    12   ar
    12    12    13   ar
    13    13    14    1
    14     5    15   ar
    15    15    16   ar
    16    16    17    1
    17    16    18   ar
    18    18    19    1
    19    18     3   ar
    20    13     7   ar
    21     1    20    1
    22     1    21    1
    23     1    22    1
    24     2    23    1
    25     2    24    1
    26     4    25    1
    27     6    26    1
    28     6    27    1
    29     8    28    1
    30    11    29    1
    31    11    30    1
    32    14    31    1
    33    14    32    1
    34    15    33    1
    35    17    34    1
    36    17    35    1
    37    17    36    1
    38    19    37    1
    39    19    38    1
