
     RDKit          3D

 38 39  0  0  0  0  0  0  0  0999 V2000
   -3.9481    2.1812   -0.0483 C   0  0  0  0  0  0  0  0  0  0  0  0
   -2.6532    1.9912   -0.7952 C   0  0  0  0  0  0  0  0  0  0  0  0
   -1.9544    0.7486   -0.4078 C   0  0  0  0  0  0  0  0  0  0  0  0
   -0.8871    0.8447    0.4566 C   0  0  0  0  0  0  0  0  0  0  0  0
   -0.1723   -0.2752    0.8939 C   0  0  0  0  0  0  0  0  0  0  0  0
    0.9586   -0.1410    1.8367 C   0  0  0  0  0  0  0  0  0  0  0  0
    2.2487    0.1977    1.2022 C   0  0  0  0  0  0  0  0  0  0  0  0
    2.7091    1.5161    1.2375 C   0  0  0  0  0  0  0  0  0  0  0  0
    3.8730    1.8593    0.6616 N   0  0  0  0  0  0  0  0  0  0  0  0
    4.6545    0.9687    0.0255 C   0  0  0  0  0  0  0  0  0  0  0  0
    5.8857    1.3300   -0.5824 N   0  0  0  0  0  0  0  0  0  0  0  0
    4.2291   -0.3228   -0.0238 N   0  0  0  0  0  0  0  0  0  0  0  0
    3.0503   -0.7036    0.5525 C   0  0  0  0  0  0  0  0  0  0  0  0
    2.6487   -2.0610    0.4886 N   0  0  0  0  0  0  0  0  0  0  0  0
   -0.5428   -1.5185    0.4486 C   0  0  0  0  0  0  0  0  0  0  0  0
   -1.6254   -1.6495   -0.4333 C   0  0  0  0  0  0  0  0  0  0  0  0
   -2.0360   -2.9883   -0.9286 C   0  0  0  0  0  0  0  0  0  0  0  0
   -2.2957   -0.5160   -0.8328 C   0  0  0  0  0  0  0  0  0  0  0  0
   -3.3843   -0.6386   -1.7199 N   0  0  0  0  0  0  0  0  0  0  0  0
   -3.9193    1.6523    0.9497 H   0  0  0  0  0  0  0  0  0  0  0  0
   -4.0306    3.2528    0.2240 H   0  0  0  0  0  0  0  0  0  0  0  0
   -4.8217    1.9130   -0.6365 H   0  0  0  0  0  0  0  0  0  0  0  0
   -2.9457    1.9146   -1.8798 H   0  0  0  0  0  0  0  0  0  0  0  0
   -1.9951    2.8443   -0.6010 H   0  0  0  0  0  0  0  0  0  0  0  0
   -0.5373    1.7951    0.8503 H   0  0  0  0  0  0  0  0  0  0  0  0
    0.7061    0.6119    2.6418 H   0  0  0  0  0  0  0  0  0  0  0  0
    1.1222   -1.0885    2.4180 H   0  0  0  0  0  0  0  0  0  0  0  0
    2.0741    2.2276    1.7514 H   0  0  0  0  0  0  0  0  0  0  0  0
    6.0016    1.2056   -1.6029 H   0  0  0  0  0  0  0  0  0  0  0  0
    6.6987    1.7228   -0.0490 H   0  0  0  0  0  0  0  0  0  0  0  0
    2.5132   -2.5518    1.4132 H   0  0  0  0  0  0  0  0  0  0  0  0
    2.4789   -2.6061   -0.3776 H   0  0  0  0  0  0  0  0  0  0  0  0
   -0.0527   -2.4400    0.7407 H   0  0  0  0  0  0  0  0  0  0  0  0
   -1.6351   -3.0655   -1.9738 H   0  0  0  0  0  0  0  0  0  0  0  0
   -3.1401   -3.0258   -0.9138 H   0  0  0  0  0  0  0  0  0  0  0  0
   -1.6646   -3.8160   -0.3078 H   0  0  0  0  0  0  0  0  0  0  0  0
   -3.2559   -0.5312   -2.7547 H   0  0  0  0  0  0  0  0  0  0  0  0
   -4.3551   -0.8384   -1.3953 H   0  0  0  0  0  0  0  0  0  0  0  0
  1  2  1  0
  2  3  1  0
  3  4  2  0
  4  5  1  0
  5  6  1  0
  6  7  1  0
  7  8  2  0
  8  9  1  0
  9 10  2  0
 10 11  1  0
 10 12  1  0
 12 13  2  0
 13 14  1  0
  5 15  2  0
 15 16  1  0
 16 17  1  0
 16 18  2  0
 18 19  1  0
 18  3  1  0
 13  7  1  0
  1 20  1  0
  1 21  1  0
  1 22  1  0
  2 23  1  0
  2 24  1  0
  4 25  1  0
  6 26  1  0
  6 27  1  0
  8 28  1  0
 11 29  1  0
 11 30  1  0
 14 31  1  0
 14 32  1  0
 15 33  1  0
 17 34  1  0
 17 35  1  0
 17 36  1  0
 19 37  1  0
 19 38  1  0
M  END
$$$$
