
     RDKit          3D

 32 34  0  0  0  0  0  0  0  0999 V2000
   -3.2259   -2.4993    1.6467 O   0  0  0  0  0  0  0  0  0  0  0  0
   -2.4905   -1.8608    0.8699 C   0  0  0  0  0  0  0  0  0  0  0  0
   -1.6218   -2.4283   -0.1686 C   0  0  0  0  0  0  0  0  0  0  0  0
   -1.4895   -3.6475   -0.4302 O   0  0  0  0  0  0  0  0  0  0  0  0
   -0.9558   -1.3652   -0.8278 N   0  0  0  0  0  0  0  0  0  0  0  0
   -0.0202   -1.5124   -1.9048 C   0  0  0  0  0  0  0  0  0  0  0  0
    1.3822   -1.6541   -1.3960 C   0  0  0  0  0  0  0  0  0  0  0  0
    1.8340   -0.4841   -0.5990 C   0  0  0  0  0  0  0  0  0  0  0  0
    1.6405   -0.4403    0.7727 C   0  0  0  0  0  0  0  0  0  0  0  0
    2.0501    0.6340    1.5384 C   0  0  0  0  0  0  0  0  0  0  0  0
    2.6742    1.7121    0.9479 C   0  0  0  0  0  0  0  0  0  0  0  0
    2.8798    1.6917   -0.4272 C   0  0  0  0  0  0  0  0  0  0  0  0
    2.4597    0.6015   -1.1757 C   0  0  0  0  0  0  0  0  0  0  0  0
   -1.3740   -0.1356   -0.2404 C   0  0  0  0  0  0  0  0  0  0  0  0
   -1.0624    1.2004   -0.4726 C   0  0  0  0  0  0  0  0  0  0  0  0
   -1.6368    2.2072    0.2715 C   0  0  0  0  0  0  0  0  0  0  0  0
   -2.5384    1.9275    1.2700 C   0  0  0  0  0  0  0  0  0  0  0  0
   -3.3621    3.2660    2.3274 Br  0  0  0  0  0  0  0  0  0  0  0  0
   -2.8537    0.6044    1.5075 C   0  0  0  0  0  0  0  0  0  0  0  0
   -2.2861   -0.4098    0.7704 C   0  0  0  0  0  0  0  0  0  0  0  0
   -0.0457   -0.6300   -2.6050 H   0  0  0  0  0  0  0  0  0  0  0  0
   -0.2337   -2.4008   -2.5338 H   0  0  0  0  0  0  0  0  0  0  0  0
    2.0877   -1.8677   -2.2241 H   0  0  0  0  0  0  0  0  0  0  0  0
    1.4127   -2.5401   -0.7209 H   0  0  0  0  0  0  0  0  0  0  0  0
    1.1504   -1.2955    1.2097 H   0  0  0  0  0  0  0  0  0  0  0  0
    1.8863    0.6473    2.6247 H   0  0  0  0  0  0  0  0  0  0  0  0
    2.9989    2.5557    1.5298 H   0  0  0  0  0  0  0  0  0  0  0  0
    3.3739    2.5374   -0.9192 H   0  0  0  0  0  0  0  0  0  0  0  0
    2.6311    0.6061   -2.2545 H   0  0  0  0  0  0  0  0  0  0  0  0
   -0.3497    1.3859   -1.2650 H   0  0  0  0  0  0  0  0  0  0  0  0
   -1.3530    3.2210    0.0416 H   0  0  0  0  0  0  0  0  0  0  0  0
   -3.5622    0.3736    2.2910 H   0  0  0  0  0  0  0  0  0  0  0  0
  1  2  2  0
  2  3  1  0
  3  4  2  0
  3  5  1  0
  5  6  1  0
  6  7  1  0
  7  8  1  0
  8  9  2  0
  9 10  1  0
 10 11  2  0
 11 12  1  0
 12 13  2  0
  5 14  1  0
 14 15  2  0
 15 16  1  0
 16 17  2  0
 17 18  1  0
 17 19  1  0
 19 20  2  0
 20  2  1  0
 13  8  1  0
 20 14  1  0
  6 21  1  0
  6 22  1  0
  7 23  1  0
  7 24  1  0
  9 25  1  0
 10 26  1  0
 11 27  1  0
 12 28  1  0
 13 29  1  0
 15 30  1  0
 16 31  1  0
 19 32  1  0
M  END
$$$$
