@<TRIPOS>MOLECULE
*****
 32 34 0 0 0
SMALL
GASTEIGER

@<TRIPOS>ATOM
      1 O          -3.2259   -2.4993    1.6467 O.2     1  UNL1       -0.2817
      2 C          -2.4905   -1.8608    0.8699 C.2     1  UNL1        0.2496
      3 C          -1.6218   -2.4283   -0.1686 C.2     1  UNL1        0.2913
      4 O          -1.4895   -3.6475   -0.4302 O.2     1  UNL1       -0.2661
      5 N          -0.9558   -1.3652   -0.8278 N.am    1  UNL1       -0.2638
      6 C          -0.0202   -1.5124   -1.9048 C.3     1  UNL1        0.0242
      7 C           1.3822   -1.6541   -1.3960 C.3     1  UNL1       -0.0114
      8 C           1.8340   -0.4841   -0.5990 C.ar    1  UNL1       -0.0459
      9 C           1.6405   -0.4403    0.7727 C.ar    1  UNL1       -0.0585
     10 C           2.0501    0.6340    1.5384 C.ar    1  UNL1       -0.0615
     11 C           2.6742    1.7121    0.9479 C.ar    1  UNL1       -0.0617
     12 C           2.8798    1.6917   -0.4272 C.ar    1  UNL1       -0.0615
     13 C           2.4597    0.6015   -1.1757 C.ar    1  UNL1       -0.0585
     14 C          -1.3740   -0.1356   -0.2404 C.ar    1  UNL1        0.0477
     15 C          -1.0624    1.2004   -0.4726 C.ar    1  UNL1       -0.0385
     16 C          -1.6368    2.2072    0.2715 C.ar    1  UNL1       -0.0460
     17 C          -2.5384    1.9275    1.2700 C.ar    1  UNL1        0.0187
     18 BR         -3.3621    3.2660    2.3274 Br      1  UNL1       -0.0503
     19 C          -2.8537    0.6044    1.5075 C.ar    1  UNL1       -0.0350
     20 C          -2.2861   -0.4098    0.7704 C.ar    1  UNL1        0.0494
     21 H          -0.0457   -0.6300   -2.6050 H       1  UNL1        0.0472
     22 H          -0.2337   -2.4008   -2.5338 H       1  UNL1        0.0472
     23 H           2.0877   -1.8677   -2.2241 H       1  UNL1        0.0329
     24 H           1.4127   -2.5401   -0.7209 H       1  UNL1        0.0329
     25 H           1.1504   -1.2955    1.2097 H       1  UNL1        0.0620
     26 H           1.8863    0.6473    2.6247 H       1  UNL1        0.0618
     27 H           2.9989    2.5557    1.5298 H       1  UNL1        0.0618
     28 H           3.3739    2.5374   -0.9192 H       1  UNL1        0.0618
     29 H           2.6311    0.6061   -2.2545 H       1  UNL1        0.0620
     30 H          -0.3497    1.3859   -1.2650 H       1  UNL1        0.0637
     31 H          -1.3530    3.2210    0.0416 H       1  UNL1        0.0629
     32 H          -3.5622    0.3736    2.2910 H       1  UNL1        0.0636
@<TRIPOS>BOND
     1     1     2    2
     2     2     3    1
     3     3     4    2
     4     3     5   am
     5     5     6    1
     6     6     7    1
     7     7     8    1
     8     8     9   ar
     9     9    10   ar
    10    10    11   ar
    11    11    12   ar
    12    12    13   ar
    13     5    14    1
    14    14    15   ar
    15    15    16   ar
    16    16    17   ar
    17    17    18    1
    18    17    19   ar
    19    19    20   ar
    20    20     2    1
    21    13     8   ar
    22    20    14   ar
    23     6    21    1
    24     6    22    1
    25     7    23    1
    26     7    24    1
    27     9    25    1
    28    10    26    1
    29    11    27    1
    30    12    28    1
    31    13    29    1
    32    15    30    1
    33    16    31    1
    34    19    32    1
