@<TRIPOS>MOLECULE
*****
 28 30 0 0 0
SMALL
GASTEIGER

@<TRIPOS>ATOM
      1 N           4.7244    0.9442   -0.0848 N.pl3   1  UNL1       -0.3413
      2 C           3.5902    0.1027    0.0450 C.ar    1  UNL1        0.1472
      3 N           3.6617   -1.1635    0.4736 N.ar    1  UNL1       -0.2188
      4 C           2.5280   -1.9081    0.5715 C.ar    1  UNL1        0.1205
      5 N           1.2969   -1.4208    0.2486 N.ar    1  UNL1       -0.2160
      6 C           1.1788   -0.1466   -0.1888 C.ar    1  UNL1        0.1659
      7 C           2.3481    0.5783   -0.2754 C.ar    1  UNL1        0.1472
      8 N           1.9419    1.7932   -0.7310 N.ar    1  UNL1       -0.2306
      9 C           0.6225    1.7795   -0.8996 C.ar    1  UNL1        0.0989
     10 N           0.1191    0.5755   -0.5670 N.ar    1  UNL1       -0.3053
     11 C          -1.2576    0.2119   -0.6272 C.3     1  UNL1        0.0840
     12 C          -2.0880    1.3233   -0.0607 C.2     1  UNL1       -0.0603
     13 C          -3.2044    0.8464    0.5187 C.2     1  UNL1       -0.0553
     14 C          -3.1606   -0.6498    0.3560 C.3     1  UNL1        0.1015
     15 O          -3.7717   -1.2479    1.4341 O.3     1  UNL1       -0.3851
     16 C          -1.6481   -0.9070    0.3236 C.3     1  UNL1        0.1088
     17 O          -1.4189   -2.1659   -0.1933 O.3     1  UNL1       -0.3865
     18 H           4.5828    1.9906   -0.0960 H       1  UNL1        0.1438
     19 H           5.6941    0.5534   -0.1693 H       1  UNL1        0.1438
     20 H           2.6943   -2.9302    0.9317 H       1  UNL1        0.1048
     21 H           0.1403    2.6812   -1.2614 H       1  UNL1        0.1029
     22 H          -1.6202   -0.0422   -1.6310 H       1  UNL1        0.0599
     23 H          -1.9350    2.4174   -0.0450 H       1  UNL1        0.0591
     24 H          -3.9984    1.3694    1.0105 H       1  UNL1        0.0596
     25 H          -3.5940   -0.9255   -0.6180 H       1  UNL1        0.0664
     26 H          -4.6310   -0.7844    1.6010 H       1  UNL1        0.2103
     27 H          -1.2160   -0.7432    1.3199 H       1  UNL1        0.0646
     28 H          -1.5791   -2.1318   -1.1669 H       1  UNL1        0.2100
@<TRIPOS>BOND
     1     1     2    1
     2     2     3   ar
     3     3     4   ar
     4     4     5   ar
     5     5     6   ar
     6     6     7   ar
     7     7     8   ar
     8     8     9   ar
     9     9    10   ar
    10    10    11    1
    11    11    12    1
    12    12    13    2
    13    13    14    1
    14    14    15    1
    15    14    16    1
    16    16    17    1
    17     7     2   ar
    18    16    11    1
    19    10     6   ar
    20     1    18    1
    21     1    19    1
    22     4    20    1
    23     9    21    1
    24    11    22    1
    25    12    23    1
    26    13    24    1
    27    14    25    1
    28    15    26    1
    29    16    27    1
    30    17    28    1
