@<TRIPOS>MOLECULE
*****
 28 27 0 0 0
SMALL
GASTEIGER

@<TRIPOS>ATOM
      1 C          -4.0692   -0.3200    0.6490 C.3     1  UNL1       -0.0626
      2 C          -2.6664    0.1189    0.3754 C.3     1  UNL1       -0.0446
      3 C          -2.7141    1.1579   -0.7286 C.3     1  UNL1       -0.0626
      4 C          -1.7823   -1.0216   -0.0782 C.3     1  UNL1       -0.0266
      5 C          -0.3810   -0.4890   -0.3327 C.3     1  UNL1        0.0593
      6 O           0.1808    0.0774    0.8169 O.3     1  UNL1       -0.2864
      7 P           1.7328    0.6167    0.3535 P.3     1  UNL1        0.4834
      8 O           2.5556    1.2140    1.6872 O.3     1  UNL1       -0.3022
      9 O           1.5477    1.6698   -0.6889 O.2     1  UNL1       -0.2269
     10 O           2.5542   -0.7526   -0.2064 O.3     1  UNL1       -0.1862
     11 P           4.2013   -0.4946   -0.3471 P.3     1  UNL1        0.4808
     12 O           4.7778    0.3630    0.9997 O.3     1  UNL1       -0.3023
     13 O           4.6093    0.3480   -1.7583 O.3     1  UNL1       -0.3023
     14 O           4.8945   -1.8389   -0.4108 O.2     1  UNL1       -0.2271
     15 H          -4.1276   -1.0872    1.4593 H       1  UNL1        0.0232
     16 H          -4.5135   -0.8027   -0.2477 H       1  UNL1        0.0232
     17 H          -4.6667    0.5387    0.9578 H       1  UNL1        0.0232
     18 H          -2.2345    0.6116    1.2567 H       1  UNL1        0.0296
     19 H          -1.7828    1.7283   -0.7695 H       1  UNL1        0.0232
     20 H          -2.9501    0.6164   -1.6787 H       1  UNL1        0.0232
     21 H          -3.5394    1.8723   -0.4977 H       1  UNL1        0.0232
     22 H          -2.1186   -1.4426   -1.0459 H       1  UNL1        0.0290
     23 H          -1.7390   -1.8068    0.6915 H       1  UNL1        0.0290
     24 H          -0.3831    0.2843   -1.1114 H       1  UNL1        0.0566
     25 H           0.2790   -1.3074   -0.6722 H       1  UNL1        0.0566
     26 H           2.0130    1.8730    2.1906 H       1  UNL1        0.2220
     27 H           4.9147    1.3216    0.7124 H       1  UNL1        0.2220
     28 H           5.4073    0.9291   -1.5758 H       1  UNL1        0.2220
@<TRIPOS>BOND
     1     1     2    1
     2     2     3    1
     3     2     4    1
     4     4     5    1
     5     5     6    1
     6     7     6    1
     7     7     8    1
     8     7     9    2
     9     7    10    1
    10    10    11    1
    11    11    12    1
    12    11    13    1
    13    11    14    2
    14     1    15    1
    15     1    16    1
    16     1    17    1
    17     2    18    1
    18     3    19    1
    19     3    20    1
    20     3    21    1
    21     4    22    1
    22     4    23    1
    23     5    24    1
    24     5    25    1
    25     8    26    1
    26    12    27    1
    27    13    28    1
