@<TRIPOS>MOLECULE
*****
 61 64 0 0 0
SMALL
GASTEIGER

@<TRIPOS>ATOM
      1 C           6.8170   -1.5153    0.8627 C.3     1  UNL1       -0.0385
      2 C           6.0731   -0.9264   -0.3198 C.3     1  UNL1        0.0747
      3 C           6.5585   -1.5455   -1.6198 C.3     1  UNL1       -0.0385
      4 C           4.6121   -1.0908   -0.1506 C.3     1  UNL1        0.0435
      5 N           4.0547    0.2843   -0.1832 N.pl3   1  UNL1       -0.2799
      6 C           2.7917    0.8981   -0.0880 C.2     1  UNL1        0.0296
      7 C           1.5183    0.0666    0.1063 C.3     1  UNL1        0.0398
      8 S           0.1120    1.1625    0.1843 S.3     1  UNL1       -0.0849
      9 C          -1.3585    0.1842    0.4100 C.2     1  UNL1        0.1501
     10 N          -2.4648    0.8371    0.4852 N.2     1  UNL1       -0.2602
     11 C          -2.6255    2.2518    0.4063 C.3     1  UNL1        0.0533
     12 C          -1.8544    3.0398    1.4072 C.3     1  UNL1       -0.0305
     13 C          -2.6138    4.3619    1.6045 C.3     1  UNL1       -0.0511
     14 C          -3.0308    4.8469    0.2439 C.3     1  UNL1       -0.0529
     15 C          -2.1552    4.3163   -0.8664 C.3     1  UNL1       -0.0511
     16 C          -2.3656    2.8221   -0.9705 C.3     1  UNL1       -0.0305
     17 N          -1.3063   -1.2365    0.5011 N.pl3   1  UNL1       -0.3211
     18 C          -2.5159   -2.0149    0.4637 C.3     1  UNL1        0.0224
     19 C          -3.3067   -1.8392   -0.7999 C.3     1  UNL1       -0.0345
     20 C          -3.7807   -3.1292   -1.3987 C.3     1  UNL1       -0.0514
     21 C          -4.2711   -4.1329   -0.4279 C.3     1  UNL1       -0.0529
     22 C          -3.6362   -4.1078    0.9121 C.3     1  UNL1       -0.0514
     23 C          -2.2627   -3.4740    0.7829 C.3     1  UNL1       -0.0345
     24 C           2.7502    2.2045   -0.1721 C.2     1  UNL1       -0.0031
     25 S           4.4189    2.7764   -0.3915 S.3     1  UNL1       -0.0607
     26 C           5.1485    1.1407   -0.3597 C.2     1  UNL1        0.1609
     27 N           6.2724    0.4878   -0.4371 N.2     1  UNL1       -0.2551
     28 H           7.2537   -0.7283    1.5202 H       1  UNL1        0.0253
     29 H           7.6004   -2.2246    0.5217 H       1  UNL1        0.0253
     30 H           6.1331   -2.1099    1.5089 H       1  UNL1        0.0253
     31 H           7.6436   -1.3366   -1.7339 H       1  UNL1        0.0253
     32 H           6.3335   -2.6148   -1.6833 H       1  UNL1        0.0253
     33 H           6.0537   -0.9877   -2.4415 H       1  UNL1        0.0253
     34 H           4.3981   -1.4595    0.8755 H       1  UNL1        0.0492
     35 H           4.1318   -1.7133   -0.9278 H       1  UNL1        0.0492
     36 H           1.6028   -0.5076    1.0437 H       1  UNL1        0.0442
     37 H           1.4776   -0.6249   -0.7486 H       1  UNL1        0.0442
     38 H          -3.7207    2.4561    0.6076 H       1  UNL1        0.0545
     39 H          -1.7601    2.5650    2.3967 H       1  UNL1        0.0286
     40 H          -0.8442    3.3520    1.0690 H       1  UNL1        0.0286
     41 H          -3.5323    4.0960    2.1619 H       1  UNL1        0.0266
     42 H          -2.0050    5.0884    2.1551 H       1  UNL1        0.0266
     43 H          -4.0794    4.5280   -0.0065 H       1  UNL1        0.0265
     44 H          -3.0421    5.9505    0.2386 H       1  UNL1        0.0265
     45 H          -1.0945    4.5766   -0.7421 H       1  UNL1        0.0266
     46 H          -2.5319    4.7640   -1.8097 H       1  UNL1        0.0266
     47 H          -1.5048    2.3110   -1.4170 H       1  UNL1        0.0286
     48 H          -3.2345    2.6266   -1.6593 H       1  UNL1        0.0286
     49 H          -0.3960   -1.7366    0.5959 H       1  UNL1        0.1482
     50 H          -3.1776   -1.6403    1.3009 H       1  UNL1        0.0498
     51 H          -4.1569   -1.1340   -0.6956 H       1  UNL1        0.0283
     52 H          -2.6180   -1.3687   -1.5592 H       1  UNL1        0.0283
     53 H          -3.0020   -3.5364   -2.0926 H       1  UNL1        0.0266
     54 H          -4.6427   -2.8649   -2.0796 H       1  UNL1        0.0266
     55 H          -5.3839   -4.1001   -0.2791 H       1  UNL1        0.0265
     56 H          -4.0878   -5.1544   -0.8711 H       1  UNL1        0.0265
     57 H          -3.6017   -5.1128    1.3598 H       1  UNL1        0.0266
     58 H          -4.2419   -3.4076    1.5589 H       1  UNL1        0.0266
     59 H          -1.6585   -3.9683   -0.0092 H       1  UNL1        0.0283
     60 H          -1.7779   -3.5167    1.7800 H       1  UNL1        0.0283
     61 H           1.8864    2.8651   -0.1233 H       1  UNL1        0.0710
@<TRIPOS>BOND
     1     1     2    1
     2     2     3    1
     3     2     4    1
     4     4     5    1
     5     5     6    1
     6     6     7    1
     7     7     8    1
     8     8     9    1
     9     9    10    2
    10    10    11    1
    11    11    12    1
    12    12    13    1
    13    13    14    1
    14    14    15    1
    15    15    16    1
    16     9    17    1
    17    17    18    1
    18    18    19    1
    19    19    20    1
    20    20    21    1
    21    21    22    1
    22    22    23    1
    23     6    24    2
    24    24    25    1
    25    25    26    1
    26    26    27    2
    27    27     2    1
    28    26     5    1
    29    16    11    1
    30    23    18    1
    31     1    28    1
    32     1    29    1
    33     1    30    1
    34     3    31    1
    35     3    32    1
    36     3    33    1
    37     4    34    1
    38     4    35    1
    39     7    36    1
    40     7    37    1
    41    11    38    1
    42    12    39    1
    43    12    40    1
    44    13    41    1
    45    13    42    1
    46    14    43    1
    47    14    44    1
    48    15    45    1
    49    15    46    1
    50    16    47    1
    51    16    48    1
    52    17    49    1
    53    18    50    1
    54    19    51    1
    55    19    52    1
    56    20    53    1
    57    20    54    1
    58    21    55    1
    59    21    56    1
    60    22    57    1
    61    22    58    1
    62    23    59    1
    63    23    60    1
    64    24    61    1
