
     RDKit          3D

 61 64  0  0  0  0  0  0  0  0999 V2000
    6.8170   -1.5153    0.8627 C   0  0  0  0  0  0  0  0  0  0  0  0
    6.0731   -0.9264   -0.3198 C   0  0  0  0  0  0  0  0  0  0  0  0
    6.5585   -1.5455   -1.6198 C   0  0  0  0  0  0  0  0  0  0  0  0
    4.6121   -1.0908   -0.1506 C   0  0  0  0  0  0  0  0  0  0  0  0
    4.0547    0.2843   -0.1832 N   0  0  0  0  0  0  0  0  0  0  0  0
    2.7917    0.8981   -0.0880 C   0  0  0  0  0  0  0  0  0  0  0  0
    1.5183    0.0666    0.1063 C   0  0  0  0  0  0  0  0  0  0  0  0
    0.1120    1.1625    0.1843 S   0  0  0  0  0  0  0  0  0  0  0  0
   -1.3585    0.1842    0.4100 C   0  0  0  0  0  0  0  0  0  0  0  0
   -2.4648    0.8371    0.4852 N   0  0  0  0  0  0  0  0  0  0  0  0
   -2.6255    2.2518    0.4063 C   0  0  0  0  0  0  0  0  0  0  0  0
   -1.8544    3.0398    1.4072 C   0  0  0  0  0  0  0  0  0  0  0  0
   -2.6138    4.3619    1.6045 C   0  0  0  0  0  0  0  0  0  0  0  0
   -3.0308    4.8469    0.2439 C   0  0  0  0  0  0  0  0  0  0  0  0
   -2.1552    4.3163   -0.8664 C   0  0  0  0  0  0  0  0  0  0  0  0
   -2.3656    2.8221   -0.9705 C   0  0  0  0  0  0  0  0  0  0  0  0
   -1.3063   -1.2365    0.5011 N   0  0  0  0  0  0  0  0  0  0  0  0
   -2.5159   -2.0149    0.4637 C   0  0  0  0  0  0  0  0  0  0  0  0
   -3.3067   -1.8392   -0.7999 C   0  0  0  0  0  0  0  0  0  0  0  0
   -3.7807   -3.1292   -1.3987 C   0  0  0  0  0  0  0  0  0  0  0  0
   -4.2711   -4.1329   -0.4279 C   0  0  0  0  0  0  0  0  0  0  0  0
   -3.6362   -4.1078    0.9121 C   0  0  0  0  0  0  0  0  0  0  0  0
   -2.2627   -3.4740    0.7829 C   0  0  0  0  0  0  0  0  0  0  0  0
    2.7502    2.2045   -0.1721 C   0  0  0  0  0  0  0  0  0  0  0  0
    4.4189    2.7764   -0.3915 S   0  0  0  0  0  0  0  0  0  0  0  0
    5.1485    1.1407   -0.3597 C   0  0  0  0  0  0  0  0  0  0  0  0
    6.2724    0.4878   -0.4371 N   0  0  0  0  0  0  0  0  0  0  0  0
    7.2537   -0.7283    1.5202 H   0  0  0  0  0  0  0  0  0  0  0  0
    7.6004   -2.2246    0.5217 H   0  0  0  0  0  0  0  0  0  0  0  0
    6.1331   -2.1099    1.5089 H   0  0  0  0  0  0  0  0  0  0  0  0
    7.6436   -1.3366   -1.7339 H   0  0  0  0  0  0  0  0  0  0  0  0
    6.3335   -2.6148   -1.6833 H   0  0  0  0  0  0  0  0  0  0  0  0
    6.0537   -0.9877   -2.4415 H   0  0  0  0  0  0  0  0  0  0  0  0
    4.3981   -1.4595    0.8755 H   0  0  0  0  0  0  0  0  0  0  0  0
    4.1318   -1.7133   -0.9278 H   0  0  0  0  0  0  0  0  0  0  0  0
    1.6028   -0.5076    1.0437 H   0  0  0  0  0  0  0  0  0  0  0  0
    1.4776   -0.6249   -0.7486 H   0  0  0  0  0  0  0  0  0  0  0  0
   -3.7207    2.4561    0.6076 H   0  0  0  0  0  0  0  0  0  0  0  0
   -1.7601    2.5650    2.3967 H   0  0  0  0  0  0  0  0  0  0  0  0
   -0.8442    3.3520    1.0690 H   0  0  0  0  0  0  0  0  0  0  0  0
   -3.5323    4.0960    2.1619 H   0  0  0  0  0  0  0  0  0  0  0  0
   -2.0050    5.0884    2.1551 H   0  0  0  0  0  0  0  0  0  0  0  0
   -4.0794    4.5280   -0.0065 H   0  0  0  0  0  0  0  0  0  0  0  0
   -3.0421    5.9505    0.2386 H   0  0  0  0  0  0  0  0  0  0  0  0
   -1.0945    4.5766   -0.7421 H   0  0  0  0  0  0  0  0  0  0  0  0
   -2.5319    4.7640   -1.8097 H   0  0  0  0  0  0  0  0  0  0  0  0
   -1.5048    2.3110   -1.4170 H   0  0  0  0  0  0  0  0  0  0  0  0
   -3.2345    2.6266   -1.6593 H   0  0  0  0  0  0  0  0  0  0  0  0
   -0.3960   -1.7366    0.5959 H   0  0  0  0  0  0  0  0  0  0  0  0
   -3.1776   -1.6403    1.3009 H   0  0  0  0  0  0  0  0  0  0  0  0
   -4.1569   -1.1340   -0.6956 H   0  0  0  0  0  0  0  0  0  0  0  0
   -2.6180   -1.3687   -1.5592 H   0  0  0  0  0  0  0  0  0  0  0  0
   -3.0020   -3.5364   -2.0926 H   0  0  0  0  0  0  0  0  0  0  0  0
   -4.6427   -2.8649   -2.0796 H   0  0  0  0  0  0  0  0  0  0  0  0
   -5.3839   -4.1001   -0.2791 H   0  0  0  0  0  0  0  0  0  0  0  0
   -4.0878   -5.1544   -0.8711 H   0  0  0  0  0  0  0  0  0  0  0  0
   -3.6017   -5.1128    1.3598 H   0  0  0  0  0  0  0  0  0  0  0  0
   -4.2419   -3.4076    1.5589 H   0  0  0  0  0  0  0  0  0  0  0  0
   -1.6585   -3.9683   -0.0092 H   0  0  0  0  0  0  0  0  0  0  0  0
   -1.7779   -3.5167    1.7800 H   0  0  0  0  0  0  0  0  0  0  0  0
    1.8864    2.8651   -0.1233 H   0  0  0  0  0  0  0  0  0  0  0  0
  1  2  1  0
  2  3  1  0
  2  4  1  0
  4  5  1  0
  5  6  1  0
  6  7  1  0
  7  8  1  0
  8  9  1  0
  9 10  2  0
 10 11  1  0
 11 12  1  0
 12 13  1  0
 13 14  1  0
 14 15  1  0
 15 16  1  0
  9 17  1  0
 17 18  1  0
 18 19  1  0
 19 20  1  0
 20 21  1  0
 21 22  1  0
 22 23  1  0
  6 24  2  0
 24 25  1  0
 25 26  1  0
 26 27  2  0
 27  2  1  0
 26  5  1  0
 16 11  1  0
 23 18  1  0
  1 28  1  0
  1 29  1  0
  1 30  1  0
  3 31  1  0
  3 32  1  0
  3 33  1  0
  4 34  1  0
  4 35  1  0
  7 36  1  0
  7 37  1  0
 11 38  1  0
 12 39  1  0
 12 40  1  0
 13 41  1  0
 13 42  1  0
 14 43  1  0
 14 44  1  0
 15 45  1  0
 15 46  1  0
 16 47  1  0
 16 48  1  0
 17 49  1  0
 18 50  1  0
 19 51  1  0
 19 52  1  0
 20 53  1  0
 20 54  1  0
 21 55  1  0
 21 56  1  0
 22 57  1  0
 22 58  1  0
 23 59  1  0
 23 60  1  0
 24 61  1  0
M  END
$$$$
