@<TRIPOS>MOLECULE
*****
 31 33 0 0 0
SMALL
GASTEIGER

@<TRIPOS>ATOM
      1 C          -2.9360   -2.8670    0.5312 C.3     1  UNL1       -0.0221
      2 C          -2.8136   -1.4033    0.2547 C.ar    1  UNL1        0.0453
      3 N          -3.7843   -0.7062   -0.3747 N.ar    1  UNL1       -0.2158
      4 C          -3.5657    0.6238   -0.5796 C.ar    1  UNL1        0.2547
      5 N          -4.4012    1.4811   -1.1890 N.ar    1  UNL1       -0.1974
      6 C          -3.7654    2.6772   -1.1621 C.ar    1  UNL1        0.1406
      7 N          -2.5780    2.5233   -0.5498 N.ar    1  UNL1       -0.1506
      8 N          -2.4367    1.2674   -0.1864 N.ar    1  UNL1       -0.1823
      9 C          -1.4387    0.6122    0.4445 C.ar    1  UNL1        0.1299
     10 N          -0.2821    1.3140    0.8221 N.pl3   1  UNL1       -0.2992
     11 C           1.0078    0.7596    0.5956 C.ar    1  UNL1        0.0324
     12 C           1.6495   -0.2967    1.1851 C.ar    1  UNL1       -0.0400
     13 C           2.8959   -0.7167    0.7898 C.ar    1  UNL1       -0.0484
     14 C           3.5749   -0.0898   -0.2309 C.ar    1  UNL1        0.0549
     15 C           2.9612    0.9821   -0.8503 C.ar    1  UNL1       -0.0484
     16 C           1.6973    1.3992   -0.4426 C.ar    1  UNL1       -0.0400
     17 C           4.9120   -0.5965   -0.6309 C.3     1  UNL1        0.4174
     18 F           4.8574   -0.7655   -2.0053 F       1  UNL1       -0.1659
     19 F           5.9569    0.1668   -0.2310 F       1  UNL1       -0.1659
     20 F           5.0941   -1.8622   -0.0900 F       1  UNL1       -0.1659
     21 C          -1.6777   -0.7298    0.6434 C.ar    1  UNL1       -0.0003
     22 H          -2.5413   -3.0232    1.5661 H       1  UNL1        0.0293
     23 H          -2.1776   -3.3749   -0.1385 H       1  UNL1        0.0293
     24 H          -3.9546   -3.2130    0.3649 H       1  UNL1        0.0293
     25 H          -4.2336    3.5509   -1.5946 H       1  UNL1        0.1066
     26 H          -0.3601    2.2552    1.2832 H       1  UNL1        0.1536
     27 H           1.1229   -0.7772    1.9940 H       1  UNL1        0.0636
     28 H           3.3348   -1.5620    1.3046 H       1  UNL1        0.0624
     29 H           3.5058    1.4661   -1.6451 H       1  UNL1        0.0624
     30 H           1.3217    2.2466   -1.0132 H       1  UNL1        0.0636
     31 H          -0.9456   -1.3413    1.1347 H       1  UNL1        0.0670
@<TRIPOS>BOND
     1     1     2    1
     2     2     3   ar
     3     3     4   ar
     4     4     5   ar
     5     5     6   ar
     6     6     7   ar
     7     7     8   ar
     8     8     9   ar
     9     9    10    1
    10    10    11    1
    11    11    12   ar
    12    12    13   ar
    13    13    14   ar
    14    14    15   ar
    15    15    16   ar
    16    14    17    1
    17    17    18    1
    18    17    19    1
    19    17    20    1
    20     9    21   ar
    21    21     2   ar
    22     8     4   ar
    23    16    11   ar
    24     1    22    1
    25     1    23    1
    26     1    24    1
    27     6    25    1
    28    10    26    1
    29    12    27    1
    30    13    28    1
    31    15    29    1
    32    16    30    1
    33    21    31    1
