
     RDKit          3D

 31 33  0  0  0  0  0  0  0  0999 V2000
   -2.9360   -2.8670    0.5312 C   0  0  0  0  0  0  0  0  0  0  0  0
   -2.8136   -1.4033    0.2547 C   0  0  0  0  0  0  0  0  0  0  0  0
   -3.7843   -0.7062   -0.3747 N   0  0  0  0  0  0  0  0  0  0  0  0
   -3.5657    0.6238   -0.5796 C   0  0  0  0  0  0  0  0  0  0  0  0
   -4.4012    1.4811   -1.1890 N   0  0  0  0  0  0  0  0  0  0  0  0
   -3.7654    2.6772   -1.1621 C   0  0  0  0  0  0  0  0  0  0  0  0
   -2.5780    2.5233   -0.5498 N   0  0  0  0  0  0  0  0  0  0  0  0
   -2.4367    1.2674   -0.1864 N   0  0  0  0  0  0  0  0  0  0  0  0
   -1.4387    0.6122    0.4445 C   0  0  0  0  0  0  0  0  0  0  0  0
   -0.2821    1.3140    0.8221 N   0  0  0  0  0  0  0  0  0  0  0  0
    1.0078    0.7596    0.5956 C   0  0  0  0  0  0  0  0  0  0  0  0
    1.6495   -0.2967    1.1851 C   0  0  0  0  0  0  0  0  0  0  0  0
    2.8959   -0.7167    0.7898 C   0  0  0  0  0  0  0  0  0  0  0  0
    3.5749   -0.0898   -0.2309 C   0  0  0  0  0  0  0  0  0  0  0  0
    2.9612    0.9821   -0.8503 C   0  0  0  0  0  0  0  0  0  0  0  0
    1.6973    1.3992   -0.4426 C   0  0  0  0  0  0  0  0  0  0  0  0
    4.9120   -0.5965   -0.6309 C   0  0  0  0  0  0  0  0  0  0  0  0
    4.8574   -0.7655   -2.0053 F   0  0  0  0  0  0  0  0  0  0  0  0
    5.9569    0.1668   -0.2310 F   0  0  0  0  0  0  0  0  0  0  0  0
    5.0941   -1.8622   -0.0900 F   0  0  0  0  0  0  0  0  0  0  0  0
   -1.6777   -0.7298    0.6434 C   0  0  0  0  0  0  0  0  0  0  0  0
   -2.5413   -3.0232    1.5661 H   0  0  0  0  0  0  0  0  0  0  0  0
   -2.1776   -3.3749   -0.1385 H   0  0  0  0  0  0  0  0  0  0  0  0
   -3.9546   -3.2130    0.3649 H   0  0  0  0  0  0  0  0  0  0  0  0
   -4.2336    3.5509   -1.5946 H   0  0  0  0  0  0  0  0  0  0  0  0
   -0.3601    2.2552    1.2832 H   0  0  0  0  0  0  0  0  0  0  0  0
    1.1229   -0.7772    1.9940 H   0  0  0  0  0  0  0  0  0  0  0  0
    3.3348   -1.5620    1.3046 H   0  0  0  0  0  0  0  0  0  0  0  0
    3.5058    1.4661   -1.6451 H   0  0  0  0  0  0  0  0  0  0  0  0
    1.3217    2.2466   -1.0132 H   0  0  0  0  0  0  0  0  0  0  0  0
   -0.9456   -1.3413    1.1347 H   0  0  0  0  0  0  0  0  0  0  0  0
  1  2  1  0
  2  3  2  0
  3  4  1  0
  4  5  2  0
  5  6  1  0
  6  7  2  0
  7  8  1  0
  8  9  1  0
  9 10  1  0
 10 11  1  0
 11 12  2  0
 12 13  1  0
 13 14  2  0
 14 15  1  0
 15 16  2  0
 14 17  1  0
 17 18  1  0
 17 19  1  0
 17 20  1  0
  9 21  2  0
 21  2  1  0
  8  4  1  0
 16 11  1  0
  1 22  1  0
  1 23  1  0
  1 24  1  0
  6 25  1  0
 10 26  1  0
 12 27  1  0
 13 28  1  0
 15 29  1  0
 16 30  1  0
 21 31  1  0
M  END
$$$$
