@<TRIPOS>MOLECULE
*****
 56 58 0 0 0
SMALL
GASTEIGER

@<TRIPOS>ATOM
      1 C          -3.0244    5.4017    1.3075 C.3     1  UNL1        0.0788
      2 O          -2.3648    4.3330    0.6918 O.3     1  UNL1       -0.4951
      3 C          -2.9706    3.0923    0.5902 C.ar    1  UNL1        0.1204
      4 C          -4.2356    2.8954    1.0946 C.ar    1  UNL1       -0.0199
      5 C          -4.7869    1.6328    0.9634 C.ar    1  UNL1       -0.0580
      6 C          -4.1095    0.6004    0.3534 C.ar    1  UNL1       -0.0568
      7 C          -2.8304    0.7831   -0.1618 C.ar    1  UNL1       -0.0266
      8 C          -2.1524   -0.3725   -0.8083 C.3     1  UNL1        0.0413
      9 N          -1.3506   -1.1526    0.0937 N.am    1  UNL1       -0.2798
     10 C          -1.9532   -2.2130    0.8825 C.3     1  UNL1        0.0292
     11 C          -1.9037   -3.5509    0.2197 C.3     1  UNL1        0.0142
     12 N          -2.5592   -3.7023   -1.0074 N.3     1  UNL1       -0.3069
     13 C          -3.9653   -3.6641   -1.0654 C.3     1  UNL1       -0.0130
     14 C          -1.8407   -3.5991   -2.2112 C.3     1  UNL1       -0.0130
     15 C           0.0474   -0.9268    0.2744 C.2     1  UNL1        0.3068
     16 O           0.6758   -1.6449    1.1063 O.2     1  UNL1       -0.2523
     17 N           0.7936    0.0615   -0.4256 N.am    1  UNL1       -0.2693
     18 C           2.1791    0.2645   -0.2283 C.ar    1  UNL1        0.0348
     19 C           2.6730    1.1569    0.7196 C.ar    1  UNL1       -0.0399
     20 C           4.0322    1.3092    0.8582 C.ar    1  UNL1       -0.0522
     21 C           4.9193    0.6029    0.0845 C.ar    1  UNL1       -0.0148
     22 C           6.3708    0.7880    0.2465 C.ar    1  UNL1        0.0193
     23 C           7.0089    1.9581    0.6134 C.ar    1  UNL1        0.0568
     24 N           8.3267    1.6884    0.6411 N.ar    1  UNL1       -0.1817
     25 N           8.5670    0.4306    0.3176 N.ar    1  UNL1       -0.2841
     26 C           7.3790   -0.1339    0.0734 C.ar    1  UNL1        0.0300
     27 C           4.4516   -0.2743   -0.8466 C.ar    1  UNL1       -0.0522
     28 C           3.0922   -0.4314   -0.9904 C.ar    1  UNL1       -0.0399
     29 C          -2.2884    2.0364   -0.0289 C.ar    1  UNL1       -0.0153
     30 H          -2.2538    6.1980    1.4842 H       1  UNL1        0.0660
     31 H          -3.5144    5.0903    2.2342 H       1  UNL1        0.0660
     32 H          -3.8284    5.8327    0.6415 H       1  UNL1        0.0660
     33 H          -4.8065    3.6954    1.5859 H       1  UNL1        0.0654
     34 H          -5.7913    1.4457    1.3548 H       1  UNL1        0.0619
     35 H          -4.5397   -0.3951    0.2475 H       1  UNL1        0.0621
     36 H          -2.9101   -1.0250   -1.3353 H       1  UNL1        0.0514
     37 H          -1.4979   -0.0274   -1.6591 H       1  UNL1        0.0514
     38 H          -1.3691   -2.3001    1.8479 H       1  UNL1        0.0478
     39 H          -2.9811   -1.9416    1.2151 H       1  UNL1        0.0478
     40 H          -2.3014   -4.3286    0.9297 H       1  UNL1        0.0442
     41 H          -0.8260   -3.8681    0.0608 H       1  UNL1        0.0442
     42 H          -4.3658   -4.5225   -0.4779 H       1  UNL1        0.0391
     43 H          -4.2799   -3.8520   -2.1264 H       1  UNL1        0.0391
     44 H          -4.4554   -2.7462   -0.6801 H       1  UNL1        0.0391
     45 H          -2.2187   -4.3990   -2.9102 H       1  UNL1        0.0391
     46 H          -1.9222   -2.6618   -2.7748 H       1  UNL1        0.0391
     47 H          -0.7629   -3.8715   -2.0539 H       1  UNL1        0.0391
     48 H           0.3080    0.6682   -1.1228 H       1  UNL1        0.1564
     49 H           2.0145    1.7337    1.3520 H       1  UNL1        0.0636
     50 H           4.4115    1.9957    1.5882 H       1  UNL1        0.0624
     51 H           6.4742    2.8822    0.8235 H       1  UNL1        0.0854
     52 H           9.5016   -0.0608    0.2553 H       1  UNL1        0.1882
     53 H           7.1959   -1.1650   -0.2212 H       1  UNL1        0.0830
     54 H           5.1013   -0.8467   -1.4721 H       1  UNL1        0.0624
     55 H           2.7432   -1.1340   -1.7361 H       1  UNL1        0.0636
     56 H          -1.3065    2.2338   -0.4090 H       1  UNL1        0.0657
@<TRIPOS>BOND
     1     1     2    1
     2     2     3    1
     3     3     4   ar
     4     4     5   ar
     5     5     6   ar
     6     6     7   ar
     7     7     8    1
     8     8     9    1
     9     9    10    1
    10    10    11    1
    11    11    12    1
    12    12    13    1
    13    12    14    1
    14     9    15   am
    15    15    16    2
    16    15    17   am
    17    17    18    1
    18    18    19   ar
    19    19    20   ar
    20    20    21   ar
    21    21    22    1
    22    22    23   ar
    23    23    24   ar
    24    24    25   ar
    25    25    26   ar
    26    21    27   ar
    27    27    28   ar
    28     7    29   ar
    29    29     3   ar
    30    28    18   ar
    31    26    22   ar
    32     1    30    1
    33     1    31    1
    34     1    32    1
    35     4    33    1
    36     5    34    1
    37     6    35    1
    38     8    36    1
    39     8    37    1
    40    10    38    1
    41    10    39    1
    42    11    40    1
    43    11    41    1
    44    13    42    1
    45    13    43    1
    46    13    44    1
    47    14    45    1
    48    14    46    1
    49    14    47    1
    50    17    48    1
    51    19    49    1
    52    20    50    1
    53    23    51    1
    54    25    52    1
    55    26    53    1
    56    27    54    1
    57    28    55    1
    58    29    56    1
