@<TRIPOS>MOLECULE
*****
 54 58 0 0 0
SMALL
GASTEIGER

@<TRIPOS>ATOM
      1 C          -3.6848    2.1364    0.8438 C.3     1  UNL1       -0.0203
      2 C          -3.2370    0.7202    0.8048 C.ar    1  UNL1        0.0660
      3 N          -3.8861   -0.4193    0.9600 N.ar    1  UNL1       -0.1752
      4 N          -3.1004   -1.4632    0.8481 N.ar    1  UNL1       -0.2561
      5 C          -3.4221   -2.8743    0.9513 C.3     1  UNL1        0.0479
      6 C          -3.8772   -3.1086    2.3832 C.3     1  UNL1       -0.0428
      7 C          -4.5241   -3.2674   -0.0038 C.3     1  UNL1       -0.0428
      8 C          -1.8400   -0.9850    0.6014 C.ar    1  UNL1        0.1296
      9 C          -1.9014    0.3763    0.5694 C.ar    1  UNL1        0.0305
     10 C          -0.5558    0.9069    0.2959 C.3     1  UNL1        0.0881
     11 C          -0.5293    1.7874   -0.8937 C.ar    1  UNL1        0.0131
     12 C          -0.2840    3.1351   -0.7491 C.ar    1  UNL1       -0.0523
     13 C          -0.2384    4.0238   -1.7873 C.ar    1  UNL1       -0.0429
     14 C          -0.4554    3.5188   -3.0598 C.ar    1  UNL1        0.0437
     15 CL         -0.4018    4.6319   -4.3936 Cl      1  UNL1       -0.0835
     16 C          -0.7053    2.1625   -3.2343 C.ar    1  UNL1       -0.0078
     17 C          -0.7401    1.3093   -2.1501 C.ar    1  UNL1        0.1300
     18 F          -0.9920    0.0027   -2.3910 F       1  UNL1       -0.2051
     19 N           0.3079   -0.2151    0.2002 N.am    1  UNL1       -0.2530
     20 C           1.7251   -0.2437   -0.0206 C.ar    1  UNL1        0.0545
     21 C           2.2798   -0.3176   -1.2725 C.ar    1  UNL1       -0.0324
     22 C           3.6464   -0.3440   -1.4795 C.ar    1  UNL1       -0.0041
     23 C           4.2415   -0.4248   -2.8349 C.3     1  UNL1       -0.0361
     24 C           4.4513   -0.2923   -0.3598 C.ar    1  UNL1        0.1641
     25 N           5.7910   -0.3004   -0.2352 N.ar    1  UNL1       -0.1292
     26 N           6.0905   -0.2348    1.0359 N.ar    1  UNL1       -0.1340
     27 C           4.9480   -0.1831    1.7579 C.ar    1  UNL1        0.1347
     28 C           4.8312   -0.1011    3.2429 C.3     1  UNL1       -0.0041
     29 N           3.9236   -0.2189    0.8879 N.ar    1  UNL1       -0.2846
     30 C           2.5676   -0.1943    1.0631 C.ar    1  UNL1        0.0344
     31 C          -0.4652   -1.3915    0.3718 C.2     1  UNL1        0.2700
     32 O          -0.0826   -2.5945    0.3408 O.2     1  UNL1       -0.2679
     33 H          -4.7800    2.2279    0.9294 H       1  UNL1        0.0293
     34 H          -3.4171    2.6214   -0.1380 H       1  UNL1        0.0293
     35 H          -3.1571    2.7151    1.6316 H       1  UNL1        0.0293
     36 H          -2.5446   -3.4882    0.6992 H       1  UNL1        0.0539
     37 H          -3.0487   -2.6962    3.0303 H       1  UNL1        0.0250
     38 H          -4.1015   -4.1515    2.5958 H       1  UNL1        0.0250
     39 H          -4.7455   -2.4253    2.5449 H       1  UNL1        0.0250
     40 H          -4.7591   -4.3426    0.2267 H       1  UNL1        0.0250
     41 H          -4.1918   -3.2277   -1.0392 H       1  UNL1        0.0250
     42 H          -5.4507   -2.6977    0.2004 H       1  UNL1        0.0250
     43 H          -0.1725    1.5143    1.1728 H       1  UNL1        0.0607
     44 H          -0.1121    3.5340    0.2628 H       1  UNL1        0.0622
     45 H          -0.0398    5.0665   -1.5899 H       1  UNL1        0.0632
     46 H          -0.8641    1.8451   -4.2537 H       1  UNL1        0.0661
     47 H           1.6599   -0.3578   -2.1373 H       1  UNL1        0.0640
     48 H           4.9079    0.4460   -2.9615 H       1  UNL1        0.0279
     49 H           3.4178   -0.4107   -3.5598 H       1  UNL1        0.0279
     50 H           4.8386   -1.3641   -2.8845 H       1  UNL1        0.0279
     51 H           4.2782    0.8157    3.5286 H       1  UNL1        0.0308
     52 H           5.8479   -0.0473    3.6859 H       1  UNL1        0.0308
     53 H           4.3197   -0.9795    3.6737 H       1  UNL1        0.0308
     54 H           2.2337   -0.1351    2.0882 H       1  UNL1        0.0833
@<TRIPOS>BOND
     1     1     2    1
     2     2     3   ar
     3     3     4   ar
     4     4     5    1
     5     5     6    1
     6     5     7    1
     7     4     8   ar
     8     8     9   ar
     9     9    10    1
    10    10    11    1
    11    11    12   ar
    12    12    13   ar
    13    13    14   ar
    14    14    15    1
    15    14    16   ar
    16    16    17   ar
    17    17    18    1
    18    10    19    1
    19    19    20    1
    20    20    21   ar
    21    21    22   ar
    22    22    23    1
    23    22    24   ar
    24    24    25   ar
    25    25    26   ar
    26    26    27   ar
    27    27    28    1
    28    27    29   ar
    29    29    30   ar
    30    19    31   am
    31    31    32    2
    32     9     2   ar
    33    17    11   ar
    34    30    20   ar
    35    31     8    1
    36    29    24   ar
    37     1    33    1
    38     1    34    1
    39     1    35    1
    40     5    36    1
    41     6    37    1
    42     6    38    1
    43     6    39    1
    44     7    40    1
    45     7    41    1
    46     7    42    1
    47    10    43    1
    48    12    44    1
    49    13    45    1
    50    16    46    1
    51    21    47    1
    52    23    48    1
    53    23    49    1
    54    23    50    1
    55    28    51    1
    56    28    52    1
    57    28    53    1
    58    30    54    1
