
     RDKit          3D

 54 58  0  0  0  0  0  0  0  0999 V2000
   -3.6848    2.1364    0.8438 C   0  0  0  0  0  0  0  0  0  0  0  0
   -3.2370    0.7202    0.8048 C   0  0  0  0  0  0  0  0  0  0  0  0
   -3.8861   -0.4193    0.9600 N   0  0  0  0  0  0  0  0  0  0  0  0
   -3.1004   -1.4632    0.8481 N   0  0  0  0  0  0  0  0  0  0  0  0
   -3.4221   -2.8743    0.9513 C   0  0  0  0  0  0  0  0  0  0  0  0
   -3.8772   -3.1086    2.3832 C   0  0  0  0  0  0  0  0  0  0  0  0
   -4.5241   -3.2674   -0.0038 C   0  0  0  0  0  0  0  0  0  0  0  0
   -1.8400   -0.9850    0.6014 C   0  0  0  0  0  0  0  0  0  0  0  0
   -1.9014    0.3763    0.5694 C   0  0  0  0  0  0  0  0  0  0  0  0
   -0.5558    0.9069    0.2959 C   0  0  0  0  0  0  0  0  0  0  0  0
   -0.5293    1.7874   -0.8937 C   0  0  0  0  0  0  0  0  0  0  0  0
   -0.2840    3.1351   -0.7491 C   0  0  0  0  0  0  0  0  0  0  0  0
   -0.2384    4.0238   -1.7873 C   0  0  0  0  0  0  0  0  0  0  0  0
   -0.4554    3.5188   -3.0598 C   0  0  0  0  0  0  0  0  0  0  0  0
   -0.4018    4.6319   -4.3936 Cl  0  0  0  0  0  0  0  0  0  0  0  0
   -0.7053    2.1625   -3.2343 C   0  0  0  0  0  0  0  0  0  0  0  0
   -0.7401    1.3093   -2.1501 C   0  0  0  0  0  0  0  0  0  0  0  0
   -0.9920    0.0027   -2.3910 F   0  0  0  0  0  0  0  0  0  0  0  0
    0.3079   -0.2151    0.2002 N   0  0  0  0  0  0  0  0  0  0  0  0
    1.7251   -0.2437   -0.0206 C   0  0  0  0  0  0  0  0  0  0  0  0
    2.2798   -0.3176   -1.2725 C   0  0  0  0  0  0  0  0  0  0  0  0
    3.6464   -0.3440   -1.4795 C   0  0  0  0  0  0  0  0  0  0  0  0
    4.2415   -0.4248   -2.8349 C   0  0  0  0  0  0  0  0  0  0  0  0
    4.4513   -0.2923   -0.3598 C   0  0  0  0  0  0  0  0  0  0  0  0
    5.7910   -0.3004   -0.2352 N   0  0  0  0  0  0  0  0  0  0  0  0
    6.0905   -0.2348    1.0359 N   0  0  0  0  0  0  0  0  0  0  0  0
    4.9480   -0.1831    1.7579 C   0  0  0  0  0  0  0  0  0  0  0  0
    4.8312   -0.1011    3.2429 C   0  0  0  0  0  0  0  0  0  0  0  0
    3.9236   -0.2189    0.8879 N   0  0  0  0  0  0  0  0  0  0  0  0
    2.5676   -0.1943    1.0631 C   0  0  0  0  0  0  0  0  0  0  0  0
   -0.4652   -1.3915    0.3718 C   0  0  0  0  0  0  0  0  0  0  0  0
   -0.0826   -2.5945    0.3408 O   0  0  0  0  0  0  0  0  0  0  0  0
   -4.7800    2.2279    0.9294 H   0  0  0  0  0  0  0  0  0  0  0  0
   -3.4171    2.6214   -0.1380 H   0  0  0  0  0  0  0  0  0  0  0  0
   -3.1571    2.7151    1.6316 H   0  0  0  0  0  0  0  0  0  0  0  0
   -2.5446   -3.4882    0.6992 H   0  0  0  0  0  0  0  0  0  0  0  0
   -3.0487   -2.6962    3.0303 H   0  0  0  0  0  0  0  0  0  0  0  0
   -4.1015   -4.1515    2.5958 H   0  0  0  0  0  0  0  0  0  0  0  0
   -4.7455   -2.4253    2.5449 H   0  0  0  0  0  0  0  0  0  0  0  0
   -4.7591   -4.3426    0.2267 H   0  0  0  0  0  0  0  0  0  0  0  0
   -4.1918   -3.2277   -1.0392 H   0  0  0  0  0  0  0  0  0  0  0  0
   -5.4507   -2.6977    0.2004 H   0  0  0  0  0  0  0  0  0  0  0  0
   -0.1725    1.5143    1.1728 H   0  0  0  0  0  0  0  0  0  0  0  0
   -0.1121    3.5340    0.2628 H   0  0  0  0  0  0  0  0  0  0  0  0
   -0.0398    5.0665   -1.5899 H   0  0  0  0  0  0  0  0  0  0  0  0
   -0.8641    1.8451   -4.2537 H   0  0  0  0  0  0  0  0  0  0  0  0
    1.6599   -0.3578   -2.1373 H   0  0  0  0  0  0  0  0  0  0  0  0
    4.9079    0.4460   -2.9615 H   0  0  0  0  0  0  0  0  0  0  0  0
    3.4178   -0.4107   -3.5598 H   0  0  0  0  0  0  0  0  0  0  0  0
    4.8386   -1.3641   -2.8845 H   0  0  0  0  0  0  0  0  0  0  0  0
    4.2782    0.8157    3.5286 H   0  0  0  0  0  0  0  0  0  0  0  0
    5.8479   -0.0473    3.6859 H   0  0  0  0  0  0  0  0  0  0  0  0
    4.3197   -0.9795    3.6737 H   0  0  0  0  0  0  0  0  0  0  0  0
    2.2337   -0.1351    2.0882 H   0  0  0  0  0  0  0  0  0  0  0  0
  1  2  1  0
  2  3  2  0
  3  4  1  0
  4  5  1  0
  5  6  1  0
  5  7  1  0
  4  8  1  0
  8  9  2  0
  9 10  1  0
 10 11  1  0
 11 12  2  0
 12 13  1  0
 13 14  2  0
 14 15  1  0
 14 16  1  0
 16 17  2  0
 17 18  1  0
 10 19  1  0
 19 20  1  0
 20 21  1  0
 21 22  2  0
 22 23  1  0
 22 24  1  0
 24 25  2  0
 25 26  1  0
 26 27  2  0
 27 28  1  0
 27 29  1  0
 29 30  1  0
 19 31  1  0
 31 32  2  0
  9  2  1  0
 17 11  1  0
 30 20  2  0
 31  8  1  0
 29 24  1  0
  1 33  1  0
  1 34  1  0
  1 35  1  0
  5 36  1  0
  6 37  1  0
  6 38  1  0
  6 39  1  0
  7 40  1  0
  7 41  1  0
  7 42  1  0
 10 43  1  0
 12 44  1  0
 13 45  1  0
 16 46  1  0
 21 47  1  0
 23 48  1  0
 23 49  1  0
 23 50  1  0
 28 51  1  0
 28 52  1  0
 28 53  1  0
 30 54  1  0
M  END
$$$$
