@<TRIPOS>MOLECULE
*****
 53 56 0 0 0
SMALL
GASTEIGER

@<TRIPOS>ATOM
      1 C          -0.9964    1.2826    0.9332 C.3     1  UNL1        0.0397
      2 C          -2.2711    1.9053    1.3539 C.3     1  UNL1       -0.0059
      3 C          -3.4776    1.4661    0.6354 C.ar    1  UNL1       -0.0198
      4 C          -4.7494    1.9539    0.5765 C.ar    1  UNL1        0.0086
      5 N          -5.4862    1.1563   -0.2528 N.ar    1  UNL1       -0.3494
      6 C          -6.8817    1.2702   -0.6275 C.3     1  UNL1        0.0119
      7 C          -4.7301    0.1564   -0.7402 C.ar    1  UNL1        0.0497
      8 C          -3.4785    0.3578   -0.1806 C.ar    1  UNL1        0.0105
      9 C          -2.3570   -0.4098   -0.3769 C.ar    1  UNL1       -0.0112
     10 C          -2.4542   -1.5000   -1.2129 C.ar    1  UNL1       -0.0536
     11 C          -3.6957   -1.7526   -1.8073 C.ar    1  UNL1       -0.0592
     12 C          -4.7909   -0.9396   -1.5680 C.ar    1  UNL1       -0.0376
     13 C          -1.1162   -0.0519    0.2946 C.2     1  UNL1       -0.0253
     14 C          -0.1686   -0.9709    0.2756 C.2     1  UNL1       -0.0658
     15 C           1.1419   -0.7001    0.9289 C.3     1  UNL1        0.0669
     16 C           1.2130    0.7223    1.4424 C.3     1  UNL1        0.0138
     17 N          -0.0309    1.1612    2.0080 N.3     1  UNL1       -0.2971
     18 C          -0.5035    0.2887    3.0631 C.3     1  UNL1       -0.0121
     19 C           2.2739   -0.9977    0.0142 C.2     1  UNL1        0.2214
     20 O           1.6007   -1.3631   -0.9568 O.2     1  UNL1       -0.2751
     21 N           3.5934   -0.8113    0.4371 N.am    1  UNL1       -0.3098
     22 CA          4.6834   -1.0924   -0.4299 C.3     1  UNL1        0.0459
     23 C           5.3904    0.2217   -0.7522 C.3     1  UNL1       -0.0352
     24 C           4.4279    1.1777   -1.4313 C.3     1  UNL1       -0.0635
     25 C           5.6292   -2.1533    0.0017 C.3     1  UNL1        0.0625
     26 O           6.6177   -2.2568   -1.0045 O.3     1  UNL1       -0.3932
     27 H          -0.4889    1.9326    0.1645 H       1  UNL1        0.0515
     28 H          -2.3732    1.7555    2.4524 H       1  UNL1        0.0332
     29 H          -2.1964    3.0158    1.1595 H       1  UNL1        0.0332
     30 H          -5.1986    2.8015    1.0527 H       1  UNL1        0.0812
     31 H          -6.9949    1.6670   -1.6682 H       1  UNL1        0.0456
     32 H          -7.4159    0.3160   -0.5509 H       1  UNL1        0.0456
     33 H          -7.3105    2.0552    0.0417 H       1  UNL1        0.0456
     34 H          -1.6405   -2.1660   -1.4406 H       1  UNL1        0.0624
     35 H          -3.7855   -2.6067   -2.4668 H       1  UNL1        0.0618
     36 H          -5.7671   -1.1189   -2.0209 H       1  UNL1        0.0638
     37 H          -0.1713   -1.9368   -0.1483 H       1  UNL1        0.0583
     38 H           1.2239   -1.3964    1.7870 H       1  UNL1        0.0450
     39 H           1.4289    1.3717    0.5658 H       1  UNL1        0.0437
     40 H           2.0612    0.7844    2.1741 H       1  UNL1        0.0437
     41 H           0.3486   -0.1842    3.5578 H       1  UNL1        0.0391
     42 H          -1.1550   -0.5209    2.6744 H       1  UNL1        0.0391
     43 H          -1.0230    0.9260    3.8077 H       1  UNL1        0.0391
     44 H           3.7402   -0.4593    1.4099 H       1  UNL1        0.1491
     45 HA          4.2332   -1.4502   -1.4012 H       1  UNL1        0.0521
     46 H           6.2970    0.0868   -1.3621 H       1  UNL1        0.0281
     47 H           5.7260    0.7228    0.1873 H       1  UNL1        0.0281
     48 H           3.6714    1.5714   -0.7464 H       1  UNL1        0.0230
     49 H           3.8563    0.6538   -2.2459 H       1  UNL1        0.0230
     50 H           5.0006    2.0186   -1.8645 H       1  UNL1        0.0230
     51 H1          5.0823   -3.1290   -0.0420 H       1  UNL1        0.0575
     52 H2          6.1128   -1.9680    0.9779 H       1  UNL1        0.0575
     53 H           7.3547   -2.8636   -0.7484 H       1  UNL1        0.2095
@<TRIPOS>BOND
     1     1     2    1
     2     2     3    1
     3     3     4   ar
     4     4     5   ar
     5     5     6    1
     6     5     7   ar
     7     7     8   ar
     8     8     9   ar
     9     9    10   ar
    10    10    11   ar
    11    11    12   ar
    12     9    13    1
    13    13    14    2
    14    14    15    1
    15    15    16    1
    16    16    17    1
    17    17    18    1
    18    15    19    1
    19    19    20    2
    20    19    21   am
    21    21    22    1
    22    22    23    1
    23    23    24    1
    24    22    25    1
    25    25    26    1
    26    13     1    1
    27    17     1    1
    28     8     3   ar
    29    12     7   ar
    30     1    27    1
    31     2    28    1
    32     2    29    1
    33     4    30    1
    34     6    31    1
    35     6    32    1
    36     6    33    1
    37    10    34    1
    38    11    35    1
    39    12    36    1
    40    14    37    1
    41    15    38    1
    42    16    39    1
    43    16    40    1
    44    18    41    1
    45    18    42    1
    46    18    43    1
    47    21    44    1
    48    22    45    1
    49    23    46    1
    50    23    47    1
    51    24    48    1
    52    24    49    1
    53    24    50    1
    54    25    51    1
    55    25    52    1
    56    26    53    1
