@<TRIPOS>MOLECULE
*****
 72 74 0 0 0
SMALL
GASTEIGER

@<TRIPOS>ATOM
      1 C           7.3652    1.7693   -0.1672 C.3     1  UNL1       -0.0627
      2 C           6.7267    0.3915    0.0477 C.3     1  UNL1       -0.0467
      3 C           7.7568   -0.5785   -0.5520 C.3     1  UNL1       -0.0627
      4 C           5.4782    0.4061   -0.7783 C.3     1  UNL1       -0.0507
      5 C           4.6343   -0.7887   -0.7753 C.3     1  UNL1       -0.0526
      6 C           3.9697   -1.2958    0.4133 C.3     1  UNL1       -0.0502
      7 C           2.9111   -0.4731    1.0825 C.3     1  UNL1       -0.0405
      8 C           3.4172    0.8421    1.5586 C.3     1  UNL1       -0.0621
      9 C           1.6825   -0.3149    0.2621 C.3     1  UNL1       -0.0325
     10 C           1.0617   -1.6812   -0.0639 C.3     1  UNL1       -0.0489
     11 C          -0.2861   -1.3148   -0.6218 C.3     1  UNL1       -0.0457
     12 C          -0.4775    0.1276   -0.3593 C.3     1  UNL1       -0.0139
     13 C          -1.8721    0.4826    0.0127 C.2     1  UNL1       -0.0659
     14 C          -1.9576    1.6746    0.9334 C.3     1  UNL1       -0.0312
     15 C          -0.7544    2.5342    0.8227 C.3     1  UNL1       -0.0488
     16 C           0.5775    1.8865    0.8690 C.3     1  UNL1       -0.0465
     17 C           0.5039    0.3889    0.7981 C.3     1  UNL1       -0.0225
     18 C           0.0318   -0.2422    2.0650 C.3     1  UNL1       -0.0588
     19 C          -2.9853   -0.1491   -0.4102 C.2     1  UNL1       -0.0620
     20 C          -4.2945    0.3043    0.0381 C.2     1  UNL1       -0.0583
     21 C          -5.4457   -0.2155   -0.2876 C.2     1  UNL1       -0.0423
     22 C          -6.7692    0.3067    0.2109 C.3     1  UNL1       -0.0013
     23 C          -7.7178    0.2851   -0.9417 C.3     1  UNL1        0.0595
     24 O          -7.3886    1.3314   -1.7957 O.3     1  UNL1       -0.3915
     25 C          -7.8462   -1.0308   -1.6345 C.3     1  UNL1       -0.0226
     26 C          -6.5354   -1.5383   -2.1999 C.3     1  UNL1       -0.0256
     27 C          -5.4424   -1.3896   -1.1804 C.2     1  UNL1       -0.0511
     28 C          -4.4200   -2.2261   -0.9559 C.2     1  UNL1       -0.0952
     29 H           6.5527    2.5081    0.0027 H       1  UNL1        0.0232
     30 H           7.7195    1.8873   -1.2113 H       1  UNL1        0.0232
     31 H           8.1389    1.9616    0.5919 H       1  UNL1        0.0232
     32 H           6.6286    0.2651    1.1151 H       1  UNL1        0.0295
     33 H           7.6419   -1.6028   -0.1796 H       1  UNL1        0.0232
     34 H           7.6275   -0.4888   -1.6537 H       1  UNL1        0.0232
     35 H           8.7693   -0.1941   -0.3126 H       1  UNL1        0.0232
     36 H           4.9886    1.3812   -0.5920 H       1  UNL1        0.0268
     37 H           5.8603    0.5306   -1.8479 H       1  UNL1        0.0268
     38 H           3.8229   -0.6086   -1.5588 H       1  UNL1        0.0265
     39 H           5.2159   -1.6334   -1.2773 H       1  UNL1        0.0265
     40 H           3.4713   -2.2735    0.1364 H       1  UNL1        0.0268
     41 H           4.6651   -1.6352    1.2381 H       1  UNL1        0.0268
     42 H           2.6195   -1.0434    2.0199 H       1  UNL1        0.0301
     43 H           2.9491    1.1241    2.5594 H       1  UNL1        0.0233
     44 H           4.5021    0.8242    1.8223 H       1  UNL1        0.0233
     45 H           3.1595    1.6353    0.8655 H       1  UNL1        0.0233
     46 H           1.9245    0.1292   -0.7324 H       1  UNL1        0.0309
     47 H           0.9125   -2.3126    0.8086 H       1  UNL1        0.0268
     48 H           1.6640   -2.1712   -0.8584 H       1  UNL1        0.0268
     49 H          -0.3338   -1.4951   -1.7325 H       1  UNL1        0.0271
     50 H          -1.1000   -1.9458   -0.2054 H       1  UNL1        0.0271
     51 H          -0.0825    0.7111   -1.2150 H       1  UNL1        0.0351
     52 H          -2.8268    2.3432    0.6431 H       1  UNL1        0.0310
     53 H          -2.2342    1.3437    1.9505 H       1  UNL1        0.0310
     54 H          -0.8912    3.1491   -0.1197 H       1  UNL1        0.0268
     55 H          -0.8713    3.3240    1.6268 H       1  UNL1        0.0268
     56 H           1.1185    2.1953   -0.0719 H       1  UNL1        0.0271
     57 H           1.0777    2.2308    1.7925 H       1  UNL1        0.0271
     58 H          -0.9824   -0.6910    1.9811 H       1  UNL1        0.0235
     59 H           0.6779   -1.0700    2.4073 H       1  UNL1        0.0235
     60 H           0.0937    0.5333    2.8825 H       1  UNL1        0.0235
     61 H          -2.5831   -0.9069   -1.0584 H       1  UNL1        0.0617
     62 H          -4.3712    1.1426    0.7093 H       1  UNL1        0.0620
     63 H          -7.0977   -0.3682    1.0173 H       1  UNL1        0.0338
     64 H          -6.6637    1.3587    0.5435 H       1  UNL1        0.0338
     65 H          -8.7263    0.5257   -0.5251 H       1  UNL1        0.0596
     66 H          -7.0243    2.0637   -1.2341 H       1  UNL1        0.2098
     67 H          -8.5201   -0.8578   -2.5119 H       1  UNL1        0.0293
     68 H          -8.3040   -1.7455   -0.9307 H       1  UNL1        0.0293
     69 H          -6.2510   -0.8980   -3.0572 H       1  UNL1        0.0314
     70 H          -6.6625   -2.5949   -2.4990 H       1  UNL1        0.0314
     71 H          -3.7236   -3.0488   -0.9958 H       1  UNL1        0.0538
     72 H          -4.4755   -3.0744   -1.6546 H       1  UNL1        0.0538
@<TRIPOS>BOND
     1     1     2    1
     2     2     3    1
     3     2     4    1
     4     4     5    1
     5     5     6    1
     6     6     7    1
     7     7     8    1
     8     7     9    1
     9     9    10    1
    10    10    11    1
    11    11    12    1
    12    12    13    1
    13    13    14    1
    14    14    15    1
    15    15    16    1
    16    16    17    1
    17    17    18    1
    18    13    19    2
    19    19    20    1
    20    20    21    2
    21    21    22    1
    22    22    23    1
    23    23    24    1
    24    23    25    1
    25    25    26    1
    26    26    27    1
    27    27    28    2
    28    17     9    1
    29    27    21    1
    30    17    12    1
    31     1    29    1
    32     1    30    1
    33     1    31    1
    34     2    32    1
    35     3    33    1
    36     3    34    1
    37     3    35    1
    38     4    36    1
    39     4    37    1
    40     5    38    1
    41     5    39    1
    42     6    40    1
    43     6    41    1
    44     7    42    1
    45     8    43    1
    46     8    44    1
    47     8    45    1
    48     9    46    1
    49    10    47    1
    50    10    48    1
    51    11    49    1
    52    11    50    1
    53    12    51    1
    54    14    52    1
    55    14    53    1
    56    15    54    1
    57    15    55    1
    58    16    56    1
    59    16    57    1
    60    18    58    1
    61    18    59    1
    62    18    60    1
    63    19    61    1
    64    20    62    1
    65    22    63    1
    66    22    64    1
    67    23    65    1
    68    24    66    1
    69    25    67    1
    70    25    68    1
    71    26    69    1
    72    26    70    1
    73    28    71    1
    74    28    72    1
