@<TRIPOS>MOLECULE
*****
 41 45 0 0 0
SMALL
GASTEIGER

@<TRIPOS>ATOM
      1 C           3.9962    2.3470    1.8742 C.3     1  UNL1       -0.0134
      2 S           2.6176    1.4672    1.1060 S.3     1  UNL1       -0.1280
      3 C           3.2428    0.5123   -0.2590 C.ar    1  UNL1        0.0153
      4 C           4.6039    0.5340   -0.5725 C.ar    1  UNL1       -0.0477
      5 C           5.0626   -0.2140   -1.6339 C.ar    1  UNL1       -0.0607
      6 C           4.1802   -0.9687   -2.3681 C.ar    1  UNL1       -0.0611
      7 C           2.8278   -0.9872   -2.0526 C.ar    1  UNL1       -0.0530
      8 C           2.3638   -0.2416   -0.9930 C.ar    1  UNL1       -0.0037
      9 C           0.9492   -0.2218   -0.6136 C.ar    1  UNL1       -0.0020
     10 C           0.0824    0.7026   -1.1525 C.ar    1  UNL1       -0.0293
     11 C          -1.2491    0.7145   -0.7897 C.ar    1  UNL1        0.0488
     12 N          -2.2436    1.5203   -1.1925 N.ar    1  UNL1       -0.3541
     13 C          -3.3545    1.1401   -0.5599 C.ar    1  UNL1        0.0477
     14 C          -4.6485    1.6532   -0.6313 C.ar    1  UNL1       -0.0343
     15 C          -5.6130    1.0656    0.1356 C.ar    1  UNL1       -0.0182
     16 C          -5.3440   -0.0004    0.9617 C.ar    1  UNL1        0.1176
     17 O          -6.3895   -0.5438    1.7139 O.3     1  UNL1       -0.5067
     18 C          -4.0525   -0.5180    1.0376 C.ar    1  UNL1       -0.0104
     19 C          -3.0747    0.0607    0.2744 C.ar    1  UNL1        0.0116
     20 C          -1.7354   -0.2128    0.1306 C.ar    1  UNL1        0.0204
     21 C          -0.8679   -1.1451    0.6761 C.ar    1  UNL1        0.0595
     22 C           0.4549   -1.1329    0.2952 C.ar    1  UNL1        0.0576
     23 C           1.1995   -2.2024    0.9910 C.2     1  UNL1        0.2518
     24 O           2.4294   -2.4514    0.8572 O.2     1  UNL1       -0.2697
     25 N           0.2578   -2.8639    1.8141 N.am    1  UNL1       -0.2483
     26 C          -1.0193   -2.2134    1.6218 C.2     1  UNL1        0.2519
     27 O          -2.0312   -2.6025    2.2341 O.2     1  UNL1       -0.2697
     28 H           3.6634    3.1249    2.5924 H       1  UNL1        0.0344
     29 H           4.6188    2.7827    1.0587 H       1  UNL1        0.0344
     30 H           4.6865    1.6217    2.3958 H       1  UNL1        0.0344
     31 H           5.2810    1.1330    0.0161 H       1  UNL1        0.0629
     32 H           6.1239   -0.2228   -1.9109 H       1  UNL1        0.0618
     33 H           4.5263   -1.5713   -3.2173 H       1  UNL1        0.0618
     34 H           2.1608   -1.5932   -2.6526 H       1  UNL1        0.0624
     35 H           0.4642    1.4317   -1.8760 H       1  UNL1        0.0644
     36 H          -2.1648    2.3059   -1.8788 H       1  UNL1        0.1659
     37 H          -4.8629    2.4911   -1.2798 H       1  UNL1        0.0639
     38 H          -6.6328    1.4587    0.0888 H       1  UNL1        0.0655
     39 H          -7.0653   -1.1518    1.2873 H       1  UNL1        0.2921
     40 H          -3.9049   -1.3333    1.6856 H       1  UNL1        0.0661
     41 H           0.4608   -3.6745    2.4427 H       1  UNL1        0.1581
@<TRIPOS>BOND
     1     1     2    1
     2     2     3    1
     3     3     4   ar
     4     4     5   ar
     5     5     6   ar
     6     6     7   ar
     7     7     8   ar
     8     8     9    1
     9     9    10   ar
    10    10    11   ar
    11    11    12   ar
    12    12    13   ar
    13    13    14   ar
    14    14    15   ar
    15    15    16   ar
    16    16    17    1
    17    16    18   ar
    18    18    19   ar
    19    19    20   ar
    20    20    21   ar
    21    21    22   ar
    22    22    23    1
    23    23    24    2
    24    23    25   am
    25    25    26   am
    26    26    27    2
    27     8     3   ar
    28    22     9   ar
    29    20    11   ar
    30    26    21    1
    31    19    13   ar
    32     1    28    1
    33     1    29    1
    34     1    30    1
    35     4    31    1
    36     5    32    1
    37     6    33    1
    38     7    34    1
    39    10    35    1
    40    12    36    1
    41    14    37    1
    42    15    38    1
    43    17    39    1
    44    18    40    1
    45    25    41    1
