@<TRIPOS>MOLECULE
*****
 70 74 0 0 0
SMALL
GASTEIGER

@<TRIPOS>ATOM
      1 C           9.6169    2.3615    0.7877 C.3     1  UNL1       -0.0587
      2 C           8.6977    1.3463    1.4366 C.3     1  UNL1       -0.0215
      3 C           7.9879    1.9461    2.6448 C.3     1  UNL1       -0.0587
      4 C           7.6274    0.9125    0.5039 C.ar    1  UNL1       -0.0447
      5 C           7.4594   -0.4208    0.2469 C.ar    1  UNL1       -0.0566
      6 C           6.4863   -0.8381   -0.6043 C.ar    1  UNL1       -0.0401
      7 C           5.6357    0.0315   -1.2398 C.ar    1  UNL1        0.0365
      8 N           4.6476   -0.4898   -2.1093 N.am    1  UNL1       -0.2508
      9 C           3.3577   -0.8653   -1.7185 C.2     1  UNL1        0.4099
     10 O           3.0339   -0.7340   -0.5123 O.2     1  UNL1       -0.2257
     11 O           2.3720   -1.3871   -2.5710 O.3     1  UNL1       -0.4113
     12 C           1.1343   -1.7196   -2.0688 C.ar    1  UNL1        0.1336
     13 C           0.9596   -2.9559   -1.4985 C.ar    1  UNL1       -0.0174
     14 C          -0.2849   -3.3259   -0.9781 C.ar    1  UNL1       -0.0369
     15 C          -1.3385   -2.3994   -1.0577 C.ar    1  UNL1        0.0347
     16 C          -1.1712   -1.1628   -1.6266 C.ar    1  UNL1       -0.0139
     17 C           0.0803   -0.8394   -2.1292 C.ar    1  UNL1       -0.0136
     18 C          -2.4644   -0.4313   -1.5536 C.3     1  UNL1        0.0279
     19 C          -2.7226    0.1759   -2.9168 C.3     1  UNL1       -0.0525
     20 C          -2.5022    0.5485   -0.4342 C.3     1  UNL1       -0.0277
     21 C          -3.8117    0.3087    0.2522 C.3     1  UNL1        0.0015
     22 N          -4.3863   -0.8524   -0.2924 N.3     1  UNL1       -0.2833
     23 C          -5.7025   -0.7934   -0.8098 C.3     1  UNL1        0.0046
     24 C          -6.8286   -0.6201    0.1340 C.3     1  UNL1       -0.0148
     25 C          -6.8484    0.5793    0.9657 C.ar    1  UNL1       -0.0462
     26 C          -6.3160    0.6182    2.2383 C.ar    1  UNL1       -0.0585
     27 C          -6.3497    1.7606    3.0034 C.ar    1  UNL1       -0.0615
     28 C          -6.9148    2.9337    2.5514 C.ar    1  UNL1       -0.0617
     29 C          -7.4482    2.9026    1.2818 C.ar    1  UNL1       -0.0615
     30 C          -7.4227    1.7721    0.5054 C.ar    1  UNL1       -0.0585
     31 C          -3.4650   -1.4774   -1.1875 C.3     1  UNL1        0.0863
     32 N          -2.6866   -2.5385   -0.6004 N.pl3   1  UNL1       -0.3161
     33 C          -3.1536   -3.5695    0.2931 C.3     1  UNL1        0.0022
     34 C           5.7797    1.3789   -1.0018 C.ar    1  UNL1       -0.0401
     35 C           6.7817    1.8062   -0.1259 C.ar    1  UNL1       -0.0566
     36 H           9.1510    2.7619   -0.1404 H       1  UNL1        0.0235
     37 H          10.5555    1.8595    0.5357 H       1  UNL1        0.0235
     38 H           9.7599    3.1938    1.5060 H       1  UNL1        0.0235
     39 H           9.2354    0.4608    1.8088 H       1  UNL1        0.0343
     40 H           7.0160    1.3948    2.7912 H       1  UNL1        0.0235
     41 H           8.5800    1.8163    3.5494 H       1  UNL1        0.0235
     42 H           7.7297    2.9997    2.4472 H       1  UNL1        0.0235
     43 H           8.0970   -1.1649    0.7139 H       1  UNL1        0.0621
     44 H           6.3770   -1.8981   -0.7916 H       1  UNL1        0.0636
     45 H           4.8900   -0.6064   -3.1304 H       1  UNL1        0.1582
     46 H           1.7435   -3.7032   -1.4148 H       1  UNL1        0.0655
     47 H          -0.4142   -4.3012   -0.5318 H       1  UNL1        0.0637
     48 H           0.1753    0.1531   -2.5737 H       1  UNL1        0.0658
     49 H          -3.7770    0.4337   -3.0754 H       1  UNL1        0.0239
     50 H          -2.3386   -0.5509   -3.6709 H       1  UNL1        0.0239
     51 H          -2.0612    1.0733   -2.9894 H       1  UNL1        0.0239
     52 H          -1.6516    0.3875    0.2868 H       1  UNL1        0.0287
     53 H          -2.3845    1.5915   -0.8160 H       1  UNL1        0.0287
     54 H          -4.4314    1.2420    0.0304 H       1  UNL1        0.0427
     55 H          -3.6660    0.2505    1.3714 H       1  UNL1        0.0427
     56 H          -5.8659   -1.7795   -1.3564 H       1  UNL1        0.0430
     57 H          -5.7101   -0.0171   -1.6160 H       1  UNL1        0.0430
     58 H          -7.7718   -0.5942   -0.4920 H       1  UNL1        0.0326
     59 H          -6.9691   -1.5165    0.7798 H       1  UNL1        0.0326
     60 H          -5.8622   -0.3092    2.6142 H       1  UNL1        0.0620
     61 H          -5.9271    1.7735    4.0006 H       1  UNL1        0.0618
     62 H          -6.9416    3.8333    3.1526 H       1  UNL1        0.0618
     63 H          -7.9000    3.8391    0.9189 H       1  UNL1        0.0618
     64 H          -7.8530    1.7621   -0.5032 H       1  UNL1        0.0620
     65 H          -3.9424   -1.8124   -2.1398 H       1  UNL1        0.0680
     66 H          -3.5336   -3.0635    1.2150 H       1  UNL1        0.0428
     67 H          -3.9226   -4.2172   -0.1733 H       1  UNL1        0.0428
     68 H          -2.3077   -4.2223    0.6100 H       1  UNL1        0.0428
     69 H           5.1428    2.1208   -1.4710 H       1  UNL1        0.0636
     70 H           6.9384    2.8476    0.0936 H       1  UNL1        0.0621
@<TRIPOS>BOND
     1     1     2    1
     2     2     3    1
     3     2     4    1
     4     4     5   ar
     5     5     6   ar
     6     6     7   ar
     7     7     8    1
     8     8     9   am
     9     9    10    2
    10     9    11    1
    11    11    12    1
    12    12    13   ar
    13    13    14   ar
    14    14    15   ar
    15    15    16   ar
    16    16    17   ar
    17    16    18    1
    18    18    19    1
    19    18    20    1
    20    20    21    1
    21    21    22    1
    22    22    23    1
    23    23    24    1
    24    24    25    1
    25    25    26   ar
    26    26    27   ar
    27    27    28   ar
    28    28    29   ar
    29    29    30   ar
    30    22    31    1
    31    31    32    1
    32    32    33    1
    33     7    34   ar
    34    34    35   ar
    35    35     4   ar
    36    17    12   ar
    37    31    18    1
    38    32    15    1
    39    30    25   ar
    40     1    36    1
    41     1    37    1
    42     1    38    1
    43     2    39    1
    44     3    40    1
    45     3    41    1
    46     3    42    1
    47     5    43    1
    48     6    44    1
    49     8    45    1
    50    13    46    1
    51    14    47    1
    52    17    48    1
    53    19    49    1
    54    19    50    1
    55    19    51    1
    56    20    52    1
    57    20    53    1
    58    21    54    1
    59    21    55    1
    60    23    56    1
    61    23    57    1
    62    24    58    1
    63    24    59    1
    64    26    60    1
    65    27    61    1
    66    28    62    1
    67    29    63    1
    68    30    64    1
    69    31    65    1
    70    33    66    1
    71    33    67    1
    72    33    68    1
    73    34    69    1
    74    35    70    1
