@<TRIPOS>MOLECULE
*****
 43 44 0 0 0
SMALL
GASTEIGER

@<TRIPOS>ATOM
      1 O           1.0798    3.0942    0.3554 O.2     1  UNL1       -0.2737
      2 C           0.9150    2.9723   -0.8792 C.2     1  UNL1        0.2362
      3 C           0.7670    1.7049   -1.5980 C.3     1  UNL1        0.0373
      4 C           0.8971    0.4761   -0.7149 C.3     1  UNL1        0.0480
      5 C           2.2149    0.3574   -0.0372 C.3     1  UNL1       -0.0161
      6 C           2.4061   -0.8101    0.8235 C.ar    1  UNL1       -0.0466
      7 C           2.7690   -2.0613    0.3095 C.ar    1  UNL1       -0.0586
      8 C           2.9832   -3.1654    1.0973 C.ar    1  UNL1       -0.0615
      9 C           2.8390   -3.0565    2.4591 C.ar    1  UNL1       -0.0617
     10 C           2.4878   -1.8610    3.0081 C.ar    1  UNL1       -0.0615
     11 C           2.2776   -0.7611    2.1904 C.ar    1  UNL1       -0.0586
     12 C          -0.2956    0.3916    0.1252 C.2     1  UNL1        0.2201
     13 O          -0.2139    0.5604    1.3583 O.2     1  UNL1       -0.2753
     14 N          -1.5833    0.1091   -0.4733 N.am    1  UNL1       -0.2878
     15 C          -1.8996   -0.1285   -1.8629 C.3     1  UNL1        0.0156
     16 C          -2.9665   -1.2274   -1.7121 C.3     1  UNL1       -0.0349
     17 C          -3.8644   -0.4901   -0.7076 C.3     1  UNL1       -0.0225
     18 C          -2.8242    0.0164    0.2540 C.3     1  UNL1        0.1228
     19 C          -2.7637   -0.9407    1.3737 C.2     1  UNL1        0.3255
     20 O          -1.7132   -1.5814    1.5975 O.2     1  UNL1       -0.2489
     21 O          -3.8588   -1.1388    2.1819 O.3     1  UNL1       -0.4793
     22 N           0.8655    4.1692   -1.6659 N.am    1  UNL1       -0.1975
     23 O           0.9951    5.3639   -1.0652 O.3     1  UNL1       -0.2952
     24 H          -0.2539    1.6980   -2.0373 H       1  UNL1        0.0366
     25 H           1.4583    1.6232   -2.4747 H       1  UNL1        0.0366
     26 H           0.8686   -0.3798   -1.4575 H       1  UNL1        0.0402
     27 H           3.0256    0.4334   -0.8260 H       1  UNL1        0.0321
     28 H           2.3990    1.2610    0.6101 H       1  UNL1        0.0321
     29 H           2.8869   -2.1674   -0.7542 H       1  UNL1        0.0620
     30 H           3.2636   -4.1174    0.6553 H       1  UNL1        0.0618
     31 H           3.0061   -3.9219    3.0824 H       1  UNL1        0.0618
     32 H           2.3758   -1.7861    4.0949 H       1  UNL1        0.0618
     33 H           2.0203    0.1566    2.7048 H       1  UNL1        0.0620
     34 H          -2.4257    0.7379   -2.2676 H       1  UNL1        0.0465
     35 H          -1.0507   -0.5005   -2.4611 H       1  UNL1        0.0465
     36 H          -2.5446   -2.1054   -1.2071 H       1  UNL1        0.0281
     37 H          -3.4777   -1.4213   -2.6522 H       1  UNL1        0.0281
     38 H          -4.6034   -1.1504   -0.2520 H       1  UNL1        0.0289
     39 H          -4.2985    0.3630   -1.2700 H       1  UNL1        0.0289
     40 H          -3.0588    1.0262    0.6409 H       1  UNL1        0.0616
     41 H          -3.7896   -1.4911    3.1454 H       1  UNL1        0.2951
     42 H           0.7297    4.1271   -2.7035 H       1  UNL1        0.1822
     43 H           1.9551    5.6218   -0.9882 H       1  UNL1        0.2414
@<TRIPOS>BOND
     1     1     2    2
     2     2     3    1
     3     3     4    1
     4     4     5    1
     5     5     6    1
     6     6     7   ar
     7     7     8   ar
     8     8     9   ar
     9     9    10   ar
    10    10    11   ar
    11     4    12    1
    12    12    13    2
    13    12    14   am
    14    14    15    1
    15    15    16    1
    16    16    17    1
    17    17    18    1
    18    18    19    1
    19    19    20    2
    20    19    21    1
    21     2    22   am
    22    22    23    1
    23    11     6   ar
    24    18    14    1
    25     3    24    1
    26     3    25    1
    27     4    26    1
    28     5    27    1
    29     5    28    1
    30     7    29    1
    31     8    30    1
    32     9    31    1
    33    10    32    1
    34    11    33    1
    35    15    34    1
    36    15    35    1
    37    16    36    1
    38    16    37    1
    39    17    38    1
    40    17    39    1
    41    18    40    1
    42    21    41    1
    43    22    42    1
    44    23    43    1
