
     RDKit          3D

 49 50  0  0  0  0  0  0  0  0999 V2000
    4.7725   -1.9656   -0.4447 C   0  0  0  0  0  0  0  0  0  0  0  0
    5.4964   -0.6727   -0.3691 C   0  0  0  0  0  0  0  0  0  0  0  0
    6.7946   -0.5954    0.1236 C   0  0  0  0  0  0  0  0  0  0  0  0
    7.4752    0.6108    0.1953 C   0  0  0  0  0  0  0  0  0  0  0  0
    6.8140    1.7515   -0.2443 C   0  0  0  0  0  0  0  0  0  0  0  0
    5.5263    1.6805   -0.7338 C   0  0  0  0  0  0  0  0  0  0  0  0
    4.8439    0.4647   -0.8049 C   0  0  0  0  0  0  0  0  0  0  0  0
    3.4806    0.4914   -1.3390 C   0  0  0  0  0  0  0  0  0  0  0  0
    2.4444    0.3721   -0.2721 C   0  0  0  0  0  0  0  0  0  0  0  0
    2.3846    0.2512    0.9897 O   0  0  0  0  0  0  0  0  0  0  0  0
    1.1639    0.4074   -0.8756 N   0  0  0  0  0  0  0  0  0  0  0  0
   -0.1097    0.3258   -0.2515 C   0  0  0  0  0  0  0  0  0  0  0  0
   -0.8161    1.4197    0.1884 C   0  0  0  0  0  0  0  0  0  0  0  0
   -2.0697    1.3174    0.8002 C   0  0  0  0  0  0  0  0  0  0  0  0
   -2.7618    2.5687    1.2448 C   0  0  0  0  0  0  0  0  0  0  0  0
   -2.6541    0.0594    0.9854 C   0  0  0  0  0  0  0  0  0  0  0  0
   -1.9238   -1.0076    0.5362 C   0  0  0  0  0  0  0  0  0  0  0  0
   -2.4908   -2.3680    0.7135 C   0  0  0  0  0  0  0  0  0  0  0  0
   -0.6860   -0.9009   -0.0677 C   0  0  0  0  0  0  0  0  0  0  0  0
   -4.2024    0.0116    1.7537 S   0  0  0  0  0  0  0  0  0  0  0  0
   -4.4376   -1.2167    2.5800 O   0  0  0  0  0  0  0  0  0  0  0  0
   -4.2847    1.1776    2.7347 O   0  0  0  0  0  0  0  0  0  0  0  0
   -5.5220    0.1655    0.6809 N   0  0  0  0  0  0  0  0  0  0  0  0
   -5.6107   -0.8837   -0.3015 C   0  0  0  0  0  0  0  0  0  0  0  0
   -6.8001   -0.6652   -1.1996 C   0  0  0  0  0  0  0  0  0  0  0  0
   -7.6121    0.4472   -0.9853 O   0  0  0  0  0  0  0  0  0  0  0  0
   -6.9852   -1.5301   -2.1117 O   0  0  0  0  0  0  0  0  0  0  0  0
    5.4463   -2.8206   -0.2232 H   0  0  0  0  0  0  0  0  0  0  0  0
    4.0069   -1.9839    0.3614 H   0  0  0  0  0  0  0  0  0  0  0  0
    4.3170   -2.0625   -1.4405 H   0  0  0  0  0  0  0  0  0  0  0  0
    7.2118   -1.5497    0.4382 H   0  0  0  0  0  0  0  0  0  0  0  0
    8.4819    0.5629    0.5948 H   0  0  0  0  0  0  0  0  0  0  0  0
    7.3814    2.6698   -0.1703 H   0  0  0  0  0  0  0  0  0  0  0  0
    5.1054    2.6343   -1.0501 H   0  0  0  0  0  0  0  0  0  0  0  0
    3.2994    1.3811   -1.9395 H   0  0  0  0  0  0  0  0  0  0  0  0
    3.3192   -0.3789   -2.0373 H   0  0  0  0  0  0  0  0  0  0  0  0
    0.8389    0.4960   -1.8666 H   0  0  0  0  0  0  0  0  0  0  0  0
   -0.4036    2.3991    0.0649 H   0  0  0  0  0  0  0  0  0  0  0  0
   -2.3209    3.4094    0.6340 H   0  0  0  0  0  0  0  0  0  0  0  0
   -2.6380    2.7783    2.3180 H   0  0  0  0  0  0  0  0  0  0  0  0
   -3.8361    2.5652    0.9175 H   0  0  0  0  0  0  0  0  0  0  0  0
   -1.7026   -3.1548    0.5005 H   0  0  0  0  0  0  0  0  0  0  0  0
   -2.7861   -2.5935    1.7626 H   0  0  0  0  0  0  0  0  0  0  0  0
   -3.2825   -2.5441   -0.0330 H   0  0  0  0  0  0  0  0  0  0  0  0
   -0.1621   -1.7803   -0.3991 H   0  0  0  0  0  0  0  0  0  0  0  0
   -5.5801    1.0851    0.1992 H   0  0  0  0  0  0  0  0  0  0  0  0
   -4.6873   -0.8325   -0.9494 H   0  0  0  0  0  0  0  0  0  0  0  0
   -5.6750   -1.8916    0.1504 H   0  0  0  0  0  0  0  0  0  0  0  0
   -8.5631    0.3743   -1.3582 H   0  0  0  0  0  0  0  0  0  0  0  0
  1  2  1  0
  2  3  2  0
  3  4  1  0
  4  5  2  0
  5  6  1  0
  6  7  2  0
  7  8  1  0
  8  9  1  0
  9 10  2  0
  9 11  1  0
 11 12  1  0
 12 13  2  0
 13 14  1  0
 14 15  1  0
 14 16  2  0
 16 17  1  0
 17 18  1  0
 17 19  2  0
 16 20  1  0
 20 21  2  0
 20 22  2  0
 20 23  1  0
 23 24  1  0
 24 25  1  0
 25 26  1  0
 25 27  2  0
  7  2  1  0
 19 12  1  0
  1 28  1  0
  1 29  1  0
  1 30  1  0
  3 31  1  0
  4 32  1  0
  5 33  1  0
  6 34  1  0
  8 35  1  0
  8 36  1  0
 11 37  1  0
 13 38  1  0
 15 39  1  0
 15 40  1  0
 15 41  1  0
 18 42  1  0
 18 43  1  0
 18 44  1  0
 19 45  1  0
 23 46  1  0
 24 47  1  0
 24 48  1  0
 26 49  1  0
M  END
$$$$
