@<TRIPOS>MOLECULE
*****
 49 50 0 0 0
SMALL
GASTEIGER

@<TRIPOS>ATOM
      1 C           4.7725   -1.9656   -0.4447 C.3     1  UNL1       -0.0394
      2 C           5.4964   -0.6727   -0.3691 C.ar    1  UNL1       -0.0468
      3 C           6.7946   -0.5954    0.1236 C.ar    1  UNL1       -0.0586
      4 C           7.4752    0.6108    0.1953 C.ar    1  UNL1       -0.0615
      5 C           6.8140    1.7515   -0.2443 C.ar    1  UNL1       -0.0615
      6 C           5.5263    1.6805   -0.7338 C.ar    1  UNL1       -0.0579
      7 C           4.8439    0.4647   -0.8049 C.ar    1  UNL1       -0.0357
      8 C           3.4806    0.4914   -1.3390 C.3     1  UNL1        0.0497
      9 C           2.4444    0.3721   -0.2721 C.2     1  UNL1        0.2215
     10 O           2.3846    0.2512    0.9897 O.2     1  UNL1       -0.2751
     11 N           1.1639    0.4074   -0.8756 N.am    1  UNL1       -0.2852
     12 C          -0.1097    0.3258   -0.2515 C.ar    1  UNL1        0.0340
     13 C          -0.8161    1.4197    0.1884 C.ar    1  UNL1       -0.0357
     14 C          -2.0697    1.3174    0.8002 C.ar    1  UNL1       -0.0221
     15 C          -2.7618    2.5687    1.2448 C.3     1  UNL1       -0.0378
     16 C          -2.6541    0.0594    0.9854 C.ar    1  UNL1        0.1111
     17 C          -1.9238   -1.0076    0.5362 C.ar    1  UNL1       -0.0221
     18 C          -2.4908   -2.3680    0.7135 C.3     1  UNL1       -0.0378
     19 C          -0.6860   -0.9009   -0.0677 C.ar    1  UNL1       -0.0357
     20 S          -4.2024    0.0116    1.7537 S.O2    1  UNL1        0.0594
     21 O          -4.4376   -1.2167    2.5800 O.2     1  UNL1       -0.1530
     22 O          -4.2847    1.1776    2.7347 O.2     1  UNL1       -0.1530
     23 N          -5.5220    0.1655    0.6809 N.3     1  UNL1       -0.1792
     24 C          -5.6107   -0.8837   -0.3015 C.3     1  UNL1        0.1144
     25 C          -6.8001   -0.6652   -1.1996 C.2     1  UNL1        0.3204
     26 O          -7.6121    0.4472   -0.9853 O.3     1  UNL1       -0.4797
     27 O          -6.9852   -1.5301   -2.1117 O.2     1  UNL1       -0.2495
     28 H           5.4463   -2.8206   -0.2232 H       1  UNL1        0.0278
     29 H           4.0069   -1.9839    0.3614 H       1  UNL1        0.0278
     30 H           4.3170   -2.0625   -1.4405 H       1  UNL1        0.0278
     31 H           7.2118   -1.5497    0.4382 H       1  UNL1        0.0620
     32 H           8.4819    0.5629    0.5948 H       1  UNL1        0.0618
     33 H           7.3814    2.6698   -0.1703 H       1  UNL1        0.0618
     34 H           5.1054    2.6343   -1.0501 H       1  UNL1        0.0620
     35 H           3.2994    1.3811   -1.9395 H       1  UNL1        0.0407
     36 H           3.3192   -0.3789   -2.0373 H       1  UNL1        0.0407
     37 H           0.8389    0.4960   -1.8666 H       1  UNL1        0.1548
     38 H          -0.4036    2.3991    0.0649 H       1  UNL1        0.0639
     39 H          -2.3209    3.4094    0.6340 H       1  UNL1        0.0278
     40 H          -2.6380    2.7783    2.3180 H       1  UNL1        0.0278
     41 H          -3.8361    2.5652    0.9175 H       1  UNL1        0.0278
     42 H          -1.7026   -3.1548    0.5005 H       1  UNL1        0.0278
     43 H          -2.7861   -2.5935    1.7626 H       1  UNL1        0.0278
     44 H          -3.2825   -2.5441   -0.0330 H       1  UNL1        0.0278
     45 H          -0.1621   -1.7803   -0.3991 H       1  UNL1        0.0639
     46 H          -5.5801    1.0851    0.1992 H       1  UNL1        0.1486
     47 H          -4.6873   -0.8325   -0.9494 H       1  UNL1        0.0556
     48 H          -5.6750   -1.8916    0.1504 H       1  UNL1        0.0556
     49 H          -8.5631    0.3743   -1.3582 H       1  UNL1        0.2951
@<TRIPOS>BOND
     1     1     2    1
     2     2     3   ar
     3     3     4   ar
     4     4     5   ar
     5     5     6   ar
     6     6     7   ar
     7     7     8    1
     8     8     9    1
     9     9    10    2
    10     9    11   am
    11    11    12    1
    12    12    13   ar
    13    13    14   ar
    14    14    15    1
    15    14    16   ar
    16    16    17   ar
    17    17    18    1
    18    17    19   ar
    19    16    20    1
    20    20    21    2
    21    20    22    2
    22    20    23    1
    23    23    24    1
    24    24    25    1
    25    25    26    1
    26    25    27    2
    27     7     2   ar
    28    19    12   ar
    29     1    28    1
    30     1    29    1
    31     1    30    1
    32     3    31    1
    33     4    32    1
    34     5    33    1
    35     6    34    1
    36     8    35    1
    37     8    36    1
    38    11    37    1
    39    13    38    1
    40    15    39    1
    41    15    40    1
    42    15    41    1
    43    18    42    1
    44    18    43    1
    45    18    44    1
    46    19    45    1
    47    23    46    1
    48    24    47    1
    49    24    48    1
    50    26    49    1
