@<TRIPOS>MOLECULE
*****
 52 55 0 0 0
SMALL
GASTEIGER

@<TRIPOS>ATOM
      1 C          -4.8124    2.2617   -1.2790 C.3     1  UNL1       -0.0288
      2 C          -4.2975    1.0429   -0.6346 C.3     1  UNL1        0.1831
      3 C          -5.3502   -0.0016   -0.3544 C.3     1  UNL1       -0.0288
      4 C          -3.5870    1.3700    0.6311 C.2     1  UNL1        0.3067
      5 N          -3.8948    2.6248    1.2861 N.pl3   1  UNL1       -0.2488
      6 N          -2.7557    0.5614    1.0886 N.2     1  UNL1       -0.0727
      7 C          -2.2736   -0.7038    0.6703 C.3     1  UNL1        0.1960
      8 C          -2.9527   -1.7327    1.5960 C.3     1  UNL1       -0.0112
      9 C          -0.8263   -0.8175    1.0097 C.ar    1  UNL1        0.0449
     10 C           0.1610   -1.0011    0.0755 C.ar    1  UNL1       -0.0299
     11 C           1.5170   -1.0966    0.4198 C.ar    1  UNL1        0.0357
     12 N           2.5110   -1.3052   -0.5679 N.pl3   1  UNL1       -0.2976
     13 C           3.8754   -1.2390   -0.2001 C.ar    1  UNL1        0.1490
     14 N           4.4975   -2.1162    0.6037 N.ar    1  UNL1       -0.2380
     15 C           5.8064   -1.9917    0.8949 C.ar    1  UNL1        0.0304
     16 C           6.5816   -0.9632    0.3882 C.ar    1  UNL1       -0.0342
     17 C           5.9611   -0.0477   -0.4429 C.ar    1  UNL1        0.0066
     18 C           6.6515    1.0144   -1.0072 C.ar    1  UNL1       -0.0326
     19 C           6.0238    1.9113   -1.8364 C.ar    1  UNL1        0.0596
     20 CL          6.9272    3.2473   -2.5369 Cl      1  UNL1       -0.0820
     21 C           4.6917    1.7368   -2.0982 C.ar    1  UNL1        0.0467
     22 N           4.0426    0.7030   -1.5415 N.ar    1  UNL1       -0.2501
     23 C           4.6213   -0.1915   -0.7288 C.ar    1  UNL1        0.1109
     24 C           1.8132   -0.9948    1.7559 C.ar    1  UNL1       -0.0024
     25 C           0.8228   -0.8078    2.7132 C.ar    1  UNL1        0.1606
     26 F           1.1384   -0.7107    4.0234 F       1  UNL1       -0.2024
     27 C          -0.4970   -0.7163    2.3672 C.ar    1  UNL1        0.1661
     28 F          -1.4790   -0.5315    3.3010 F       1  UNL1       -0.2020
     29 C          -2.5340   -1.1000   -0.7179 C.3     1  UNL1        0.1183
     30 S          -3.0418    0.3256   -1.7098 S.O2    1  UNL1       -0.0101
     31 O          -3.6721   -0.0907   -2.9801 O.2     1  UNL1       -0.1731
     32 O          -1.9399    1.3129   -1.8465 O.2     1  UNL1       -0.1731
     33 H          -5.4880    1.9541   -2.1323 H       1  UNL1        0.0256
     34 H          -4.0181    2.9058   -1.6504 H       1  UNL1        0.0256
     35 H          -5.5088    2.7939   -0.5657 H       1  UNL1        0.0256
     36 H          -5.2755   -0.8586   -1.0513 H       1  UNL1        0.0256
     37 H          -5.3123   -0.3109    0.7089 H       1  UNL1        0.0256
     38 H          -6.3338    0.5113   -0.4930 H       1  UNL1        0.0256
     39 H          -3.7031    3.4847    0.7601 H       1  UNL1        0.2881
     40 H          -4.2860    2.6473    2.2316 H       1  UNL1        0.2881
     41 H          -2.2774   -2.5526    1.8550 H       1  UNL1        0.0279
     42 H          -3.4567   -1.2458    2.4430 H       1  UNL1        0.0279
     43 H          -3.7756   -2.1820    0.9793 H       1  UNL1        0.0279
     44 H          -0.0260   -1.0734   -0.9990 H       1  UNL1        0.0641
     45 H           2.2849   -1.5074   -1.5630 H       1  UNL1        0.1536
     46 H           6.3132   -2.6954    1.5432 H       1  UNL1        0.0830
     47 H           7.6237   -0.8440    0.6070 H       1  UNL1        0.0639
     48 H           7.7022    1.0947   -0.7574 H       1  UNL1        0.0639
     49 H           4.2198    2.4468   -2.7483 H       1  UNL1        0.0844
     50 H           2.8485   -1.0623    2.0724 H       1  UNL1        0.0666
     51 H          -3.4760   -1.7479   -0.7444 H       1  UNL1        0.0550
     52 H          -1.7845   -1.7110   -1.2066 H       1  UNL1        0.0550
@<TRIPOS>BOND
     1     1     2    1
     2     2     3    1
     3     2     4    1
     4     4     5    1
     5     4     6    2
     6     6     7    1
     7     7     8    1
     8     7     9    1
     9     9    10   ar
    10    10    11   ar
    11    11    12    1
    12    12    13    1
    13    13    14   ar
    14    14    15   ar
    15    15    16   ar
    16    16    17   ar
    17    17    18   ar
    18    18    19   ar
    19    19    20    1
    20    19    21   ar
    21    21    22   ar
    22    22    23   ar
    23    11    24   ar
    24    24    25   ar
    25    25    26    1
    26    25    27   ar
    27    27    28    1
    28     7    29    1
    29    29    30    1
    30    30    31    2
    31    30    32    2
    32    30     2    1
    33    27     9   ar
    34    23    13   ar
    35    23    17   ar
    36     1    33    1
    37     1    34    1
    38     1    35    1
    39     3    36    1
    40     3    37    1
    41     3    38    1
    42     5    39    1
    43     5    40    1
    44     8    41    1
    45     8    42    1
    46     8    43    1
    47    10    44    1
    48    12    45    1
    49    15    46    1
    50    16    47    1
    51    18    48    1
    52    21    49    1
    53    24    50    1
    54    29    51    1
    55    29    52    1
