
     RDKit          3D

 52 55  0  0  0  0  0  0  0  0999 V2000
   -4.8124    2.2617   -1.2790 C   0  0  0  0  0  0  0  0  0  0  0  0
   -4.2975    1.0429   -0.6346 C   0  0  0  0  0  0  0  0  0  0  0  0
   -5.3502   -0.0016   -0.3544 C   0  0  0  0  0  0  0  0  0  0  0  0
   -3.5870    1.3700    0.6311 C   0  0  0  0  0  0  0  0  0  0  0  0
   -3.8948    2.6248    1.2861 N   0  0  0  0  0  0  0  0  0  0  0  0
   -2.7557    0.5614    1.0886 N   0  0  0  0  0  0  0  0  0  0  0  0
   -2.2736   -0.7038    0.6703 C   0  0  2  0  0  0  0  0  0  0  0  0
   -2.9527   -1.7327    1.5960 C   0  0  0  0  0  0  0  0  0  0  0  0
   -0.8263   -0.8175    1.0097 C   0  0  0  0  0  0  0  0  0  0  0  0
    0.1610   -1.0011    0.0755 C   0  0  0  0  0  0  0  0  0  0  0  0
    1.5170   -1.0966    0.4198 C   0  0  0  0  0  0  0  0  0  0  0  0
    2.5110   -1.3052   -0.5679 N   0  0  0  0  0  0  0  0  0  0  0  0
    3.8754   -1.2390   -0.2001 C   0  0  0  0  0  0  0  0  0  0  0  0
    4.4975   -2.1162    0.6037 N   0  0  0  0  0  0  0  0  0  0  0  0
    5.8064   -1.9917    0.8949 C   0  0  0  0  0  0  0  0  0  0  0  0
    6.5816   -0.9632    0.3882 C   0  0  0  0  0  0  0  0  0  0  0  0
    5.9611   -0.0477   -0.4429 C   0  0  0  0  0  0  0  0  0  0  0  0
    6.6515    1.0144   -1.0072 C   0  0  0  0  0  0  0  0  0  0  0  0
    6.0238    1.9113   -1.8364 C   0  0  0  0  0  0  0  0  0  0  0  0
    6.9272    3.2473   -2.5369 Cl  0  0  0  0  0  0  0  0  0  0  0  0
    4.6917    1.7368   -2.0982 C   0  0  0  0  0  0  0  0  0  0  0  0
    4.0426    0.7030   -1.5415 N   0  0  0  0  0  0  0  0  0  0  0  0
    4.6213   -0.1915   -0.7288 C   0  0  0  0  0  0  0  0  0  0  0  0
    1.8132   -0.9948    1.7559 C   0  0  0  0  0  0  0  0  0  0  0  0
    0.8228   -0.8078    2.7132 C   0  0  0  0  0  0  0  0  0  0  0  0
    1.1384   -0.7107    4.0234 F   0  0  0  0  0  0  0  0  0  0  0  0
   -0.4970   -0.7163    2.3672 C   0  0  0  0  0  0  0  0  0  0  0  0
   -1.4790   -0.5315    3.3010 F   0  0  0  0  0  0  0  0  0  0  0  0
   -2.5340   -1.1000   -0.7179 C   0  0  0  0  0  0  0  0  0  0  0  0
   -3.0418    0.3256   -1.7098 S   0  0  0  0  0  6  0  0  0  0  0  0
   -3.6721   -0.0907   -2.9801 O   0  0  0  0  0  0  0  0  0  0  0  0
   -1.9399    1.3129   -1.8465 O   0  0  0  0  0  0  0  0  0  0  0  0
   -5.4880    1.9541   -2.1323 H   0  0  0  0  0  0  0  0  0  0  0  0
   -4.0181    2.9058   -1.6504 H   0  0  0  0  0  0  0  0  0  0  0  0
   -5.5088    2.7939   -0.5657 H   0  0  0  0  0  0  0  0  0  0  0  0
   -5.2755   -0.8586   -1.0513 H   0  0  0  0  0  0  0  0  0  0  0  0
   -5.3123   -0.3109    0.7089 H   0  0  0  0  0  0  0  0  0  0  0  0
   -6.3338    0.5113   -0.4930 H   0  0  0  0  0  0  0  0  0  0  0  0
   -3.7031    3.4847    0.7601 H   0  0  0  0  0  0  0  0  0  0  0  0
   -4.2860    2.6473    2.2316 H   0  0  0  0  0  0  0  0  0  0  0  0
   -2.2774   -2.5526    1.8550 H   0  0  0  0  0  0  0  0  0  0  0  0
   -3.4567   -1.2458    2.4430 H   0  0  0  0  0  0  0  0  0  0  0  0
   -3.7756   -2.1820    0.9793 H   0  0  0  0  0  0  0  0  0  0  0  0
   -0.0260   -1.0734   -0.9990 H   0  0  0  0  0  0  0  0  0  0  0  0
    2.2849   -1.5074   -1.5630 H   0  0  0  0  0  0  0  0  0  0  0  0
    6.3132   -2.6954    1.5432 H   0  0  0  0  0  0  0  0  0  0  0  0
    7.6237   -0.8440    0.6070 H   0  0  0  0  0  0  0  0  0  0  0  0
    7.7022    1.0947   -0.7574 H   0  0  0  0  0  0  0  0  0  0  0  0
    4.2198    2.4468   -2.7483 H   0  0  0  0  0  0  0  0  0  0  0  0
    2.8485   -1.0623    2.0724 H   0  0  0  0  0  0  0  0  0  0  0  0
   -3.4760   -1.7479   -0.7444 H   0  0  0  0  0  0  0  0  0  0  0  0
   -1.7845   -1.7110   -1.2066 H   0  0  0  0  0  0  0  0  0  0  0  0
  1  2  1  0
  2  3  1  0
  2  4  1  0
  4  5  1  0
  4  6  2  0
  6  7  1  0
  7  8  1  1
  7  9  1  0
  9 10  2  0
 10 11  1  0
 11 12  1  0
 12 13  1  0
 13 14  2  0
 14 15  1  0
 15 16  2  0
 16 17  1  0
 17 18  2  0
 18 19  1  0
 19 20  1  0
 19 21  2  0
 21 22  1  0
 22 23  2  0
 11 24  2  0
 24 25  1  0
 25 26  1  0
 25 27  2  0
 27 28  1  0
  7 29  1  0
 29 30  1  0
 30 31  2  0
 30 32  2  0
 30  2  1  0
 27  9  1  0
 23 13  1  0
 23 17  1  0
  1 33  1  0
  1 34  1  0
  1 35  1  0
  3 36  1  0
  3 37  1  0
  3 38  1  0
  5 39  1  0
  5 40  1  0
  8 41  1  0
  8 42  1  0
  8 43  1  0
 10 44  1  0
 12 45  1  0
 15 46  1  0
 16 47  1  0
 18 48  1  0
 21 49  1  0
 24 50  1  0
 29 51  1  0
 29 52  1  0
M  END
$$$$
