@<TRIPOS>MOLECULE
*****
 47 50 0 0 0
SMALL
GASTEIGER

@<TRIPOS>ATOM
      1 C          -2.8009    3.5903    0.8138 C.3     1  UNL1        0.0790
      2 O          -3.2885    2.2971    1.1026 O.3     1  UNL1       -0.4913
      3 C          -2.6276    1.2134    0.5323 C.ar    1  UNL1        0.1657
      4 C          -1.5252    1.3884   -0.2964 C.ar    1  UNL1       -0.0082
      5 C          -0.8610    0.2952   -0.8693 C.ar    1  UNL1       -0.0054
      6 C           0.2646    0.5324   -1.7760 C.2     1  UNL1        0.0493
      7 C           1.5017    0.1282   -1.7218 C.2     1  UNL1       -0.0085
      8 C           2.1302   -0.7037   -0.6946 C.ar    1  UNL1        0.0054
      9 C           1.8960   -1.9597   -0.2365 C.ar    1  UNL1        0.0102
     10 N           2.7372   -2.2785    0.7718 N.ar    1  UNL1       -0.3601
     11 C           3.5619   -1.2220    1.0073 C.ar    1  UNL1        0.0471
     12 C           4.5751   -1.0743    1.9327 C.ar    1  UNL1       -0.0378
     13 C           5.2636    0.1135    1.9665 C.ar    1  UNL1       -0.0598
     14 C           4.9186    1.1047    1.0826 C.ar    1  UNL1       -0.0611
     15 C           3.8987    0.9464    0.1562 C.ar    1  UNL1       -0.0520
     16 C           3.1933   -0.2372    0.1014 C.ar    1  UNL1        0.0071
     17 C           2.2350    0.6072   -2.9652 C.3     1  UNL1        0.0385
     18 N           1.3337    1.4520   -3.6690 N.am    1  UNL1       -0.3072
     19 C           0.0961    1.3789   -2.9947 C.2     1  UNL1        0.2452
     20 O          -0.9887    1.9206   -3.3305 O.2     1  UNL1       -0.2702
     21 C          -1.3513   -0.9424   -0.5737 C.ar    1  UNL1       -0.0082
     22 C          -2.4633   -1.1198    0.2622 C.ar    1  UNL1        0.1657
     23 O          -2.9266   -2.3902    0.5358 O.3     1  UNL1       -0.4913
     24 C          -2.4112   -3.5917    0.0665 C.3     1  UNL1        0.0790
     25 C          -3.1081   -0.0428    0.8203 C.ar    1  UNL1        0.2035
     26 O          -4.2223   -0.2092    1.6590 O.3     1  UNL1       -0.4885
     27 C          -5.5347   -0.2414    1.1561 C.3     1  UNL1        0.0791
     28 H          -3.4810    4.3214    1.3156 H       1  UNL1        0.0660
     29 H          -1.7752    3.6339    1.2609 H       1  UNL1        0.0660
     30 H          -2.6928    3.7897   -0.2696 H       1  UNL1        0.0660
     31 H          -1.1483    2.3814   -0.5217 H       1  UNL1        0.0661
     32 H           1.1528   -2.6335   -0.6303 H       1  UNL1        0.0813
     33 H           2.7847   -3.1657    1.3072 H       1  UNL1        0.1654
     34 H           4.8330   -1.8776    2.6283 H       1  UNL1        0.0638
     35 H           6.0821    0.2842    2.6837 H       1  UNL1        0.0618
     36 H           5.4525    2.0498    1.0962 H       1  UNL1        0.0618
     37 H           3.6297    1.7396   -0.5286 H       1  UNL1        0.0624
     38 H           3.1417    1.1792   -2.7218 H       1  UNL1        0.0512
     39 H           2.4735   -0.3018   -3.5707 H       1  UNL1        0.0512
     40 H           1.5131    2.0250   -4.5154 H       1  UNL1        0.1493
     41 H          -0.8687   -1.7888   -1.0295 H       1  UNL1        0.0661
     42 H          -3.2797   -4.2784   -0.1477 H       1  UNL1        0.0660
     43 H          -1.8257   -3.5628   -0.8485 H       1  UNL1        0.0660
     44 H          -1.8579   -4.0869    0.9154 H       1  UNL1        0.0660
     45 H          -5.7426   -1.1357    0.5220 H       1  UNL1        0.0660
     46 H          -6.2335   -0.1871    2.0130 H       1  UNL1        0.0660
     47 H          -5.6537    0.6587    0.5086 H       1  UNL1        0.0660
@<TRIPOS>BOND
     1     1     2    1
     2     2     3    1
     3     3     4   ar
     4     4     5   ar
     5     5     6    1
     6     6     7    2
     7     7     8    1
     8     8     9   ar
     9     9    10   ar
    10    10    11   ar
    11    11    12   ar
    12    12    13   ar
    13    13    14   ar
    14    14    15   ar
    15    15    16   ar
    16     7    17    1
    17    17    18    1
    18    18    19   am
    19    19    20    2
    20     5    21   ar
    21    21    22   ar
    22    22    23    1
    23    23    24    1
    24    22    25   ar
    25    25    26    1
    26    26    27    1
    27    25     3   ar
    28    19     6    1
    29    16     8   ar
    30    16    11   ar
    31     1    28    1
    32     1    29    1
    33     1    30    1
    34     4    31    1
    35     9    32    1
    36    10    33    1
    37    12    34    1
    38    13    35    1
    39    14    36    1
    40    15    37    1
    41    17    38    1
    42    17    39    1
    43    18    40    1
    44    21    41    1
    45    24    42    1
    46    24    43    1
    47    24    44    1
    48    27    45    1
    49    27    46    1
    50    27    47    1
