
     RDKit          3D

 47 50  0  0  0  0  0  0  0  0999 V2000
   -2.8009    3.5903    0.8138 C   0  0  0  0  0  0  0  0  0  0  0  0
   -3.2885    2.2971    1.1026 O   0  0  0  0  0  0  0  0  0  0  0  0
   -2.6276    1.2134    0.5323 C   0  0  0  0  0  0  0  0  0  0  0  0
   -1.5252    1.3884   -0.2964 C   0  0  0  0  0  0  0  0  0  0  0  0
   -0.8610    0.2952   -0.8693 C   0  0  0  0  0  0  0  0  0  0  0  0
    0.2646    0.5324   -1.7760 C   0  0  0  0  0  0  0  0  0  0  0  0
    1.5017    0.1282   -1.7218 C   0  0  0  0  0  0  0  0  0  0  0  0
    2.1302   -0.7037   -0.6946 C   0  0  0  0  0  0  0  0  0  0  0  0
    1.8960   -1.9597   -0.2365 C   0  0  0  0  0  0  0  0  0  0  0  0
    2.7372   -2.2785    0.7718 N   0  0  0  0  0  0  0  0  0  0  0  0
    3.5619   -1.2220    1.0073 C   0  0  0  0  0  0  0  0  0  0  0  0
    4.5751   -1.0743    1.9327 C   0  0  0  0  0  0  0  0  0  0  0  0
    5.2636    0.1135    1.9665 C   0  0  0  0  0  0  0  0  0  0  0  0
    4.9186    1.1047    1.0826 C   0  0  0  0  0  0  0  0  0  0  0  0
    3.8987    0.9464    0.1562 C   0  0  0  0  0  0  0  0  0  0  0  0
    3.1933   -0.2372    0.1014 C   0  0  0  0  0  0  0  0  0  0  0  0
    2.2350    0.6072   -2.9652 C   0  0  0  0  0  0  0  0  0  0  0  0
    1.3337    1.4520   -3.6690 N   0  0  0  0  0  0  0  0  0  0  0  0
    0.0961    1.3789   -2.9947 C   0  0  0  0  0  0  0  0  0  0  0  0
   -0.9887    1.9206   -3.3305 O   0  0  0  0  0  0  0  0  0  0  0  0
   -1.3513   -0.9424   -0.5737 C   0  0  0  0  0  0  0  0  0  0  0  0
   -2.4633   -1.1198    0.2622 C   0  0  0  0  0  0  0  0  0  0  0  0
   -2.9266   -2.3902    0.5358 O   0  0  0  0  0  0  0  0  0  0  0  0
   -2.4112   -3.5917    0.0665 C   0  0  0  0  0  0  0  0  0  0  0  0
   -3.1081   -0.0428    0.8203 C   0  0  0  0  0  0  0  0  0  0  0  0
   -4.2223   -0.2092    1.6590 O   0  0  0  0  0  0  0  0  0  0  0  0
   -5.5347   -0.2414    1.1561 C   0  0  0  0  0  0  0  0  0  0  0  0
   -3.4810    4.3214    1.3156 H   0  0  0  0  0  0  0  0  0  0  0  0
   -1.7752    3.6339    1.2609 H   0  0  0  0  0  0  0  0  0  0  0  0
   -2.6928    3.7897   -0.2696 H   0  0  0  0  0  0  0  0  0  0  0  0
   -1.1483    2.3814   -0.5217 H   0  0  0  0  0  0  0  0  0  0  0  0
    1.1528   -2.6335   -0.6303 H   0  0  0  0  0  0  0  0  0  0  0  0
    2.7847   -3.1657    1.3072 H   0  0  0  0  0  0  0  0  0  0  0  0
    4.8330   -1.8776    2.6283 H   0  0  0  0  0  0  0  0  0  0  0  0
    6.0821    0.2842    2.6837 H   0  0  0  0  0  0  0  0  0  0  0  0
    5.4525    2.0498    1.0962 H   0  0  0  0  0  0  0  0  0  0  0  0
    3.6297    1.7396   -0.5286 H   0  0  0  0  0  0  0  0  0  0  0  0
    3.1417    1.1792   -2.7218 H   0  0  0  0  0  0  0  0  0  0  0  0
    2.4735   -0.3018   -3.5707 H   0  0  0  0  0  0  0  0  0  0  0  0
    1.5131    2.0250   -4.5154 H   0  0  0  0  0  0  0  0  0  0  0  0
   -0.8687   -1.7888   -1.0295 H   0  0  0  0  0  0  0  0  0  0  0  0
   -3.2797   -4.2784   -0.1477 H   0  0  0  0  0  0  0  0  0  0  0  0
   -1.8257   -3.5628   -0.8485 H   0  0  0  0  0  0  0  0  0  0  0  0
   -1.8579   -4.0869    0.9154 H   0  0  0  0  0  0  0  0  0  0  0  0
   -5.7426   -1.1357    0.5220 H   0  0  0  0  0  0  0  0  0  0  0  0
   -6.2335   -0.1871    2.0130 H   0  0  0  0  0  0  0  0  0  0  0  0
   -5.6537    0.6587    0.5086 H   0  0  0  0  0  0  0  0  0  0  0  0
  1  2  1  0
  2  3  1  0
  3  4  2  0
  4  5  1  0
  5  6  1  0
  6  7  2  0
  7  8  1  0
  8  9  2  0
  9 10  1  0
 10 11  1  0
 11 12  2  0
 12 13  1  0
 13 14  2  0
 14 15  1  0
 15 16  2  0
  7 17  1  0
 17 18  1  0
 18 19  1  0
 19 20  2  0
  5 21  2  0
 21 22  1  0
 22 23  1  0
 23 24  1  0
 22 25  2  0
 25 26  1  0
 26 27  1  0
 25  3  1  0
 19  6  1  0
 16  8  1  0
 16 11  1  0
  1 28  1  0
  1 29  1  0
  1 30  1  0
  4 31  1  0
  9 32  1  0
 10 33  1  0
 12 34  1  0
 13 35  1  0
 14 36  1  0
 15 37  1  0
 17 38  1  0
 17 39  1  0
 18 40  1  0
 21 41  1  0
 24 42  1  0
 24 43  1  0
 24 44  1  0
 27 45  1  0
 27 46  1  0
 27 47  1  0
M  END
$$$$
