@<TRIPOS>MOLECULE
*****
 56 61 0 0 0
SMALL
GASTEIGER

@<TRIPOS>ATOM
      1 C           6.9996    1.6552    0.7085 C.3     1  UNL1        0.0043
      2 N           5.5609    1.6350    0.3551 N.am    1  UNL1       -0.2916
      3 C           5.0821    2.7857   -0.3281 C.3     1  UNL1        0.0043
      4 C           4.8567    0.4970    0.7063 C.2     1  UNL1        0.3046
      5 O           5.6286   -0.4387    1.2720 O.2     1  UNL1       -0.2524
      6 N           3.5030    0.1455    0.5808 N.am    1  UNL1       -0.2794
      7 C           2.5330    1.0361    0.0554 C.3     1  UNL1        0.0345
      8 C           2.0093    0.5488   -1.3089 C.3     1  UNL1        0.0392
      9 N           0.9134   -0.3447   -1.0099 N.ar    1  UNL1       -0.3443
     10 C          -0.2903   -0.3341   -1.6299 C.ar    1  UNL1        0.0137
     11 C          -1.0923   -1.3019   -1.0833 C.ar    1  UNL1        0.0131
     12 C          -2.4546   -1.6576   -1.4600 C.2     1  UNL1        0.0604
     13 C          -3.5710   -1.2399   -0.8923 C.2     1  UNL1        0.0751
     14 C          -3.7091   -0.3057    0.2684 C.ar    1  UNL1        0.0789
     15 C          -3.1027   -0.3998    1.4869 C.ar    1  UNL1        0.0545
     16 N          -3.5114    0.6805    2.2186 N.ar    1  UNL1       -0.2355
     17 C          -4.3534    1.4318    1.4777 C.ar    1  UNL1        0.1380
     18 C          -5.0048    2.6126    1.8022 C.ar    1  UNL1       -0.0188
     19 C          -5.8111    3.1892    0.8509 C.ar    1  UNL1       -0.0569
     20 C          -5.9201    2.5610   -0.3621 C.ar    1  UNL1       -0.0450
     21 C          -5.2530    1.3828   -0.6460 C.ar    1  UNL1        0.0118
     22 N          -4.4580    0.8105    0.2921 N.ar    1  UNL1       -0.2991
     23 C          -4.6983   -1.8549   -1.5753 C.2     1  UNL1        0.2533
     24 O          -5.8981   -1.6743   -1.2842 O.2     1  UNL1       -0.2697
     25 N          -4.2164   -2.6820   -2.6086 N.am    1  UNL1       -0.2482
     26 C          -2.8135   -2.5792   -2.5614 C.2     1  UNL1        0.2519
     27 O          -1.9605   -3.1523   -3.3069 O.2     1  UNL1       -0.2697
     28 C          -0.3345   -1.9072   -0.1057 C.ar    1  UNL1        0.0081
     29 C          -0.5588   -2.9361    0.7842 C.ar    1  UNL1       -0.0520
     30 C           0.3860   -3.3653    1.6783 C.ar    1  UNL1       -0.0607
     31 C           1.6083   -2.7671    1.7092 C.ar    1  UNL1       -0.0551
     32 C           1.9001   -1.7182    0.8325 C.ar    1  UNL1       -0.0060
     33 C           0.9301   -1.3058   -0.0570 C.ar    1  UNL1        0.0544
     34 C           3.2805   -1.2505    1.0514 C.3     1  UNL1        0.0432
     35 H           7.6374    1.7557   -0.1847 H       1  UNL1        0.0429
     36 H           7.3015    0.7557    1.2622 H       1  UNL1        0.0429
     37 H           7.1980    2.5182    1.3743 H       1  UNL1        0.0429
     38 H           6.0021    3.4104   -0.6496 H       1  UNL1        0.0429
     39 H           4.5019    3.5047    0.2904 H       1  UNL1        0.0429
     40 H           4.5993    2.4987   -1.2751 H       1  UNL1        0.0429
     41 H           2.7999    2.0725    0.0369 H       1  UNL1        0.0483
     42 H           1.6161    0.9258    0.7560 H       1  UNL1        0.0483
     43 H           1.6983    1.4316   -1.9045 H       1  UNL1        0.0507
     44 H           2.8713    0.0240   -1.7809 H       1  UNL1        0.0507
     45 H          -0.5642    0.3510   -2.4440 H       1  UNL1        0.0815
     46 H          -2.4349   -1.1387    1.8651 H       1  UNL1        0.0852
     47 H          -4.9118    3.0943    2.7575 H       1  UNL1        0.0654
     48 H          -6.3551    4.1309    1.0604 H       1  UNL1        0.0619
     49 H          -6.5508    3.0054   -1.1208 H       1  UNL1        0.0632
     50 H          -5.3463    0.9079   -1.6294 H       1  UNL1        0.0813
     51 H          -4.8041   -3.2485   -3.2657 H       1  UNL1        0.1581
     52 H          -1.5376   -3.4021    0.7467 H       1  UNL1        0.0624
     53 H           0.1786   -4.1926    2.3793 H       1  UNL1        0.0618
     54 H           2.3873   -3.0840    2.4095 H       1  UNL1        0.0621
     55 H           3.4860   -1.2220    2.1560 H       1  UNL1        0.0515
     56 H           4.0475   -1.8554    0.5362 H       1  UNL1        0.0515
@<TRIPOS>BOND
     1     1     2    1
     2     2     3    1
     3     2     4   am
     4     4     5    2
     5     4     6   am
     6     6     7    1
     7     7     8    1
     8     8     9    1
     9     9    10   ar
    10    10    11   ar
    11    11    12    1
    12    12    13    2
    13    13    14    1
    14    14    15   ar
    15    15    16   ar
    16    16    17   ar
    17    17    18   ar
    18    18    19   ar
    19    19    20   ar
    20    20    21   ar
    21    21    22   ar
    22    13    23    1
    23    23    24    2
    24    23    25   am
    25    25    26   am
    26    26    27    2
    27    11    28   ar
    28    28    29   ar
    29    29    30   ar
    30    30    31   ar
    31    31    32   ar
    32    32    33   ar
    33    32    34    1
    34    34     6    1
    35    33     9   ar
    36    26    12    1
    37    33    28   ar
    38    22    14   ar
    39    22    17   ar
    40     1    35    1
    41     1    36    1
    42     1    37    1
    43     3    38    1
    44     3    39    1
    45     3    40    1
    46     7    41    1
    47     7    42    1
    48     8    43    1
    49     8    44    1
    50    10    45    1
    51    15    46    1
    52    18    47    1
    53    19    48    1
    54    20    49    1
    55    21    50    1
    56    25    51    1
    57    29    52    1
    58    30    53    1
    59    31    54    1
    60    34    55    1
    61    34    56    1
