
     RDKit          3D

 56 61  0  0  0  0  0  0  0  0999 V2000
    6.9996    1.6552    0.7085 C   0  0  0  0  0  0  0  0  0  0  0  0
    5.5609    1.6350    0.3551 N   0  0  0  0  0  0  0  0  0  0  0  0
    5.0821    2.7857   -0.3281 C   0  0  0  0  0  0  0  0  0  0  0  0
    4.8567    0.4970    0.7063 C   0  0  0  0  0  0  0  0  0  0  0  0
    5.6286   -0.4387    1.2720 O   0  0  0  0  0  0  0  0  0  0  0  0
    3.5030    0.1455    0.5808 N   0  0  0  0  0  0  0  0  0  0  0  0
    2.5330    1.0361    0.0554 C   0  0  0  0  0  0  0  0  0  0  0  0
    2.0093    0.5488   -1.3089 C   0  0  0  0  0  0  0  0  0  0  0  0
    0.9134   -0.3447   -1.0099 N   0  0  0  0  0  0  0  0  0  0  0  0
   -0.2903   -0.3341   -1.6299 C   0  0  0  0  0  0  0  0  0  0  0  0
   -1.0923   -1.3019   -1.0833 C   0  0  0  0  0  0  0  0  0  0  0  0
   -2.4546   -1.6576   -1.4600 C   0  0  0  0  0  0  0  0  0  0  0  0
   -3.5710   -1.2399   -0.8923 C   0  0  0  0  0  0  0  0  0  0  0  0
   -3.7091   -0.3057    0.2684 C   0  0  0  0  0  0  0  0  0  0  0  0
   -3.1027   -0.3998    1.4869 C   0  0  0  0  0  0  0  0  0  0  0  0
   -3.5114    0.6805    2.2186 N   0  0  0  0  0  0  0  0  0  0  0  0
   -4.3534    1.4318    1.4777 C   0  0  0  0  0  0  0  0  0  0  0  0
   -5.0048    2.6126    1.8022 C   0  0  0  0  0  0  0  0  0  0  0  0
   -5.8111    3.1892    0.8509 C   0  0  0  0  0  0  0  0  0  0  0  0
   -5.9201    2.5610   -0.3621 C   0  0  0  0  0  0  0  0  0  0  0  0
   -5.2530    1.3828   -0.6460 C   0  0  0  0  0  0  0  0  0  0  0  0
   -4.4580    0.8105    0.2921 N   0  0  0  0  0  0  0  0  0  0  0  0
   -4.6983   -1.8549   -1.5753 C   0  0  0  0  0  0  0  0  0  0  0  0
   -5.8981   -1.6743   -1.2842 O   0  0  0  0  0  0  0  0  0  0  0  0
   -4.2164   -2.6820   -2.6086 N   0  0  0  0  0  0  0  0  0  0  0  0
   -2.8135   -2.5792   -2.5614 C   0  0  0  0  0  0  0  0  0  0  0  0
   -1.9605   -3.1523   -3.3069 O   0  0  0  0  0  0  0  0  0  0  0  0
   -0.3345   -1.9072   -0.1057 C   0  0  0  0  0  0  0  0  0  0  0  0
   -0.5588   -2.9361    0.7842 C   0  0  0  0  0  0  0  0  0  0  0  0
    0.3860   -3.3653    1.6783 C   0  0  0  0  0  0  0  0  0  0  0  0
    1.6083   -2.7671    1.7092 C   0  0  0  0  0  0  0  0  0  0  0  0
    1.9001   -1.7182    0.8325 C   0  0  0  0  0  0  0  0  0  0  0  0
    0.9301   -1.3058   -0.0570 C   0  0  0  0  0  0  0  0  0  0  0  0
    3.2805   -1.2505    1.0514 C   0  0  0  0  0  0  0  0  0  0  0  0
    7.6374    1.7557   -0.1847 H   0  0  0  0  0  0  0  0  0  0  0  0
    7.3015    0.7557    1.2622 H   0  0  0  0  0  0  0  0  0  0  0  0
    7.1980    2.5182    1.3743 H   0  0  0  0  0  0  0  0  0  0  0  0
    6.0021    3.4104   -0.6496 H   0  0  0  0  0  0  0  0  0  0  0  0
    4.5019    3.5047    0.2904 H   0  0  0  0  0  0  0  0  0  0  0  0
    4.5993    2.4987   -1.2751 H   0  0  0  0  0  0  0  0  0  0  0  0
    2.7999    2.0725    0.0369 H   0  0  0  0  0  0  0  0  0  0  0  0
    1.6161    0.9258    0.7560 H   0  0  0  0  0  0  0  0  0  0  0  0
    1.6983    1.4316   -1.9045 H   0  0  0  0  0  0  0  0  0  0  0  0
    2.8713    0.0240   -1.7809 H   0  0  0  0  0  0  0  0  0  0  0  0
   -0.5642    0.3510   -2.4440 H   0  0  0  0  0  0  0  0  0  0  0  0
   -2.4349   -1.1387    1.8651 H   0  0  0  0  0  0  0  0  0  0  0  0
   -4.9118    3.0943    2.7575 H   0  0  0  0  0  0  0  0  0  0  0  0
   -6.3551    4.1309    1.0604 H   0  0  0  0  0  0  0  0  0  0  0  0
   -6.5508    3.0054   -1.1208 H   0  0  0  0  0  0  0  0  0  0  0  0
   -5.3463    0.9079   -1.6294 H   0  0  0  0  0  0  0  0  0  0  0  0
   -4.8041   -3.2485   -3.2657 H   0  0  0  0  0  0  0  0  0  0  0  0
   -1.5376   -3.4021    0.7467 H   0  0  0  0  0  0  0  0  0  0  0  0
    0.1786   -4.1926    2.3793 H   0  0  0  0  0  0  0  0  0  0  0  0
    2.3873   -3.0840    2.4095 H   0  0  0  0  0  0  0  0  0  0  0  0
    3.4860   -1.2220    2.1560 H   0  0  0  0  0  0  0  0  0  0  0  0
    4.0475   -1.8554    0.5362 H   0  0  0  0  0  0  0  0  0  0  0  0
  1  2  1  0
  2  3  1  0
  2  4  1  0
  4  5  2  0
  4  6  1  0
  6  7  1  0
  7  8  1  0
  8  9  1  0
  9 10  1  0
 10 11  2  0
 11 12  1  0
 12 13  2  0
 13 14  1  0
 14 15  2  0
 15 16  1  0
 16 17  2  0
 17 18  1  0
 18 19  2  0
 19 20  1  0
 20 21  2  0
 21 22  1  0
 13 23  1  0
 23 24  2  0
 23 25  1  0
 25 26  1  0
 26 27  2  0
 11 28  1  0
 28 29  2  0
 29 30  1  0
 30 31  2  0
 31 32  1  0
 32 33  2  0
 32 34  1  0
 34  6  1  0
 33  9  1  0
 26 12  1  0
 33 28  1  0
 22 14  1  0
 22 17  1  0
  1 35  1  0
  1 36  1  0
  1 37  1  0
  3 38  1  0
  3 39  1  0
  3 40  1  0
  7 41  1  0
  7 42  1  0
  8 43  1  0
  8 44  1  0
 10 45  1  0
 15 46  1  0
 18 47  1  0
 19 48  1  0
 20 49  1  0
 21 50  1  0
 25 51  1  0
 29 52  1  0
 30 53  1  0
 31 54  1  0
 34 55  1  0
 34 56  1  0
M  END
$$$$
