
     RDKit          3D

 51 51  0  0  0  0  0  0  0  0999 V2000
   -0.5028    0.0927   -0.6546 C   0  0  1  0  0  0  0  0  0  0  0  0
    0.4436   -0.5633   -1.5990 N   0  0  0  0  0  0  0  0  0  0  0  0
   -1.8455   -0.3062   -1.1318 C   0  0  0  0  0  0  0  0  0  0  0  0
   -3.0704    0.1785   -0.4756 C   0  0  0  0  0  0  0  0  0  0  0  0
   -4.2822   -0.4087   -1.2738 C   0  0  0  0  0  0  0  0  0  0  0  0
   -5.4185    0.5266   -0.9195 C   0  0  0  0  0  0  0  0  0  0  0  0
   -5.7619    0.3975    0.5449 C   0  0  0  0  0  0  0  0  0  0  0  0
   -4.7783   -0.4475    1.2835 C   0  0  0  0  0  0  0  0  0  0  0  0
   -3.3373   -0.1800    0.9250 C   0  0  0  0  0  0  0  0  0  0  0  0
   -0.1204   -0.2339    0.7355 C   0  0  1  0  0  0  0  0  0  0  0  0
   -0.1160   -1.5658    1.0613 O   0  0  0  0  0  0  0  0  0  0  0  0
    1.2062    0.4088    1.1450 C   0  0  0  0  0  0  0  0  0  0  0  0
    2.3874    0.0375    0.3428 C   0  0  1  0  0  0  0  0  0  0  0  0
    3.5778    0.8050    0.9407 C   0  0  0  0  0  0  0  0  0  0  0  0
    4.8405    0.4950    0.1906 C   0  0  0  0  0  0  0  0  0  0  0  0
    4.7072    0.8892   -1.2729 C   0  0  0  0  0  0  0  0  0  0  0  0
    6.0067    1.2282    0.7922 C   0  0  0  0  0  0  0  0  0  0  0  0
    2.6568   -1.4292    0.4251 C   0  0  0  0  0  0  0  0  0  0  0  0
    3.3713   -2.5479    0.0979 O   0  0  0  0  0  0  0  0  0  0  0  0
    2.2635   -2.5187    0.9403 O   0  0  0  0  0  0  0  0  0  0  0  0
   -0.3418    1.1829   -0.8114 H   0  0  0  0  0  0  0  0  0  0  0  0
    0.2133   -1.5625   -1.6968 H   0  0  0  0  0  0  0  0  0  0  0  0
    0.5288   -0.0400   -2.4717 H   0  0  0  0  0  0  0  0  0  0  0  0
   -1.9716   -0.0105   -2.2383 H   0  0  0  0  0  0  0  0  0  0  0  0
   -1.8686   -1.4520   -1.2514 H   0  0  0  0  0  0  0  0  0  0  0  0
   -3.1719    1.2857   -0.6311 H   0  0  0  0  0  0  0  0  0  0  0  0
   -4.4522   -1.4193   -0.8630 H   0  0  0  0  0  0  0  0  0  0  0  0
   -4.0868   -0.3473   -2.3411 H   0  0  0  0  0  0  0  0  0  0  0  0
   -6.2730    0.2713   -1.5678 H   0  0  0  0  0  0  0  0  0  0  0  0
   -5.0899    1.5483   -1.1738 H   0  0  0  0  0  0  0  0  0  0  0  0
   -5.7764    1.4140    0.9672 H   0  0  0  0  0  0  0  0  0  0  0  0
   -6.7815   -0.0085    0.6161 H   0  0  0  0  0  0  0  0  0  0  0  0
   -4.9698   -1.5175    1.0883 H   0  0  0  0  0  0  0  0  0  0  0  0
   -4.8692   -0.3092    2.3802 H   0  0  0  0  0  0  0  0  0  0  0  0
   -2.7545   -1.0673    1.2228 H   0  0  0  0  0  0  0  0  0  0  0  0
   -3.0087    0.6944    1.5743 H   0  0  0  0  0  0  0  0  0  0  0  0
   -0.8449    0.2556    1.4427 H   0  0  0  0  0  0  0  0  0  0  0  0
   -0.5979   -2.1628    0.4622 H   0  0  0  0  0  0  0  0  0  0  0  0
    1.3866    0.0902    2.1956 H   0  0  0  0  0  0  0  0  0  0  0  0
    1.0798    1.4989    1.1727 H   0  0  0  0  0  0  0  0  0  0  0  0
    2.3514    0.3551   -0.6966 H   0  0  0  0  0  0  0  0  0  0  0  0
    3.3741    1.8834    0.9147 H   0  0  0  0  0  0  0  0  0  0  0  0
    3.6996    0.5083    1.9982 H   0  0  0  0  0  0  0  0  0  0  0  0
    5.0507   -0.6074    0.2556 H   0  0  0  0  0  0  0  0  0  0  0  0
    4.4342    0.0113   -1.8984 H   0  0  0  0  0  0  0  0  0  0  0  0
    5.6407    1.3441   -1.6488 H   0  0  0  0  0  0  0  0  0  0  0  0
    3.8824    1.6136   -1.3518 H   0  0  0  0  0  0  0  0  0  0  0  0
    6.4071    0.7020    1.7002 H   0  0  0  0  0  0  0  0  0  0  0  0
    6.8346    1.3699    0.0653 H   0  0  0  0  0  0  0  0  0  0  0  0
    5.6420    2.2454    1.0985 H   0  0  0  0  0  0  0  0  0  0  0  0
    4.1058   -2.6277   -0.6100 H   0  0  0  0  0  0  0  0  0  0  0  0
  1  2  1  0
  1  3  1  0
  3  4  1  0
  4  5  1  0
  5  6  1  0
  6  7  1  0
  7  8  1  0
  8  9  1  0
  1 10  1  0
 10 11  1  0
 10 12  1  0
 12 13  1  0
 13 14  1  0
 14 15  1  0
 15 16  1  0
 15 17  1  0
 13 18  1  0
 18 19  1  0
 18 20  2  0
  9  4  1  0
  1 21  1  1
  2 22  1  0
  2 23  1  0
  3 24  1  0
  3 25  1  0
  4 26  1  0
  5 27  1  0
  5 28  1  0
  6 29  1  0
  6 30  1  0
  7 31  1  0
  7 32  1  0
  8 33  1  0
  8 34  1  0
  9 35  1  0
  9 36  1  0
 10 37  1  1
 11 38  1  0
 12 39  1  0
 12 40  1  0
 13 41  1  6
 14 42  1  0
 14 43  1  0
 15 44  1  0
 16 45  1  0
 16 46  1  0
 16 47  1  0
 17 48  1  0
 17 49  1  0
 17 50  1  0
 19 51  1  0
M  END
$$$$
