@<TRIPOS>MOLECULE
*****
 51 51 0 0 0
SMALL
GASTEIGER

@<TRIPOS>ATOM
      1 C          -0.5028    0.0927   -0.6546 C.3     1  UNL1        0.0314
      2 N           0.4436   -0.5633   -1.5990 N.3     1  UNL1       -0.3251
      3 C          -1.8455   -0.3062   -1.1318 C.3     1  UNL1       -0.0325
      4 C          -3.0704    0.1785   -0.4756 C.3     1  UNL1       -0.0396
      5 C          -4.2822   -0.4087   -1.2738 C.3     1  UNL1       -0.0502
      6 C          -5.4185    0.5266   -0.9195 C.3     1  UNL1       -0.0528
      7 C          -5.7619    0.3975    0.5449 C.3     1  UNL1       -0.0530
      8 C          -4.7783   -0.4475    1.2835 C.3     1  UNL1       -0.0528
      9 C          -3.3373   -0.1800    0.9250 C.3     1  UNL1       -0.0502
     10 C          -0.1204   -0.2339    0.7355 C.3     1  UNL1        0.0711
     11 O          -0.1160   -1.5658    1.0613 O.3     1  UNL1       -0.3902
     12 C           1.2062    0.4088    1.1450 C.3     1  UNL1       -0.0125
     13 C           2.3874    0.0375    0.3428 C.3     1  UNL1        0.0589
     14 C           3.5778    0.8050    0.9407 C.3     1  UNL1       -0.0377
     15 C           4.8405    0.4950    0.1906 C.3     1  UNL1       -0.0460
     16 C           4.7072    0.8892   -1.2729 C.3     1  UNL1       -0.0626
     17 C           6.0067    1.2282    0.7922 C.3     1  UNL1       -0.0626
     18 C           2.6568   -1.4292    0.4251 C.2     1  UNL1        0.3079
     19 O           3.3713   -2.5479    0.0979 O.3     1  UNL1       -0.4804
     20 O           2.2635   -2.5187    0.9403 O.2     1  UNL1       -0.2507
     21 H          -0.3418    1.1829   -0.8114 H       1  UNL1        0.0484
     22 H           0.2133   -1.5625   -1.6968 H       1  UNL1        0.1185
     23 H           0.5288   -0.0400   -2.4717 H       1  UNL1        0.1185
     24 H          -1.9716   -0.0105   -2.2383 H       1  UNL1        0.0284
     25 H          -1.8686   -1.4520   -1.2514 H       1  UNL1        0.0284
     26 H          -3.1719    1.2857   -0.6311 H       1  UNL1        0.0301
     27 H          -4.4522   -1.4193   -0.8630 H       1  UNL1        0.0268
     28 H          -4.0868   -0.3473   -2.3411 H       1  UNL1        0.0268
     29 H          -6.2730    0.2713   -1.5678 H       1  UNL1        0.0265
     30 H          -5.0899    1.5483   -1.1738 H       1  UNL1        0.0265
     31 H          -5.7764    1.4140    0.9672 H       1  UNL1        0.0265
     32 H          -6.7815   -0.0085    0.6161 H       1  UNL1        0.0265
     33 H          -4.9698   -1.5175    1.0883 H       1  UNL1        0.0265
     34 H          -4.8692   -0.3092    2.3802 H       1  UNL1        0.0265
     35 H          -2.7545   -1.0673    1.2228 H       1  UNL1        0.0268
     36 H          -3.0087    0.6944    1.5743 H       1  UNL1        0.0268
     37 H          -0.8449    0.2556    1.4427 H       1  UNL1        0.0609
     38 H          -0.5979   -2.1628    0.4622 H       1  UNL1        0.2098
     39 H           1.3866    0.0902    2.1956 H       1  UNL1        0.0298
     40 H           1.0798    1.4989    1.1727 H       1  UNL1        0.0298
     41 H           2.3514    0.3551   -0.6966 H       1  UNL1        0.0414
     42 H           3.3741    1.8834    0.9147 H       1  UNL1        0.0276
     43 H           3.6996    0.5083    1.9982 H       1  UNL1        0.0276
     44 H           5.0507   -0.6074    0.2556 H       1  UNL1        0.0296
     45 H           4.4342    0.0113   -1.8984 H       1  UNL1        0.0232
     46 H           5.6407    1.3441   -1.6488 H       1  UNL1        0.0232
     47 H           3.8824    1.6136   -1.3518 H       1  UNL1        0.0232
     48 H           6.4071    0.7020    1.7002 H       1  UNL1        0.0232
     49 H           6.8346    1.3699    0.0653 H       1  UNL1        0.0232
     50 H           5.6420    2.2454    1.0985 H       1  UNL1        0.0232
     51 H           4.1058   -2.6277   -0.6100 H       1  UNL1        0.2951
@<TRIPOS>BOND
     1     1     2    1
     2     1     3    1
     3     3     4    1
     4     4     5    1
     5     5     6    1
     6     6     7    1
     7     7     8    1
     8     8     9    1
     9     1    10    1
    10    10    11    1
    11    10    12    1
    12    12    13    1
    13    13    14    1
    14    14    15    1
    15    15    16    1
    16    15    17    1
    17    13    18    1
    18    18    19    1
    19    18    20    2
    20     9     4    1
    21     1    21    1
    22     2    22    1
    23     2    23    1
    24     3    24    1
    25     3    25    1
    26     4    26    1
    27     5    27    1
    28     5    28    1
    29     6    29    1
    30     6    30    1
    31     7    31    1
    32     7    32    1
    33     8    33    1
    34     8    34    1
    35     9    35    1
    36     9    36    1
    37    10    37    1
    38    11    38    1
    39    12    39    1
    40    12    40    1
    41    13    41    1
    42    14    42    1
    43    14    43    1
    44    15    44    1
    45    16    45    1
    46    16    46    1
    47    16    47    1
    48    17    48    1
    49    17    49    1
    50    17    50    1
    51    19    51    1
