
     RDKit          3D

 42 45  0  0  0  0  0  0  0  0999 V2000
    8.8514   -0.9029   -0.1309 O   0  0  0  0  0  0  0  0  0  0  0  0
    7.6444   -0.2808   -0.1597 N   0  0  0  0  0  0  0  0  0  0  0  0
    6.7049   -0.9501   -0.9573 C   0  0  0  0  0  0  0  0  0  0  0  0
    6.8742   -2.0113   -1.6094 O   0  0  0  0  0  0  0  0  0  0  0  0
    5.3569   -0.3608   -1.0601 C   0  0  0  0  0  0  0  0  0  0  0  0
    4.8048    0.7969   -0.4903 C   0  0  0  0  0  0  0  0  0  0  0  0
    3.4982    1.0371   -0.8154 C   0  0  0  0  0  0  0  0  0  0  0  0
    2.8034    0.2132   -1.6254 C   0  0  0  0  0  0  0  0  0  0  0  0
    4.0456   -1.0808   -2.0298 S   0  0  0  0  0  0  0  0  0  0  0  0
    1.4597    0.2780   -2.0828 C   0  0  0  0  0  0  0  0  0  0  0  0
    1.1877    0.1651   -3.3072 O   0  0  0  0  0  0  0  0  0  0  0  0
    0.3740    0.4698   -1.1879 N   0  0  0  0  0  0  0  0  0  0  0  0
   -0.9982    0.5378   -1.6299 C   0  0  0  0  0  0  0  0  0  0  0  0
   -1.8755    1.1314   -0.5502 C   0  0  0  0  0  0  0  0  0  0  0  0
   -1.7953    0.2606    0.6183 N   0  0  0  0  0  0  0  0  0  0  0  0
   -0.5196    0.0045    1.0164 C   0  0  0  0  0  0  0  0  0  0  0  0
    0.6074    0.6092    0.2581 C   0  0  0  0  0  0  0  0  0  0  0  0
   -0.5427   -0.7907    2.0724 N   0  0  0  0  0  0  0  0  0  0  0  0
   -1.8254   -1.0693    2.3849 C   0  0  0  0  0  0  0  0  0  0  0  0
   -2.6199   -0.4035    1.4644 C   0  0  0  0  0  0  0  0  0  0  0  0
   -4.0639   -0.3255    1.2973 C   0  0  0  0  0  0  0  0  0  0  0  0
   -4.7076    0.8979    1.0583 C   0  0  0  0  0  0  0  0  0  0  0  0
   -6.0902    0.9435    0.8952 C   0  0  0  0  0  0  0  0  0  0  0  0
   -6.7713   -0.2580    0.9813 C   0  0  0  0  0  0  0  0  0  0  0  0
   -6.1626   -1.4777    1.2156 C   0  0  0  0  0  0  0  0  0  0  0  0
   -4.7819   -1.5061    1.3762 C   0  0  0  0  0  0  0  0  0  0  0  0
    9.2774   -0.8016   -1.0314 H   0  0  0  0  0  0  0  0  0  0  0  0
    7.4141    0.5914    0.3401 H   0  0  0  0  0  0  0  0  0  0  0  0
    5.4491    1.3808    0.1477 H   0  0  0  0  0  0  0  0  0  0  0  0
    3.0015    1.9304   -0.4032 H   0  0  0  0  0  0  0  0  0  0  0  0
   -1.3453   -0.5158   -1.7593 H   0  0  0  0  0  0  0  0  0  0  0  0
   -1.1190    1.1117   -2.5641 H   0  0  0  0  0  0  0  0  0  0  0  0
   -1.6176    2.1725   -0.3187 H   0  0  0  0  0  0  0  0  0  0  0  0
   -2.9084    1.0944   -0.9213 H   0  0  0  0  0  0  0  0  0  0  0  0
    1.5362    0.0687    0.4735 H   0  0  0  0  0  0  0  0  0  0  0  0
    0.7316    1.6791    0.4633 H   0  0  0  0  0  0  0  0  0  0  0  0
   -2.2955   -1.6685    3.1624 H   0  0  0  0  0  0  0  0  0  0  0  0
   -4.1550    1.8072    1.0002 H   0  0  0  0  0  0  0  0  0  0  0  0
   -6.5958    1.8733    0.7078 H   0  0  0  0  0  0  0  0  0  0  0  0
   -7.8610   -0.2411    0.8568 H   0  0  0  0  0  0  0  0  0  0  0  0
   -6.6872   -2.4045    1.2860 H   0  0  0  0  0  0  0  0  0  0  0  0
   -4.2835   -2.4576    1.5582 H   0  0  0  0  0  0  0  0  0  0  0  0
  1  2  1  0
  2  3  1  0
  3  4  2  0
  3  5  1  0
  5  6  2  0
  6  7  1  0
  7  8  2  0
  8  9  1  0
  8 10  1  0
 10 11  2  0
 10 12  1  0
 12 13  1  0
 13 14  1  0
 14 15  1  0
 15 16  1  0
 16 17  1  0
 16 18  2  0
 18 19  1  0
 19 20  2  0
 20 21  1  0
 21 22  2  0
 22 23  1  0
 23 24  2  0
 24 25  1  0
 25 26  2  0
  9  5  1  0
 17 12  1  0
 26 21  1  0
 20 15  1  0
  1 27  1  0
  2 28  1  0
  6 29  1  0
  7 30  1  0
 13 31  1  0
 13 32  1  0
 14 33  1  0
 14 34  1  0
 17 35  1  0
 17 36  1  0
 19 37  1  0
 22 38  1  0
 23 39  1  0
 24 40  1  0
 25 41  1  0
 26 42  1  0
M  END
$$$$
