@<TRIPOS>MOLECULE
*****
 42 45 0 0 0
SMALL
GASTEIGER

@<TRIPOS>ATOM
      1 O           8.8514   -0.9029   -0.1309 O.3     1  UNL1       -0.2949
      2 N           7.6444   -0.2808   -0.1597 N.am    1  UNL1       -0.1930
      3 C           6.7049   -0.9501   -0.9573 C.2     1  UNL1        0.2731
      4 O           6.8742   -2.0113   -1.6094 O.2     1  UNL1       -0.2675
      5 C           5.3569   -0.3608   -1.0601 C.ar    1  UNL1        0.0765
      6 C           4.8048    0.7969   -0.4903 C.ar    1  UNL1       -0.0417
      7 C           3.4982    1.0371   -0.8154 C.ar    1  UNL1       -0.0418
      8 C           2.8034    0.2132   -1.6254 C.ar    1  UNL1        0.0748
      9 S           4.0456   -1.0808   -2.0298 S.2     1  UNL1       -0.0790
     10 C           1.4597    0.2780   -2.0828 C.2     1  UNL1        0.2537
     11 O           1.1877    0.1651   -3.3072 O.2     1  UNL1       -0.2694
     12 N           0.3740    0.4698   -1.1879 N.am    1  UNL1       -0.2881
     13 C          -0.9982    0.5378   -1.6299 C.3     1  UNL1        0.0335
     14 C          -1.8755    1.1314   -0.5502 C.3     1  UNL1        0.0408
     15 N          -1.7953    0.2606    0.6183 N.ar    1  UNL1       -0.3248
     16 C          -0.5196    0.0045    1.0164 C.ar    1  UNL1        0.1276
     17 C           0.6074    0.6092    0.2581 C.3     1  UNL1        0.0731
     18 N          -0.5427   -0.7907    2.0724 N.ar    1  UNL1       -0.2383
     19 C          -1.8254   -1.0693    2.3849 C.ar    1  UNL1        0.0537
     20 C          -2.6199   -0.4035    1.4644 C.ar    1  UNL1        0.0687
     21 C          -4.0639   -0.3255    1.2973 C.ar    1  UNL1        0.0000
     22 C          -4.7076    0.8979    1.0583 C.ar    1  UNL1       -0.0526
     23 C          -6.0902    0.9435    0.8952 C.ar    1  UNL1       -0.0611
     24 C          -6.7713   -0.2580    0.9813 C.ar    1  UNL1       -0.0617
     25 C          -6.1626   -1.4777    1.2156 C.ar    1  UNL1       -0.0611
     26 C          -4.7819   -1.5061    1.3762 C.ar    1  UNL1       -0.0526
     27 H           9.2774   -0.8016   -1.0314 H       1  UNL1        0.2414
     28 H           7.4141    0.5914    0.3401 H       1  UNL1        0.1825
     29 H           5.4491    1.3808    0.1477 H       1  UNL1        0.0631
     30 H           3.0015    1.9304   -0.4032 H       1  UNL1        0.0631
     31 H          -1.3453   -0.5158   -1.7593 H       1  UNL1        0.0482
     32 H          -1.1190    1.1117   -2.5641 H       1  UNL1        0.0482
     33 H          -1.6176    2.1725   -0.3187 H       1  UNL1        0.0508
     34 H          -2.9084    1.0944   -0.9213 H       1  UNL1        0.0508
     35 H           1.5362    0.0687    0.4735 H       1  UNL1        0.0545
     36 H           0.7316    1.6791    0.4633 H       1  UNL1        0.0545
     37 H          -2.2955   -1.6685    3.1624 H       1  UNL1        0.0851
     38 H          -4.1550    1.8072    1.0002 H       1  UNL1        0.0624
     39 H          -6.5958    1.8733    0.7078 H       1  UNL1        0.0618
     40 H          -7.8610   -0.2411    0.8568 H       1  UNL1        0.0618
     41 H          -6.6872   -2.4045    1.2860 H       1  UNL1        0.0618
     42 H          -4.2835   -2.4576    1.5582 H       1  UNL1        0.0624
@<TRIPOS>BOND
     1     1     2    1
     2     2     3   am
     3     3     4    2
     4     3     5    1
     5     5     6   ar
     6     6     7   ar
     7     7     8   ar
     8     8     9   ar
     9     8    10    1
    10    10    11    2
    11    10    12   am
    12    12    13    1
    13    13    14    1
    14    14    15    1
    15    15    16   ar
    16    16    17    1
    17    16    18   ar
    18    18    19   ar
    19    19    20   ar
    20    20    21    1
    21    21    22   ar
    22    22    23   ar
    23    23    24   ar
    24    24    25   ar
    25    25    26   ar
    26     9     5   ar
    27    17    12    1
    28    26    21   ar
    29    20    15   ar
    30     1    27    1
    31     2    28    1
    32     6    29    1
    33     7    30    1
    34    13    31    1
    35    13    32    1
    36    14    33    1
    37    14    34    1
    38    17    35    1
    39    17    36    1
    40    19    37    1
    41    22    38    1
    42    23    39    1
    43    24    40    1
    44    25    41    1
    45    26    42    1
