@<TRIPOS>MOLECULE
*****
 43 43 0 0 0
SMALL
GASTEIGER

@<TRIPOS>ATOM
      1 C          -0.6805    4.3270   -0.7855 C.3     1  UNL1        0.0122
      2 C          -0.5615    2.8583   -0.9261 C.2     1  UNL1        0.2104
      3 O          -0.6263    2.2515   -2.0177 O.2     1  UNL1       -0.2761
      4 N          -0.3617    2.0901    0.2492 N.am    1  UNL1       -0.3053
      5 C          -0.2348    0.6468    0.2004 C.3     1  UNL1        0.1030
      6 C          -1.3542   -0.0482    0.9175 C.3     1  UNL1        0.1588
      7 N          -1.8530   -1.1636    0.1348 N.pl3   1  UNL1       -0.1040
      8 C          -2.8564   -1.0099   -0.6723 C.cat   1  UNL1        0.3771
      9 N          -3.3815   -2.0561   -1.4553 N.pl3   1  UNL1       -0.2892
     10 N          -3.4614    0.2667   -0.7800 N.pl3   1  UNL1       -0.2892
     11 C          -1.0074   -0.5527    2.2427 C.2     1  UNL1        0.0067
     12 C           0.2136   -0.9317    2.5444 C.2     1  UNL1        0.2042
     13 C           0.5508   -1.4377    3.8813 C.2     1  UNL1        0.3717
     14 O           1.6900   -1.8021    4.1965 O.2     1  UNL1       -0.2417
     15 O          -0.4645   -1.5040    4.8214 O.3     1  UNL1       -0.4750
     16 O           1.1630   -0.8290    1.5371 O.2     1  UNL1       -0.4775
     17 C           1.1263    0.2710    0.6560 C.3     1  UNL1        0.1505
     18 C           2.0732   -0.0501   -0.4964 C.3     1  UNL1        0.1217
     19 O           2.1253    0.9548   -1.4289 O.3     1  UNL1       -0.3854
     20 C           1.6800   -1.3256   -1.1979 C.3     1  UNL1        0.1075
     21 O           1.6034   -2.4004   -0.3200 O.3     1  UNL1       -0.3868
     22 C           2.7606   -1.6354   -2.2122 C.3     1  UNL1        0.0727
     23 O           3.9989   -1.8233   -1.6246 O.3     1  UNL1       -0.3924
     24 H          -1.2798    4.6122    0.1089 H       1  UNL1        0.0322
     25 H          -1.0255    4.8334   -1.6864 H       1  UNL1        0.0322
     26 H           0.3580    4.7136   -0.5719 H       1  UNL1        0.0322
     27 H          -0.3044    2.5914    1.1869 H       1  UNL1        0.1492
     28 H          -0.3190    0.3605   -0.8743 H       1  UNL1        0.0575
     29 H          -2.2327    0.6522    1.0358 H       1  UNL1        0.0796
     30 H          -3.6213   -2.9544   -1.0148 H       1  UNL1        0.2546
     31 H          -3.5244   -1.9204   -2.4657 H       1  UNL1        0.2546
     32 H          -3.3503    0.7924   -1.6671 H       1  UNL1        0.2546
     33 H          -3.9982    0.6625    0.0042 H       1  UNL1        0.2546
     34 H          -1.7874   -0.6158    3.0003 H       1  UNL1        0.0647
     35 H          -0.3756   -1.9107    5.7356 H       1  UNL1        0.2955
     36 H           1.5886    1.1251    1.1920 H       1  UNL1        0.0780
     37 H           3.0677   -0.2062   -0.0413 H       1  UNL1        0.0658
     38 H           1.6740    0.7065   -2.2860 H       1  UNL1        0.2101
     39 H           0.7310   -1.2654   -1.7318 H       1  UNL1        0.0643
     40 H           2.4450   -2.8745   -0.2365 H       1  UNL1        0.2100
     41 H           2.4931   -2.5773   -2.7598 H       1  UNL1        0.0584
     42 H           2.8632   -0.8375   -2.9754 H       1  UNL1        0.0584
     43 H           4.4560   -0.9842   -1.4171 H       1  UNL1        0.2095
@<TRIPOS>BOND
     1     1     2    1
     2     2     3    2
     3     2     4   am
     4     4     5    1
     5     5     6    1
     6     6     7    1
     7     7     8    2
     8     8     9    1
     9     8    10    1
    10     6    11    1
    11    11    12    2
    12    12    13    1
    13    13    14    2
    14    13    15    1
    15    12    16    1
    16    16    17    1
    17    17    18    1
    18    18    19    1
    19    18    20    1
    20    20    21    1
    21    20    22    1
    22    22    23    1
    23    17     5    1
    24     1    24    1
    25     1    25    1
    26     1    26    1
    27     4    27    1
    28     5    28    1
    29     6    29    1
    30     9    30    1
    31     9    31    1
    32    10    32    1
    33    10    33    1
    34    11    34    1
    35    15    35    1
    36    17    36    1
    37    18    37    1
    38    19    38    1
    39    20    39    1
    40    21    40    1
    41    22    41    1
    42    22    42    1
    43    23    43    1
