
     RDKit          3D

 43 43  0  0  0  0  0  0  0  0999 V2000
   -0.6805    4.3270   -0.7855 C   0  0  0  0  0  0  0  0  0  0  0  0
   -0.5615    2.8583   -0.9261 C   0  0  0  0  0  0  0  0  0  0  0  0
   -0.6263    2.2515   -2.0177 O   0  0  0  0  0  0  0  0  0  0  0  0
   -0.3617    2.0901    0.2492 N   0  0  0  0  0  0  0  0  0  0  0  0
   -0.2348    0.6468    0.2004 C   0  0  2  0  0  0  0  0  0  0  0  0
   -1.3542   -0.0482    0.9175 C   0  0  1  0  0  0  0  0  0  0  0  0
   -1.8530   -1.1636    0.1348 N   0  0  0  0  0  0  0  0  0  0  0  0
   -2.8564   -1.0099   -0.6723 C   0  0  0  0  0  0  0  0  0  0  0  0
   -3.3815   -2.0561   -1.4553 N   0  0  0  0  0  0  0  0  0  0  0  0
   -3.4614    0.2667   -0.7800 N   0  0  0  0  0  0  0  0  0  0  0  0
   -1.0074   -0.5527    2.2427 C   0  0  0  0  0  0  0  0  0  0  0  0
    0.2136   -0.9317    2.5444 C   0  0  0  0  0  0  0  0  0  0  0  0
    0.5508   -1.4377    3.8813 C   0  0  0  0  0  0  0  0  0  0  0  0
    1.6900   -1.8021    4.1965 O   0  0  0  0  0  0  0  0  0  0  0  0
   -0.4645   -1.5040    4.8214 O   0  0  0  0  0  0  0  0  0  0  0  0
    1.1630   -0.8290    1.5371 O   0  0  0  0  0  0  0  0  0  0  0  0
    1.1263    0.2710    0.6560 C   0  0  1  0  0  0  0  0  0  0  0  0
    2.0732   -0.0501   -0.4964 C   0  0  2  0  0  0  0  0  0  0  0  0
    2.1253    0.9548   -1.4289 O   0  0  0  0  0  0  0  0  0  0  0  0
    1.6800   -1.3256   -1.1979 C   0  0  2  0  0  0  0  0  0  0  0  0
    1.6034   -2.4004   -0.3200 O   0  0  0  0  0  0  0  0  0  0  0  0
    2.7606   -1.6354   -2.2122 C   0  0  0  0  0  0  0  0  0  0  0  0
    3.9989   -1.8233   -1.6246 O   0  0  0  0  0  0  0  0  0  0  0  0
   -1.2798    4.6122    0.1089 H   0  0  0  0  0  0  0  0  0  0  0  0
   -1.0255    4.8334   -1.6864 H   0  0  0  0  0  0  0  0  0  0  0  0
    0.3580    4.7136   -0.5719 H   0  0  0  0  0  0  0  0  0  0  0  0
   -0.3044    2.5914    1.1869 H   0  0  0  0  0  0  0  0  0  0  0  0
   -0.3190    0.3605   -0.8743 H   0  0  0  0  0  0  0  0  0  0  0  0
   -2.2327    0.6522    1.0358 H   0  0  0  0  0  0  0  0  0  0  0  0
   -3.6213   -2.9544   -1.0148 H   0  0  0  0  0  0  0  0  0  0  0  0
   -3.5244   -1.9204   -2.4657 H   0  0  0  0  0  0  0  0  0  0  0  0
   -3.3503    0.7924   -1.6671 H   0  0  0  0  0  0  0  0  0  0  0  0
   -3.9982    0.6625    0.0042 H   0  0  0  0  0  0  0  0  0  0  0  0
   -1.7874   -0.6158    3.0003 H   0  0  0  0  0  0  0  0  0  0  0  0
   -0.3756   -1.9107    5.7356 H   0  0  0  0  0  0  0  0  0  0  0  0
    1.5886    1.1251    1.1920 H   0  0  0  0  0  0  0  0  0  0  0  0
    3.0677   -0.2062   -0.0413 H   0  0  0  0  0  0  0  0  0  0  0  0
    1.6740    0.7065   -2.2860 H   0  0  0  0  0  0  0  0  0  0  0  0
    0.7310   -1.2654   -1.7318 H   0  0  0  0  0  0  0  0  0  0  0  0
    2.4450   -2.8745   -0.2365 H   0  0  0  0  0  0  0  0  0  0  0  0
    2.4931   -2.5773   -2.7598 H   0  0  0  0  0  0  0  0  0  0  0  0
    2.8632   -0.8375   -2.9754 H   0  0  0  0  0  0  0  0  0  0  0  0
    4.4560   -0.9842   -1.4171 H   0  0  0  0  0  0  0  0  0  0  0  0
  1  2  1  0
  2  3  2  0
  2  4  1  0
  4  5  1  0
  5  6  1  0
  6  7  1  0
  7  8  2  3
  8  9  1  0
  8 10  1  0
  6 11  1  0
 11 12  2  0
 12 13  1  0
 13 14  2  0
 13 15  1  0
 12 16  1  0
 16 17  1  0
 17 18  1  0
 18 19  1  0
 18 20  1  0
 20 21  1  0
 20 22  1  0
 22 23  1  0
 17  5  1  0
  1 24  1  0
  1 25  1  0
  1 26  1  0
  4 27  1  0
  5 28  1  6
  6 29  1  1
  9 30  1  0
  9 31  1  0
 10 32  1  0
 10 33  1  0
 11 34  1  0
 15 35  1  0
 17 36  1  1
 18 37  1  1
 19 38  1  0
 20 39  1  6
 21 40  1  0
 22 41  1  0
 22 42  1  0
 23 43  1  0
M  END
$$$$
