@<TRIPOS>MOLECULE
*****
 46 48 0 0 0
SMALL
GASTEIGER

@<TRIPOS>ATOM
      1 O           3.6296    3.2356   -0.7678 O.2     1  UNL1       -0.1498
      2 S           3.0891    2.7316    0.5397 S.O2    1  UNL1        0.0766
      3 O           2.1393    3.7315    1.1503 O.2     1  UNL1       -0.1498
      4 N           4.3857    2.4876    1.6110 N.pl3   1  UNL1       -0.1937
      5 C           5.4022    1.5529    1.2122 C.ar    1  UNL1        0.1774
      6 N           5.7361    0.8180    0.3686 N.ar    1  UNL1       -0.2321
      7 C           6.7954    0.0461    0.2899 C.ar    1  UNL1        0.0369
      8 C           7.6360    0.1035    1.3432 C.ar    1  UNL1       -0.0030
      9 S           6.8640    1.2826    2.4276 S.2     1  UNL1       -0.0594
     10 C           2.1740    1.2684    0.2620 C.ar    1  UNL1        0.1450
     11 C           2.4556    0.0654    0.8313 C.ar    1  UNL1       -0.0121
     12 C           1.6759   -1.0161    0.5469 C.ar    1  UNL1        0.0638
     13 CL          2.0239   -2.5672    1.2699 Cl      1  UNL1       -0.0816
     14 C           0.5694   -0.9595   -0.3224 C.ar    1  UNL1        0.0485
     15 N          -0.1739   -2.1248   -0.5997 N.pl3   1  UNL1       -0.3426
     16 C          -1.3369   -2.1827   -1.4346 C.3     1  UNL1        0.0094
     17 C          -2.6414   -2.1461   -0.7159 C.3     1  UNL1       -0.0345
     18 C          -2.9539   -0.9534    0.1068 C.3     1  UNL1       -0.0373
     19 C          -4.3366   -1.2197    0.7515 C.3     1  UNL1       -0.0375
     20 C          -4.6775    0.0329    1.5343 C.3     1  UNL1       -0.0039
     21 N          -5.0573    1.1079    0.6179 N.3     1  UNL1       -0.3160
     22 C          -4.5746    0.7958   -0.7247 C.3     1  UNL1       -0.0039
     23 C          -3.1674    0.3029   -0.7147 C.3     1  UNL1       -0.0375
     24 C           0.2960    0.2637   -0.8926 C.ar    1  UNL1       -0.0022
     25 C           1.0922    1.3501   -0.5963 C.ar    1  UNL1        0.1517
     26 F           0.7691    2.5341   -1.1918 F       1  UNL1       -0.2034
     27 H           4.4621    2.9742    2.5086 H       1  UNL1        0.1758
     28 H           6.9672   -0.6067   -0.6017 H       1  UNL1        0.0835
     29 H           8.6205   -0.4591    1.5281 H       1  UNL1        0.0710
     30 H           3.3062    0.0112    1.5027 H       1  UNL1        0.0653
     31 H           0.1403   -3.0424   -0.1625 H       1  UNL1        0.1461
     32 H          -1.3119   -1.3913   -2.2333 H       1  UNL1        0.0461
     33 H          -1.3331   -3.1461   -2.0286 H       1  UNL1        0.0461
     34 H          -3.4369   -2.2412   -1.4933 H       1  UNL1        0.0283
     35 H          -2.6776   -3.0430   -0.0370 H       1  UNL1        0.0283
     36 H          -2.2366   -0.7675    0.9153 H       1  UNL1        0.0302
     37 H          -5.0549   -1.4665   -0.0337 H       1  UNL1        0.0280
     38 H          -4.2493   -2.0502    1.4799 H       1  UNL1        0.0280
     39 H          -5.4431   -0.1493    2.3134 H       1  UNL1        0.0424
     40 H          -3.7540    0.3619    2.0509 H       1  UNL1        0.0424
     41 H          -6.1058    1.0795    0.5609 H       1  UNL1        0.1219
     42 H          -5.2797    0.1488   -1.2487 H       1  UNL1        0.0424
     43 H          -4.5698    1.7702   -1.2684 H       1  UNL1        0.0424
     44 H          -2.4430    1.0698   -0.3646 H       1  UNL1        0.0280
     45 H          -2.8924    0.0500   -1.7589 H       1  UNL1        0.0280
     46 H          -0.5217    0.3563   -1.5785 H       1  UNL1        0.0666
@<TRIPOS>BOND
     1     1     2    2
     2     2     3    2
     3     2     4    1
     4     4     5    1
     5     5     6   ar
     6     6     7   ar
     7     7     8   ar
     8     8     9   ar
     9     2    10    1
    10    10    11   ar
    11    11    12   ar
    12    12    13    1
    13    12    14   ar
    14    14    15    1
    15    15    16    1
    16    16    17    1
    17    17    18    1
    18    18    19    1
    19    19    20    1
    20    20    21    1
    21    21    22    1
    22    22    23    1
    23    14    24   ar
    24    24    25   ar
    25    25    26    1
    26     9     5   ar
    27    25    10   ar
    28    23    18    1
    29     4    27    1
    30     7    28    1
    31     8    29    1
    32    11    30    1
    33    15    31    1
    34    16    32    1
    35    16    33    1
    36    17    34    1
    37    17    35    1
    38    18    36    1
    39    19    37    1
    40    19    38    1
    41    20    39    1
    42    20    40    1
    43    21    41    1
    44    22    42    1
    45    22    43    1
    46    23    44    1
    47    23    45    1
    48    24    46    1
