@<TRIPOS>MOLECULE
*****
 53 55 0 0 0
SMALL
GASTEIGER

@<TRIPOS>ATOM
      1 C          -1.6986    1.9599   -1.9283 C.3     1  UNL1       -0.0464
      2 C          -1.5455    0.4551   -1.8509 C.3     1  UNL1        0.0448
      3 C          -2.8764   -0.1802   -1.5406 C.3     1  UNL1        0.0292
      4 N          -3.1369   -0.3725   -0.1419 N.pl3   1  UNL1       -0.3266
      5 C          -4.4668   -0.4826    0.3365 C.ar    1  UNL1        0.0417
      6 C          -5.0037   -1.7714    0.5399 C.ar    1  UNL1       -0.0374
      7 C          -6.2742   -2.0041    0.9866 C.ar    1  UNL1       -0.0247
      8 C          -7.0859   -0.9311    1.2570 C.ar    1  UNL1        0.1241
      9 F          -8.3423   -1.1396    1.6983 F       1  UNL1       -0.2055
     10 C          -6.5898    0.3319    1.0685 C.ar    1  UNL1       -0.0130
     11 C          -5.2885    0.5903    0.6110 C.ar    1  UNL1        0.0785
     12 C          -4.8204    1.9762    0.4430 C.3     1  UNL1        0.4192
     13 F          -5.8697    2.8166    0.8741 F       1  UNL1       -0.1658
     14 F          -4.6392    2.3550   -0.8772 F       1  UNL1       -0.1658
     15 F          -3.7472    2.2546    1.2477 F       1  UNL1       -0.1658
     16 C          -1.9782   -0.4588    0.7622 C.3     1  UNL1        0.0267
     17 C          -0.8334   -1.0036   -0.1133 C.3     1  UNL1        0.0366
     18 N          -0.4869    0.0452   -0.9986 N.3     1  UNL1       -0.1703
     19 S           1.0185   -0.0250   -1.7534 S.O2    1  UNL1        0.0674
     20 O           1.0905    1.1588   -2.7178 O.2     1  UNL1       -0.1523
     21 O           1.1129   -1.2448   -2.6418 O.2     1  UNL1       -0.1523
     22 C           2.3739    0.0213   -0.6501 C.ar    1  UNL1        0.1430
     23 C           2.4666    0.1833    0.7126 C.ar    1  UNL1       -0.0277
     24 C           3.6907    0.1882    1.2580 C.ar    1  UNL1       -0.0461
     25 C           4.8019    0.0433    0.5273 C.ar    1  UNL1        0.0408
     26 C           6.2188    0.0029    0.8091 C.3     1  UNL1        0.2681
     27 O           6.4745   -0.2094    2.1579 O.3     1  UNL1       -0.3679
     28 C           6.8215   -1.1145    0.0418 C.2     1  UNL1        0.2565
     29 N           7.5029   -2.1373    0.7158 N.am    1  UNL1       -0.3264
     30 O           6.7428   -1.1813   -1.2193 O.2     1  UNL1       -0.2721
     31 C           6.9155    1.2820    0.3901 C.3     1  UNL1        0.4316
     32 F           8.2684    1.2288    0.6655 F       1  UNL1       -0.1667
     33 F           6.7935    1.5078   -0.9650 F       1  UNL1       -0.1667
     34 F           6.4104    2.3641    1.1052 F       1  UNL1       -0.1667
     35 S           4.0837   -0.1259   -1.1564 S.2     1  UNL1       -0.0698
     36 H          -1.8866    2.4174   -0.9436 H       1  UNL1        0.0246
     37 H          -0.8235    2.4467   -2.3806 H       1  UNL1        0.0246
     38 H          -2.5735    2.1561   -2.6028 H       1  UNL1        0.0246
     39 H          -1.2784    0.1311   -2.8885 H       1  UNL1        0.0493
     40 H          -2.8065   -1.2324   -2.0031 H       1  UNL1        0.0479
     41 H          -3.6783    0.2942   -2.1171 H       1  UNL1        0.0479
     42 H          -4.3587   -2.6338    0.3251 H       1  UNL1        0.0637
     43 H          -6.6247   -3.0413    1.1217 H       1  UNL1        0.0647
     44 H          -7.2262    1.2040    1.2799 H       1  UNL1        0.0652
     45 H          -2.1692   -1.0895    1.6278 H       1  UNL1        0.0477
     46 H          -1.6548    0.5615    1.0526 H       1  UNL1        0.0477
     47 H          -1.2345   -1.9128   -0.6636 H       1  UNL1        0.0459
     48 H          -0.0153   -1.2939    0.5517 H       1  UNL1        0.0459
     49 H           1.5064    0.3107    1.2788 H       1  UNL1        0.0643
     50 H           3.8057    0.3193    2.3807 H       1  UNL1        0.0627
     51 H           7.4035    0.0499    2.4024 H       1  UNL1        0.2116
     52 H           8.1238   -1.9276    1.5323 H       1  UNL1        0.1450
     53 H           7.3876   -3.1426    0.3928 H       1  UNL1        0.1450
@<TRIPOS>BOND
     1     1     2    1
     2     2     3    1
     3     3     4    1
     4     4     5    1
     5     5     6   ar
     6     6     7   ar
     7     7     8   ar
     8     8     9    1
     9     8    10   ar
    10    10    11   ar
    11    11    12    1
    12    12    13    1
    13    12    14    1
    14    12    15    1
    15     4    16    1
    16    16    17    1
    17    17    18    1
    18    18    19    1
    19    19    20    2
    20    19    21    2
    21    19    22    1
    22    22    23   ar
    23    23    24   ar
    24    24    25   ar
    25    25    26    1
    26    26    27    1
    27    26    28    1
    28    28    29   am
    29    28    30    2
    30    26    31    1
    31    31    32    1
    32    31    33    1
    33    31    34    1
    34    25    35   ar
    35    18     2    1
    36    35    22   ar
    37    11     5   ar
    38     1    36    1
    39     1    37    1
    40     1    38    1
    41     2    39    1
    42     3    40    1
    43     3    41    1
    44     6    42    1
    45     7    43    1
    46    10    44    1
    47    16    45    1
    48    16    46    1
    49    17    47    1
    50    17    48    1
    51    23    49    1
    52    24    50    1
    53    27    51    1
    54    29    52    1
    55    29    53    1
