
     RDKit          3D

 53 55  0  0  0  0  0  0  0  0999 V2000
   -1.6986    1.9599   -1.9283 C   0  0  0  0  0  0  0  0  0  0  0  0
   -1.5455    0.4551   -1.8509 C   0  0  2  0  0  0  0  0  0  0  0  0
   -2.8764   -0.1802   -1.5406 C   0  0  0  0  0  0  0  0  0  0  0  0
   -3.1369   -0.3725   -0.1419 N   0  0  0  0  0  0  0  0  0  0  0  0
   -4.4668   -0.4826    0.3365 C   0  0  0  0  0  0  0  0  0  0  0  0
   -5.0037   -1.7714    0.5399 C   0  0  0  0  0  0  0  0  0  0  0  0
   -6.2742   -2.0041    0.9866 C   0  0  0  0  0  0  0  0  0  0  0  0
   -7.0859   -0.9311    1.2570 C   0  0  0  0  0  0  0  0  0  0  0  0
   -8.3423   -1.1396    1.6983 F   0  0  0  0  0  0  0  0  0  0  0  0
   -6.5898    0.3319    1.0685 C   0  0  0  0  0  0  0  0  0  0  0  0
   -5.2885    0.5903    0.6110 C   0  0  0  0  0  0  0  0  0  0  0  0
   -4.8204    1.9762    0.4430 C   0  0  0  0  0  0  0  0  0  0  0  0
   -5.8697    2.8166    0.8741 F   0  0  0  0  0  0  0  0  0  0  0  0
   -4.6392    2.3550   -0.8772 F   0  0  0  0  0  0  0  0  0  0  0  0
   -3.7472    2.2546    1.2477 F   0  0  0  0  0  0  0  0  0  0  0  0
   -1.9782   -0.4588    0.7622 C   0  0  0  0  0  0  0  0  0  0  0  0
   -0.8334   -1.0036   -0.1133 C   0  0  0  0  0  0  0  0  0  0  0  0
   -0.4869    0.0452   -0.9986 N   0  0  0  0  0  0  0  0  0  0  0  0
    1.0185   -0.0250   -1.7534 S   0  0  0  0  0  6  0  0  0  0  0  0
    1.0905    1.1588   -2.7178 O   0  0  0  0  0  0  0  0  0  0  0  0
    1.1129   -1.2448   -2.6418 O   0  0  0  0  0  0  0  0  0  0  0  0
    2.3739    0.0213   -0.6501 C   0  0  0  0  0  0  0  0  0  0  0  0
    2.4666    0.1833    0.7126 C   0  0  0  0  0  0  0  0  0  0  0  0
    3.6907    0.1882    1.2580 C   0  0  0  0  0  0  0  0  0  0  0  0
    4.8019    0.0433    0.5273 C   0  0  0  0  0  0  0  0  0  0  0  0
    6.2188    0.0029    0.8091 C   0  0  1  0  0  0  0  0  0  0  0  0
    6.4745   -0.2094    2.1579 O   0  0  0  0  0  0  0  0  0  0  0  0
    6.8215   -1.1145    0.0418 C   0  0  0  0  0  0  0  0  0  0  0  0
    7.5029   -2.1373    0.7158 N   0  0  0  0  0  0  0  0  0  0  0  0
    6.7428   -1.1813   -1.2193 O   0  0  0  0  0  0  0  0  0  0  0  0
    6.9155    1.2820    0.3901 C   0  0  0  0  0  0  0  0  0  0  0  0
    8.2684    1.2288    0.6655 F   0  0  0  0  0  0  0  0  0  0  0  0
    6.7935    1.5078   -0.9650 F   0  0  0  0  0  0  0  0  0  0  0  0
    6.4104    2.3641    1.1052 F   0  0  0  0  0  0  0  0  0  0  0  0
    4.0837   -0.1259   -1.1564 S   0  0  0  0  0  0  0  0  0  0  0  0
   -1.8866    2.4174   -0.9436 H   0  0  0  0  0  0  0  0  0  0  0  0
   -0.8235    2.4467   -2.3806 H   0  0  0  0  0  0  0  0  0  0  0  0
   -2.5735    2.1561   -2.6028 H   0  0  0  0  0  0  0  0  0  0  0  0
   -1.2784    0.1311   -2.8885 H   0  0  0  0  0  0  0  0  0  0  0  0
   -2.8065   -1.2324   -2.0031 H   0  0  0  0  0  0  0  0  0  0  0  0
   -3.6783    0.2942   -2.1171 H   0  0  0  0  0  0  0  0  0  0  0  0
   -4.3587   -2.6338    0.3251 H   0  0  0  0  0  0  0  0  0  0  0  0
   -6.6247   -3.0413    1.1217 H   0  0  0  0  0  0  0  0  0  0  0  0
   -7.2262    1.2040    1.2799 H   0  0  0  0  0  0  0  0  0  0  0  0
   -2.1692   -1.0895    1.6278 H   0  0  0  0  0  0  0  0  0  0  0  0
   -1.6548    0.5615    1.0526 H   0  0  0  0  0  0  0  0  0  0  0  0
   -1.2345   -1.9128   -0.6636 H   0  0  0  0  0  0  0  0  0  0  0  0
   -0.0153   -1.2939    0.5517 H   0  0  0  0  0  0  0  0  0  0  0  0
    1.5064    0.3107    1.2788 H   0  0  0  0  0  0  0  0  0  0  0  0
    3.8057    0.3193    2.3807 H   0  0  0  0  0  0  0  0  0  0  0  0
    7.4035    0.0499    2.4024 H   0  0  0  0  0  0  0  0  0  0  0  0
    8.1238   -1.9276    1.5323 H   0  0  0  0  0  0  0  0  0  0  0  0
    7.3876   -3.1426    0.3928 H   0  0  0  0  0  0  0  0  0  0  0  0
  1  2  1  0
  2  3  1  0
  3  4  1  0
  4  5  1  0
  5  6  2  0
  6  7  1  0
  7  8  2  0
  8  9  1  0
  8 10  1  0
 10 11  2  0
 11 12  1  0
 12 13  1  0
 12 14  1  0
 12 15  1  0
  4 16  1  0
 16 17  1  0
 17 18  1  0
 18 19  1  0
 19 20  2  0
 19 21  2  0
 19 22  1  0
 22 23  2  0
 23 24  1  0
 24 25  2  0
 25 26  1  0
 26 27  1  1
 26 28  1  0
 28 29  1  0
 28 30  2  0
 26 31  1  0
 31 32  1  0
 31 33  1  0
 31 34  1  0
 25 35  1  0
 18  2  1  0
 35 22  1  0
 11  5  1  0
  1 36  1  0
  1 37  1  0
  1 38  1  0
  2 39  1  6
  3 40  1  0
  3 41  1  0
  6 42  1  0
  7 43  1  0
 10 44  1  0
 16 45  1  0
 16 46  1  0
 17 47  1  0
 17 48  1  0
 23 49  1  0
 24 50  1  0
 27 51  1  0
 29 52  1  0
 29 53  1  0
M  END
$$$$
