@<TRIPOS>MOLECULE
*****
 37 38 0 0 0
SMALL
GASTEIGER

@<TRIPOS>ATOM
      1 N          -2.2290    2.3854    0.8403 N.1     1  UNL1       -0.1908
      2 C          -3.1208    1.6760    0.6400 C.1     1  UNL1        0.1010
      3 C          -4.2354    0.8067    0.3862 C.ar    1  UNL1        0.0765
      4 C          -5.5419    1.2039    0.5641 C.ar    1  UNL1        0.0601
      5 CL         -5.8977    2.8214    1.1193 Cl      1  UNL1       -0.0822
      6 C          -6.5868    0.3444    0.3110 C.ar    1  UNL1       -0.0238
      7 C          -6.3780   -0.9550   -0.1326 C.ar    1  UNL1        0.0428
      8 CL         -7.7120   -2.0405   -0.4518 Cl      1  UNL1       -0.0835
      9 C          -5.0590   -1.3474   -0.3093 C.ar    1  UNL1       -0.0357
     10 C          -3.9959   -0.4899   -0.0574 C.ar    1  UNL1        0.0097
     11 C          -2.6430   -1.0043   -0.2759 C.3     1  UNL1        0.1159
     12 O          -1.6256   -0.0988    0.0020 O.3     1  UNL1       -0.4873
     13 C          -0.3100   -0.5045   -0.1782 C.ar    1  UNL1        0.1217
     14 C           0.0167   -1.7758   -0.6238 C.ar    1  UNL1       -0.0199
     15 C           1.2957   -2.2122   -0.8133 C.ar    1  UNL1       -0.0576
     16 C           2.3290   -1.3303   -0.5437 C.ar    1  UNL1       -0.0510
     17 C           2.0811   -0.0442   -0.0955 C.ar    1  UNL1        0.0213
     18 C           3.1707    0.8675    0.1831 C.2     1  UNL1        0.1709
     19 O           2.9036    2.0294    0.5897 O.2     1  UNL1       -0.2916
     20 C           4.5653    0.4605    0.0003 C.3     1  UNL1        0.0801
     21 C           5.5354    1.5118    0.3344 C.2     1  UNL1        0.2465
     22 O           5.1000    2.6224    0.7311 O.2     1  UNL1       -0.2847
     23 C           6.9690    1.3046    0.2198 C.2     1  UNL1        0.3731
     24 O           7.3883    0.1883   -0.1784 O.2     1  UNL1       -0.2419
     25 O           7.8477    2.3165    0.5430 O.3     1  UNL1       -0.4751
     26 C           0.7602    0.3384    0.0769 C.ar    1  UNL1       -0.0094
     27 H          -7.5927    0.6716    0.4551 H       1  UNL1        0.0647
     28 H          -4.8630   -2.3535   -0.6539 H       1  UNL1        0.0636
     29 H          -2.5459   -1.4250   -1.2978 H       1  UNL1        0.0748
     30 H          -2.5128   -1.8879    0.4124 H       1  UNL1        0.0748
     31 H          -0.8213   -2.4422   -0.8257 H       1  UNL1        0.0654
     32 H           1.4934   -3.2039   -1.1591 H       1  UNL1        0.0619
     33 H           3.3445   -1.6988   -0.7017 H       1  UNL1        0.0625
     34 H           4.8032   -0.4205    0.6591 H       1  UNL1        0.0428
     35 H           4.6734    0.0782   -1.0375 H       1  UNL1        0.0428
     36 H           8.8137    2.2730    0.2487 H       1  UNL1        0.2955
     37 H           0.5799    1.3345    0.4235 H       1  UNL1        0.0661
@<TRIPOS>BOND
     1     1     2    3
     2     2     3    1
     3     3     4   ar
     4     4     5    1
     5     4     6   ar
     6     6     7   ar
     7     7     8    1
     8     7     9   ar
     9     9    10   ar
    10    10    11    1
    11    11    12    1
    12    12    13    1
    13    13    14   ar
    14    14    15   ar
    15    15    16   ar
    16    16    17   ar
    17    17    18    1
    18    18    19    2
    19    18    20    1
    20    20    21    1
    21    21    22    2
    22    21    23    1
    23    23    24    2
    24    23    25    1
    25    17    26   ar
    26    10     3   ar
    27    26    13   ar
    28     6    27    1
    29     9    28    1
    30    11    29    1
    31    11    30    1
    32    14    31    1
    33    15    32    1
    34    16    33    1
    35    20    34    1
    36    20    35    1
    37    25    36    1
    38    26    37    1
