@<TRIPOS>MOLECULE
*****
 37 39 0 0 0
SMALL
GASTEIGER

@<TRIPOS>ATOM
      1 C          -1.6944   -0.5049   -0.8412 C.3     1  UNL1        0.1134
      2 C          -2.8345   -0.6668    0.1088 C.3     1  UNL1        0.0878
      3 O          -3.3724    0.5987    0.3346 O.3     1  UNL1       -0.2841
      4 P          -4.6678    0.5947    1.3847 P.3     1  UNL1        0.4724
      5 O          -5.8111    1.7897    0.9449 O.3     1  UNL1       -0.3026
      6 O          -4.1714    0.8043    2.9886 O.3     1  UNL1       -0.3026
      7 O          -5.4386   -0.7128    1.3469 O.2     1  UNL1       -0.2275
      8 O          -0.6829    0.3269   -0.3640 O.3     1  UNL1       -0.3456
      9 C           0.3156    0.2209   -1.3133 C.3     1  UNL1        0.1676
     10 N           1.6353    0.5316   -0.8381 N.ar    1  UNL1       -0.2736
     11 C           2.5829    1.1703   -1.5833 C.ar    1  UNL1        0.1821
     12 BR          2.4103    1.7949   -3.3841 Br      1  UNL1       -0.0080
     13 N           3.7120    1.3165   -0.8643 N.ar    1  UNL1       -0.2163
     14 C           3.5319    0.7824    0.3561 C.ar    1  UNL1        0.1485
     15 C           4.3491    0.6652    1.4593 C.ar    1  UNL1        0.1472
     16 N           5.6705    1.1803    1.4017 N.pl3   1  UNL1       -0.3413
     17 N           3.8136    0.0479    2.5502 N.ar    1  UNL1       -0.2188
     18 C           2.5410   -0.4167    2.5235 C.ar    1  UNL1        0.1205
     19 N           1.7321   -0.3110    1.4584 N.ar    1  UNL1       -0.2159
     20 C           2.2294    0.2999    0.3468 C.ar    1  UNL1        0.1682
     21 C           0.2103   -1.1813   -1.8994 C.3     1  UNL1        0.1286
     22 O          -0.3089   -1.1354   -3.1871 O.3     1  UNL1       -0.3847
     23 C          -0.8762   -1.7732   -1.0189 C.3     1  UNL1        0.1135
     24 O          -1.5810   -2.7550   -1.6973 O.3     1  UNL1       -0.3864
     25 H          -2.0080   -0.1049   -1.8222 H       1  UNL1        0.0647
     26 H          -2.5737   -1.1680    1.0431 H       1  UNL1        0.0592
     27 H          -3.6305   -1.2279   -0.4321 H       1  UNL1        0.0592
     28 H          -5.3361    2.5496    0.5380 H       1  UNL1        0.2220
     29 H          -3.2733    0.4420    3.1234 H       1  UNL1        0.2220
     30 H           0.0385    0.9496   -2.1269 H       1  UNL1        0.0867
     31 H           6.3789    0.5438    0.9759 H       1  UNL1        0.1438
     32 H           5.6558    2.1450    1.8223 H       1  UNL1        0.1438
     33 H           2.2709   -0.8846    3.4828 H       1  UNL1        0.1048
     34 H           1.1621   -1.7284   -1.8335 H       1  UNL1        0.0665
     35 H           0.2222   -0.5581   -3.7902 H       1  UNL1        0.2101
     36 H          -0.5259   -2.0838   -0.0328 H       1  UNL1        0.0647
     37 H          -1.6756   -3.5819   -1.1615 H       1  UNL1        0.2100
@<TRIPOS>BOND
     1     1     2    1
     2     2     3    1
     3     3     4    1
     4     4     5    1
     5     4     6    1
     6     4     7    2
     7     1     8    1
     8     8     9    1
     9     9    10    1
    10    10    11   ar
    11    11    12    1
    12    11    13   ar
    13    13    14   ar
    14    14    15   ar
    15    15    16    1
    16    15    17   ar
    17    17    18   ar
    18    18    19   ar
    19    19    20   ar
    20     9    21    1
    21    21    22    1
    22    21    23    1
    23    23    24    1
    24    23     1    1
    25    20    10   ar
    26    20    14   ar
    27     1    25    1
    28     2    26    1
    29     2    27    1
    30     5    28    1
    31     6    29    1
    32     9    30    1
    33    16    31    1
    34    16    32    1
    35    18    33    1
    36    21    34    1
    37    22    35    1
    38    23    36    1
    39    24    37    1
