@<TRIPOS>MOLECULE
*****
 75 76 0 0 0
SMALL
GASTEIGER

@<TRIPOS>ATOM
      1 C          -4.9992    0.1129    2.7720 C.3     1  UNL1       -0.0617
      2 C          -4.4905   -1.3096    2.7234 C.3     1  UNL1       -0.0162
      3 C          -3.8331   -1.6249    1.3965 C.3     1  UNL1        0.1077
      4 C          -3.3561   -3.0570    1.4339 C.3     1  UNL1       -0.0251
      5 C          -4.7754   -1.4766    0.2429 C.3     1  UNL1       -0.0251
      6 O          -2.7471   -0.7359    1.2120 O.3     1  UNL1       -0.4582
      7 C          -1.9270   -0.7515    0.0976 C.2     1  UNL1        0.3155
      8 O          -2.2545   -1.6571   -0.7500 O.2     1  UNL1       -0.2501
      9 C          -0.8027    0.1561   -0.1119 C.3     1  UNL1        0.0876
     10 C          -0.0773   -0.0608   -1.3689 C.ar    1  UNL1        0.0088
     11 C          -0.6991   -0.2693   -2.5802 C.ar    1  UNL1       -0.0514
     12 C           0.0037   -0.3876   -3.7789 C.ar    1  UNL1       -0.0497
     13 C          -0.7333   -0.6125   -5.0471 C.3     1  UNL1       -0.0397
     14 C           1.3740   -0.2926   -3.7605 C.ar    1  UNL1       -0.0524
     15 C           2.0321   -0.0823   -2.5447 C.ar    1  UNL1       -0.0082
     16 C           3.4958    0.0975   -2.6660 C.3     1  UNL1       -0.0362
     17 C           1.3230    0.0248   -1.3893 C.ar    1  UNL1        0.1275
     18 O           1.9592    0.2157   -0.1967 O.3     1  UNL1       -0.4889
     19 C           2.3614   -0.8236    0.6467 C.3     1  UNL1        0.1155
     20 C           3.3439   -1.8105    0.1873 C.3     1  UNL1        0.0915
     21 O           2.9107   -2.5174   -0.9664 O.3     1  UNL1       -0.3883
     22 C           4.7881   -1.6009    0.2240 C.3     1  UNL1        0.0028
     23 C           5.5041   -1.4138    1.5067 C.3     1  UNL1        0.0628
     24 O           6.9057   -1.2791    1.2033 O.3     1  UNL1       -0.3913
     25 C           5.1608   -0.2916    2.4043 C.3     1  UNL1        0.0130
     26 C           5.3268    1.0409    1.7885 C.2     1  UNL1        0.0442
     27 O           4.4154    1.5561    1.1173 O.co2   1  UNL1       -0.5497
     28 O           6.4959    1.7979    1.9156 O.co2   1  UNL1       -0.5497
     29 C          -1.1477    1.6354   -0.0139 C.3     1  UNL1       -0.0239
     30 C          -2.1634    2.1258   -0.9671 C.3     1  UNL1       -0.0491
     31 C          -2.2252    3.6355   -0.9118 C.3     1  UNL1       -0.0528
     32 C          -1.5639    4.2164    0.3176 C.3     1  UNL1       -0.0530
     33 C          -2.0059    3.4372    1.5157 C.3     1  UNL1       -0.0528
     34 C          -1.4599    2.0506    1.4054 C.3     1  UNL1       -0.0491
     35 H          -6.1059    0.1645    2.5941 H       1  UNL1        0.0231
     36 H          -4.8727    0.4442    3.8434 H       1  UNL1        0.0231
     37 H          -4.4752    0.7849    2.0799 H       1  UNL1        0.0231
     38 H          -3.8645   -1.5941    3.5736 H       1  UNL1        0.0301
     39 H          -5.4052   -1.9698    2.7820 H       1  UNL1        0.0301
     40 H          -2.2599   -3.1378    1.6404 H       1  UNL1        0.0268
     41 H          -3.6332   -3.5957    0.4992 H       1  UNL1        0.0268
     42 H          -3.8559   -3.6063    2.2615 H       1  UNL1        0.0268
     43 H          -4.6147   -0.4750   -0.2506 H       1  UNL1        0.0268
     44 H          -5.8403   -1.5011    0.5153 H       1  UNL1        0.0268
     45 H          -4.5753   -2.2298   -0.5412 H       1  UNL1        0.0268
     46 H          -0.1082    0.0002    0.7411 H       1  UNL1        0.0466
     47 H          -1.7724   -0.3553   -2.5923 H       1  UNL1        0.0624
     48 H          -1.0399   -1.6667   -5.1789 H       1  UNL1        0.0278
     49 H          -1.6787   -0.0212   -4.9713 H       1  UNL1        0.0278
     50 H          -0.1943   -0.2070   -5.9280 H       1  UNL1        0.0278
     51 H           1.9049   -0.3849   -4.6978 H       1  UNL1        0.0624
     52 H           3.7427    0.6888   -3.5910 H       1  UNL1        0.0279
     53 H           3.8143    0.7872   -1.8367 H       1  UNL1        0.0279
     54 H           4.0988   -0.7971   -2.6340 H       1  UNL1        0.0279
     55 H           1.4241   -1.4788    0.8979 H       1  UNL1        0.0723
     56 H           2.6264   -0.4519    1.6611 H       1  UNL1        0.0723
     57 H           3.1951   -2.6963    0.9807 H       1  UNL1        0.0628
     58 H           3.6854   -3.1084   -1.2230 H       1  UNL1        0.2099
     59 H           4.9981   -0.6713   -0.4257 H       1  UNL1        0.0316
     60 H           5.3141   -2.4415   -0.3704 H       1  UNL1        0.0316
     61 H           5.4918   -2.3544    2.1312 H       1  UNL1        0.0598
     62 H           7.3576   -1.2864    2.0878 H       1  UNL1        0.2098
     63 H           6.0122   -0.3147    3.2004 H       1  UNL1        0.0350
     64 H           4.2814   -0.4358    3.0238 H       1  UNL1        0.0350
     65 H          -0.1920    2.2066   -0.2594 H       1  UNL1        0.0312
     66 H          -1.8319    1.8835   -2.0197 H       1  UNL1        0.0268
     67 H          -3.1776    1.6839   -0.7904 H       1  UNL1        0.0268
     68 H          -1.6675    4.0335   -1.7812 H       1  UNL1        0.0265
     69 H          -3.2672    4.0021   -1.0322 H       1  UNL1        0.0265
     70 H          -1.8421    5.2853    0.3540 H       1  UNL1        0.0265
     71 H          -0.4596    4.1623    0.2464 H       1  UNL1        0.0265
     72 H          -3.1115    3.3473    1.5813 H       1  UNL1        0.0265
     73 H          -1.5788    3.9176    2.4187 H       1  UNL1        0.0265
     74 H          -2.1446    1.3345    1.9173 H       1  UNL1        0.0268
     75 H          -0.5173    2.0070    2.0355 H       1  UNL1        0.0268
@<TRIPOS>UNITY_ATOM_ATTR
28 1
charge -1
@<TRIPOS>BOND
     1     1     2    1
     2     2     3    1
     3     3     4    1
     4     3     5    1
     5     3     6    1
     6     6     7    1
     7     7     8    2
     8     7     9    1
     9     9    10    1
    10    10    11   ar
    11    11    12   ar
    12    12    13    1
    13    12    14   ar
    14    14    15   ar
    15    15    16    1
    16    15    17   ar
    17    17    18    1
    18    18    19    1
    19    19    20    1
    20    20    21    1
    21    20    22    1
    22    22    23    1
    23    23    24    1
    24    23    25    1
    25    25    26    1
    26    26    27   ar
    27    26    28   ar
    28     9    29    1
    29    29    30    1
    30    30    31    1
    31    31    32    1
    32    32    33    1
    33    33    34    1
    34    17    10   ar
    35    34    29    1
    36     1    35    1
    37     1    36    1
    38     1    37    1
    39     2    38    1
    40     2    39    1
    41     4    40    1
    42     4    41    1
    43     4    42    1
    44     5    43    1
    45     5    44    1
    46     5    45    1
    47     9    46    1
    48    11    47    1
    49    13    48    1
    50    13    49    1
    51    13    50    1
    52    14    51    1
    53    16    52    1
    54    16    53    1
    55    16    54    1
    56    19    55    1
    57    19    56    1
    58    20    57    1
    59    21    58    1
    60    22    59    1
    61    22    60    1
    62    23    61    1
    63    24    62    1
    64    25    63    1
    65    25    64    1
    66    29    65    1
    67    30    66    1
    68    30    67    1
    69    31    68    1
    70    31    69    1
    71    32    70    1
    72    32    71    1
    73    33    72    1
    74    33    73    1
    75    34    74    1
    76    34    75    1
