@<TRIPOS>MOLECULE
*****
 43 46 0 0 0
SMALL
GASTEIGER

@<TRIPOS>ATOM
      1 N           8.0302    3.1801    3.8346 N.1     1  UNL1       -0.1908
      2 C           7.1084    2.6015    3.4520 C.1     1  UNL1        0.1007
      3 C           5.9319    1.8922    2.9759 C.ar    1  UNL1        0.0699
      4 C           6.0286    0.7011    2.2854 C.ar    1  UNL1       -0.0407
      5 C           4.8911    0.0517    1.8463 C.ar    1  UNL1       -0.0300
      6 C           3.6432    0.5821    2.0904 C.ar    1  UNL1        0.1257
      7 C           2.4211   -0.0880    1.6347 C.2     1  UNL1        0.2666
      8 O           2.5403   -1.1665    1.0112 O.2     1  UNL1       -0.2682
      9 N           1.1531    0.4589    1.8873 N.am    1  UNL1       -0.2802
     10 C          -0.0111   -0.2233    1.4276 C.ar    1  UNL1        0.0369
     11 C          -0.6514   -1.1587    2.2088 C.ar    1  UNL1       -0.0023
     12 C          -1.7738   -1.8142    1.7617 C.ar    1  UNL1        0.1605
     13 F          -2.3981   -2.7324    2.5345 F       1  UNL1       -0.2024
     14 C          -2.2536   -1.5200    0.5104 C.ar    1  UNL1        0.1641
     15 F          -3.3612   -2.1471    0.0329 F       1  UNL1       -0.2021
     16 C          -1.6545   -0.5834   -0.3336 C.ar    1  UNL1        0.0227
     17 C          -2.2346   -0.3323   -1.6775 C.3     1  UNL1        0.1285
     18 C          -1.4217    0.6757   -2.4435 C.3     1  UNL1        0.1199
     19 F          -1.3933    1.8942   -1.8005 F       1  UNL1       -0.2462
     20 N          -2.1848   -1.6068   -2.4031 N.2     1  UNL1       -0.2225
     21 C          -2.9233   -1.8145   -3.4397 C.2     1  UNL1        0.2763
     22 N          -2.9067   -3.0313   -4.1708 N.pl3   1  UNL1       -0.3134
     23 O          -3.7585   -0.7386   -3.8023 O.2     1  UNL1       -0.4622
     24 C          -4.4393   -0.0077   -2.8018 C.3     1  UNL1        0.1090
     25 C          -4.0142    1.3557   -2.3903 C.3     1  UNL1       -0.0065
     26 C          -3.6540    0.1570   -1.5614 C.3     1  UNL1        0.0315
     27 C          -0.5352    0.0456    0.1574 C.ar    1  UNL1       -0.0320
     28 N           3.5528    1.7488    2.7669 N.ar    1  UNL1       -0.2491
     29 C           4.6611    2.3824    3.1952 C.ar    1  UNL1        0.0458
     30 H           7.0053    0.2899    2.0967 H       1  UNL1        0.0631
     31 H           4.9441   -0.8782    1.3061 H       1  UNL1        0.0641
     32 H           1.0966    1.3610    2.4111 H       1  UNL1        0.1552
     33 H          -0.2190   -1.3455    3.1921 H       1  UNL1        0.0666
     34 H          -1.7698    0.7952   -3.4850 H       1  UNL1        0.0643
     35 H          -0.3625    0.2903   -2.5666 H       1  UNL1        0.0643
     36 H          -2.3988   -3.1947   -5.0646 H       1  UNL1        0.1466
     37 H          -3.4475   -3.8333   -3.7847 H       1  UNL1        0.1466
     38 H          -5.5099   -0.2278   -2.7245 H       1  UNL1        0.0737
     39 H          -3.3196    1.8763   -3.0410 H       1  UNL1        0.0306
     40 H          -4.8052    2.0201   -1.9487 H       1  UNL1        0.0306
     41 H          -4.1839   -0.0073   -0.6211 H       1  UNL1        0.0365
     42 H          -0.0175    0.7740   -0.4380 H       1  UNL1        0.0640
     43 H           4.5954    3.3176    3.7378 H       1  UNL1        0.0843
@<TRIPOS>BOND
     1     1     2    3
     2     2     3    1
     3     3     4   ar
     4     4     5   ar
     5     5     6   ar
     6     6     7    1
     7     7     8    2
     8     7     9   am
     9     9    10    1
    10    10    11   ar
    11    11    12   ar
    12    12    13    1
    13    12    14   ar
    14    14    15    1
    15    14    16   ar
    16    16    17    1
    17    17    18    1
    18    18    19    1
    19    17    20    1
    20    20    21    2
    21    21    22    1
    22    21    23    1
    23    23    24    1
    24    24    25    1
    25    25    26    1
    26    16    27   ar
    27     6    28   ar
    28    28    29   ar
    29    29     3   ar
    30    27    10   ar
    31    26    17    1
    32    26    24    1
    33     4    30    1
    34     5    31    1
    35     9    32    1
    36    11    33    1
    37    18    34    1
    38    18    35    1
    39    22    36    1
    40    22    37    1
    41    24    38    1
    42    25    39    1
    43    25    40    1
    44    26    41    1
    45    27    42    1
    46    29    43    1
