@<TRIPOS>MOLECULE
*****
 70 73 0 0 0
SMALL
GASTEIGER

@<TRIPOS>ATOM
      1 C          -8.0827    0.4473   -0.4619 C.3     1  UNL1       -0.0128
      2 N          -7.1381    0.9349   -1.4010 N.3     1  UNL1       -0.3053
      3 C          -6.4433   -0.0274   -2.1739 C.3     1  UNL1       -0.0009
      4 C          -5.0759   -0.3697   -1.6843 C.3     1  UNL1       -0.0333
      5 C          -4.7189    0.5024   -0.5436 C.3     1  UNL1       -0.0134
      6 C          -3.4092    0.2244    0.0644 C.ar    1  UNL1       -0.0406
      7 C          -2.5121   -0.6913   -0.4748 C.ar    1  UNL1       -0.0563
      8 C          -1.2953   -0.9281    0.1304 C.ar    1  UNL1       -0.0366
      9 C          -0.9065   -0.2815    1.2824 C.ar    1  UNL1        0.0761
     10 N           0.3466   -0.5229    1.9044 N.pl3   1  UNL1       -0.2807
     11 C           1.2804   -1.5052    1.4546 C.ar    1  UNL1        0.2198
     12 N           1.2818   -2.7511    1.9777 N.ar    1  UNL1       -0.2221
     13 C           2.1418   -3.7024    1.5904 C.ar    1  UNL1        0.0446
     14 C           3.1005   -3.4525    0.6075 C.ar    1  UNL1        0.0942
     15 C           4.0056   -4.5115    0.1905 C.3     1  UNL1        0.4205
     16 F           3.9471   -4.8233   -1.1525 F       1  UNL1       -0.1658
     17 F           5.2866   -4.4587    0.6786 F       1  UNL1       -0.1658
     18 F           3.5058   -5.7166    0.7794 F       1  UNL1       -0.1658
     19 C           3.0983   -2.1979    0.0833 C.ar    1  UNL1        0.0583
     20 C           4.1152   -1.7973   -0.9298 C.3     1  UNL1       -0.0057
     21 C           5.3808   -1.3057   -0.3318 C.3     1  UNL1       -0.0220
     22 C           5.2820   -0.1404    0.5643 C.ar    1  UNL1       -0.0434
     23 C           5.1648   -0.3832    1.9503 C.ar    1  UNL1       -0.0583
     24 C           5.0728    0.6312    2.8711 C.ar    1  UNL1       -0.0615
     25 C           5.0921    1.9356    2.4670 C.ar    1  UNL1       -0.0615
     26 C           5.2044    2.2065    1.1273 C.ar    1  UNL1       -0.0579
     27 C           5.2992    1.1552    0.1774 C.ar    1  UNL1       -0.0355
     28 C           5.3953    1.5434   -1.2407 C.3     1  UNL1        0.0491
     29 C           4.0859    1.6612   -1.8918 C.2     1  UNL1        0.2148
     30 N           4.0148    1.9602   -3.2709 N.am    1  UNL1       -0.3291
     31 O           3.0391    1.5001   -1.2387 O.2     1  UNL1       -0.2757
     32 N           2.1938   -1.2536    0.5121 N.ar    1  UNL1       -0.2187
     33 C          -1.8013    0.6383    1.8261 C.ar    1  UNL1        0.1514
     34 O          -1.4706    1.3222    2.9804 O.3     1  UNL1       -0.4038
     35 C          -2.3235    2.2700    3.5831 C.3     1  UNL1        0.5753
     36 F          -2.5385    3.2814    2.6393 F       1  UNL1       -0.1328
     37 F          -1.7230    2.8739    4.6710 F       1  UNL1       -0.1328
     38 F          -3.5461    1.7236    3.9178 F       1  UNL1       -0.1328
     39 C          -3.0000    0.8660    1.2238 C.ar    1  UNL1       -0.0143
     40 C          -4.9385    1.9463   -0.9318 C.3     1  UNL1       -0.0333
     41 C          -6.4395    2.1238   -1.0676 C.3     1  UNL1       -0.0009
     42 H          -8.0398    0.9467    0.5411 H       1  UNL1        0.0391
     43 H          -8.0272   -0.6557   -0.3918 H       1  UNL1        0.0391
     44 H          -9.1136    0.6831   -0.8562 H       1  UNL1        0.0391
     45 H          -7.0330   -0.9796   -2.1639 H       1  UNL1        0.0427
     46 H          -6.3935    0.2792   -3.2586 H       1  UNL1        0.0427
     47 H          -4.3068   -0.2122   -2.4944 H       1  UNL1        0.0283
     48 H          -4.9512   -1.4596   -1.4215 H       1  UNL1        0.0283
     49 H          -5.4748    0.3314    0.2867 H       1  UNL1        0.0350
     50 H          -2.8049   -1.2129   -1.3892 H       1  UNL1        0.0621
     51 H          -0.6433   -1.6532   -0.3390 H       1  UNL1        0.0637
     52 H           0.6247    0.0372    2.7409 H       1  UNL1        0.1551
     53 H           2.1093   -4.7008    2.0447 H       1  UNL1        0.0837
     54 H           3.6669   -1.0392   -1.5646 H       1  UNL1        0.0331
     55 H           4.3030   -2.6587   -1.6449 H       1  UNL1        0.0331
     56 H           6.0511   -1.0430   -1.2297 H       1  UNL1        0.0317
     57 H           5.9880   -2.0534    0.2008 H       1  UNL1        0.0317
     58 H           5.1493   -1.4207    2.2579 H       1  UNL1        0.0620
     59 H           4.9831    0.4244    3.9389 H       1  UNL1        0.0618
     60 H           5.0171    2.7681    3.1921 H       1  UNL1        0.0618
     61 H           5.2227    3.2364    0.7634 H       1  UNL1        0.0620
     62 H           6.1074    0.9068   -1.8095 H       1  UNL1        0.0407
     63 H           5.8491    2.5806   -1.2893 H       1  UNL1        0.0407
     64 H           3.1001    2.2058   -3.7063 H       1  UNL1        0.1449
     65 H           4.8478    1.9499   -3.8953 H       1  UNL1        0.1449
     66 H          -3.7095    1.5847    1.6421 H       1  UNL1        0.0657
     67 H          -4.4976    2.1097   -1.9300 H       1  UNL1        0.0283
     68 H          -4.5132    2.6750   -0.2173 H       1  UNL1        0.0283
     69 H          -6.8145    2.5258   -0.1053 H       1  UNL1        0.0427
     70 H          -6.6683    2.9166   -1.8317 H       1  UNL1        0.0427
@<TRIPOS>BOND
     1     1     2    1
     2     2     3    1
     3     3     4    1
     4     4     5    1
     5     5     6    1
     6     6     7   ar
     7     7     8   ar
     8     8     9   ar
     9     9    10    1
    10    10    11    1
    11    11    12   ar
    12    12    13   ar
    13    13    14   ar
    14    14    15    1
    15    15    16    1
    16    15    17    1
    17    15    18    1
    18    14    19   ar
    19    19    20    1
    20    20    21    1
    21    21    22    1
    22    22    23   ar
    23    23    24   ar
    24    24    25   ar
    25    25    26   ar
    26    26    27   ar
    27    27    28    1
    28    28    29    1
    29    29    30   am
    30    29    31    2
    31    19    32   ar
    32     9    33   ar
    33    33    34    1
    34    34    35    1
    35    35    36    1
    36    35    37    1
    37    35    38    1
    38    33    39   ar
    39     5    40    1
    40    40    41    1
    41    41     2    1
    42    39     6   ar
    43    32    11   ar
    44    27    22   ar
    45     1    42    1
    46     1    43    1
    47     1    44    1
    48     3    45    1
    49     3    46    1
    50     4    47    1
    51     4    48    1
    52     5    49    1
    53     7    50    1
    54     8    51    1
    55    10    52    1
    56    13    53    1
    57    20    54    1
    58    20    55    1
    59    21    56    1
    60    21    57    1
    61    23    58    1
    62    24    59    1
    63    25    60    1
    64    26    61    1
    65    28    62    1
    66    28    63    1
    67    30    64    1
    68    30    65    1
    69    39    66    1
    70    40    67    1
    71    40    68    1
    72    41    69    1
    73    41    70    1
