
     RDKit          3D

 70 73  0  0  0  0  0  0  0  0999 V2000
   -8.0827    0.4473   -0.4619 C   0  0  0  0  0  0  0  0  0  0  0  0
   -7.1381    0.9349   -1.4010 N   0  0  0  0  0  0  0  0  0  0  0  0
   -6.4433   -0.0274   -2.1739 C   0  0  0  0  0  0  0  0  0  0  0  0
   -5.0759   -0.3697   -1.6843 C   0  0  0  0  0  0  0  0  0  0  0  0
   -4.7189    0.5024   -0.5436 C   0  0  0  0  0  0  0  0  0  0  0  0
   -3.4092    0.2244    0.0644 C   0  0  0  0  0  0  0  0  0  0  0  0
   -2.5121   -0.6913   -0.4748 C   0  0  0  0  0  0  0  0  0  0  0  0
   -1.2953   -0.9281    0.1304 C   0  0  0  0  0  0  0  0  0  0  0  0
   -0.9065   -0.2815    1.2824 C   0  0  0  0  0  0  0  0  0  0  0  0
    0.3466   -0.5229    1.9044 N   0  0  0  0  0  0  0  0  0  0  0  0
    1.2804   -1.5052    1.4546 C   0  0  0  0  0  0  0  0  0  0  0  0
    1.2818   -2.7511    1.9777 N   0  0  0  0  0  0  0  0  0  0  0  0
    2.1418   -3.7024    1.5904 C   0  0  0  0  0  0  0  0  0  0  0  0
    3.1005   -3.4525    0.6075 C   0  0  0  0  0  0  0  0  0  0  0  0
    4.0056   -4.5115    0.1905 C   0  0  0  0  0  0  0  0  0  0  0  0
    3.9471   -4.8233   -1.1525 F   0  0  0  0  0  0  0  0  0  0  0  0
    5.2866   -4.4587    0.6786 F   0  0  0  0  0  0  0  0  0  0  0  0
    3.5058   -5.7166    0.7794 F   0  0  0  0  0  0  0  0  0  0  0  0
    3.0983   -2.1979    0.0833 C   0  0  0  0  0  0  0  0  0  0  0  0
    4.1152   -1.7973   -0.9298 C   0  0  0  0  0  0  0  0  0  0  0  0
    5.3808   -1.3057   -0.3318 C   0  0  0  0  0  0  0  0  0  0  0  0
    5.2820   -0.1404    0.5643 C   0  0  0  0  0  0  0  0  0  0  0  0
    5.1648   -0.3832    1.9503 C   0  0  0  0  0  0  0  0  0  0  0  0
    5.0728    0.6312    2.8711 C   0  0  0  0  0  0  0  0  0  0  0  0
    5.0921    1.9356    2.4670 C   0  0  0  0  0  0  0  0  0  0  0  0
    5.2044    2.2065    1.1273 C   0  0  0  0  0  0  0  0  0  0  0  0
    5.2992    1.1552    0.1774 C   0  0  0  0  0  0  0  0  0  0  0  0
    5.3953    1.5434   -1.2407 C   0  0  0  0  0  0  0  0  0  0  0  0
    4.0859    1.6612   -1.8918 C   0  0  0  0  0  0  0  0  0  0  0  0
    4.0148    1.9602   -3.2709 N   0  0  0  0  0  0  0  0  0  0  0  0
    3.0391    1.5001   -1.2387 O   0  0  0  0  0  0  0  0  0  0  0  0
    2.1938   -1.2536    0.5121 N   0  0  0  0  0  0  0  0  0  0  0  0
   -1.8013    0.6383    1.8261 C   0  0  0  0  0  0  0  0  0  0  0  0
   -1.4706    1.3222    2.9804 O   0  0  0  0  0  0  0  0  0  0  0  0
   -2.3235    2.2700    3.5831 C   0  0  0  0  0  0  0  0  0  0  0  0
   -2.5385    3.2814    2.6393 F   0  0  0  0  0  0  0  0  0  0  0  0
   -1.7230    2.8739    4.6710 F   0  0  0  0  0  0  0  0  0  0  0  0
   -3.5461    1.7236    3.9178 F   0  0  0  0  0  0  0  0  0  0  0  0
   -3.0000    0.8660    1.2238 C   0  0  0  0  0  0  0  0  0  0  0  0
   -4.9385    1.9463   -0.9318 C   0  0  0  0  0  0  0  0  0  0  0  0
   -6.4395    2.1238   -1.0676 C   0  0  0  0  0  0  0  0  0  0  0  0
   -8.0398    0.9467    0.5411 H   0  0  0  0  0  0  0  0  0  0  0  0
   -8.0272   -0.6557   -0.3918 H   0  0  0  0  0  0  0  0  0  0  0  0
   -9.1136    0.6831   -0.8562 H   0  0  0  0  0  0  0  0  0  0  0  0
   -7.0330   -0.9796   -2.1639 H   0  0  0  0  0  0  0  0  0  0  0  0
   -6.3935    0.2792   -3.2586 H   0  0  0  0  0  0  0  0  0  0  0  0
   -4.3068   -0.2122   -2.4944 H   0  0  0  0  0  0  0  0  0  0  0  0
   -4.9512   -1.4596   -1.4215 H   0  0  0  0  0  0  0  0  0  0  0  0
   -5.4748    0.3314    0.2867 H   0  0  0  0  0  0  0  0  0  0  0  0
   -2.8049   -1.2129   -1.3892 H   0  0  0  0  0  0  0  0  0  0  0  0
   -0.6433   -1.6532   -0.3390 H   0  0  0  0  0  0  0  0  0  0  0  0
    0.6247    0.0372    2.7409 H   0  0  0  0  0  0  0  0  0  0  0  0
    2.1093   -4.7008    2.0447 H   0  0  0  0  0  0  0  0  0  0  0  0
    3.6669   -1.0392   -1.5646 H   0  0  0  0  0  0  0  0  0  0  0  0
    4.3030   -2.6587   -1.6449 H   0  0  0  0  0  0  0  0  0  0  0  0
    6.0511   -1.0430   -1.2297 H   0  0  0  0  0  0  0  0  0  0  0  0
    5.9880   -2.0534    0.2008 H   0  0  0  0  0  0  0  0  0  0  0  0
    5.1493   -1.4207    2.2579 H   0  0  0  0  0  0  0  0  0  0  0  0
    4.9831    0.4244    3.9389 H   0  0  0  0  0  0  0  0  0  0  0  0
    5.0171    2.7681    3.1921 H   0  0  0  0  0  0  0  0  0  0  0  0
    5.2227    3.2364    0.7634 H   0  0  0  0  0  0  0  0  0  0  0  0
    6.1074    0.9068   -1.8095 H   0  0  0  0  0  0  0  0  0  0  0  0
    5.8491    2.5806   -1.2893 H   0  0  0  0  0  0  0  0  0  0  0  0
    3.1001    2.2058   -3.7063 H   0  0  0  0  0  0  0  0  0  0  0  0
    4.8478    1.9499   -3.8953 H   0  0  0  0  0  0  0  0  0  0  0  0
   -3.7095    1.5847    1.6421 H   0  0  0  0  0  0  0  0  0  0  0  0
   -4.4976    2.1097   -1.9300 H   0  0  0  0  0  0  0  0  0  0  0  0
   -4.5132    2.6750   -0.2173 H   0  0  0  0  0  0  0  0  0  0  0  0
   -6.8145    2.5258   -0.1053 H   0  0  0  0  0  0  0  0  0  0  0  0
   -6.6683    2.9166   -1.8317 H   0  0  0  0  0  0  0  0  0  0  0  0
  1  2  1  0
  2  3  1  0
  3  4  1  0
  4  5  1  0
  5  6  1  0
  6  7  2  0
  7  8  1  0
  8  9  2  0
  9 10  1  0
 10 11  1  0
 11 12  2  0
 12 13  1  0
 13 14  2  0
 14 15  1  0
 15 16  1  0
 15 17  1  0
 15 18  1  0
 14 19  1  0
 19 20  1  0
 20 21  1  0
 21 22  1  0
 22 23  2  0
 23 24  1  0
 24 25  2  0
 25 26  1  0
 26 27  2  0
 27 28  1  0
 28 29  1  0
 29 30  1  0
 29 31  2  0
 19 32  2  0
  9 33  1  0
 33 34  1  0
 34 35  1  0
 35 36  1  0
 35 37  1  0
 35 38  1  0
 33 39  2  0
  5 40  1  0
 40 41  1  0
 41  2  1  0
 39  6  1  0
 32 11  1  0
 27 22  1  0
  1 42  1  0
  1 43  1  0
  1 44  1  0
  3 45  1  0
  3 46  1  0
  4 47  1  0
  4 48  1  0
  5 49  1  0
  7 50  1  0
  8 51  1  0
 10 52  1  0
 13 53  1  0
 20 54  1  0
 20 55  1  0
 21 56  1  0
 21 57  1  0
 23 58  1  0
 24 59  1  0
 25 60  1  0
 26 61  1  0
 28 62  1  0
 28 63  1  0
 30 64  1  0
 30 65  1  0
 39 66  1  0
 40 67  1  0
 40 68  1  0
 41 69  1  0
 41 70  1  0
M  END
$$$$
