@<TRIPOS>MOLECULE
*****
 65 69 0 0 0
SMALL
GASTEIGER

@<TRIPOS>ATOM
      1 C           0.4097    2.5873    1.6043 C.3     1  UNL1       -0.0421
      2 C           0.6442    2.1115    0.1578 C.3     1  UNL1        0.0515
      3 C           1.9460    1.4524    0.0283 C.ar    1  UNL1       -0.0271
      4 C           2.8924    1.8836   -0.9175 C.ar    1  UNL1       -0.0562
      5 C           4.1338    1.3044   -1.0446 C.ar    1  UNL1       -0.0537
      6 C           4.5132    0.2550   -0.2350 C.ar    1  UNL1       -0.0164
      7 C           5.8351   -0.3568   -0.3759 C.ar    1  UNL1        0.0004
      8 C           6.4254   -0.8803    0.7410 C.ar    1  UNL1       -0.0491
      9 C           7.6723   -1.4569    0.6055 C.ar    1  UNL1       -0.0168
     10 C           8.3119   -1.5071   -0.6218 C.ar    1  UNL1        0.1557
     11 N           9.4927   -1.9993   -1.0045 N.ar    1  UNL1       -0.2149
     12 C           9.6453   -1.7900   -2.3404 C.ar    1  UNL1        0.1390
     13 N           8.5141   -1.1604   -2.7190 N.ar    1  UNL1       -0.1535
     14 N           7.7046   -0.9857   -1.6897 N.ar    1  UNL1       -0.2198
     15 C           6.4922   -0.4183   -1.5898 C.ar    1  UNL1        0.0392
     16 C           3.6015   -0.1825    0.6982 C.ar    1  UNL1       -0.0537
     17 C           2.3355    0.4079    0.8288 C.ar    1  UNL1       -0.0562
     18 N          -0.4992    1.2820   -0.1542 N.am    1  UNL1       -0.2605
     19 C          -0.7389   -0.0018    0.4101 C.3     1  UNL1        0.0224
     20 C          -1.9912   -0.6279   -0.1683 C.3     1  UNL1        0.0076
     21 C          -3.1792    0.2551   -0.2232 C.3     1  UNL1        0.1440
     22 C          -3.8064    0.6456    1.0621 C.3     1  UNL1        0.0199
     23 C          -4.3722   -0.4016    1.9313 C.3     1  UNL1        0.0645
     24 C          -4.9440    0.3297    3.1672 C.3     1  UNL1       -0.0362
     25 C          -3.4717   -1.4579    2.4515 C.3     1  UNL1       -0.0362
     26 O          -5.5040   -0.9423    1.3028 O.3     1  UNL1       -0.3890
     27 C          -4.1918   -0.3732   -1.1408 C.ar    1  UNL1       -0.0040
     28 C          -4.0273   -1.6087   -1.7169 C.ar    1  UNL1       -0.0548
     29 C          -4.9687   -2.1504   -2.5567 C.ar    1  UNL1       -0.0614
     30 C          -6.1142   -1.4518   -2.8405 C.ar    1  UNL1       -0.0617
     31 C          -6.3032   -0.2173   -2.2789 C.ar    1  UNL1       -0.0614
     32 C          -5.3505    0.3066   -1.4424 C.ar    1  UNL1       -0.0548
     33 O          -2.8051    1.4560   -0.9034 O.3     1  UNL1       -0.4387
     34 C          -1.4732    1.7861   -1.1051 C.2     1  UNL1        0.4042
     35 O          -1.0753    2.4948   -2.0632 O.2     1  UNL1       -0.2262
     36 H           0.2419    1.7387    2.2841 H       1  UNL1        0.0251
     37 H           1.3099    3.1889    1.9026 H       1  UNL1        0.0251
     38 H          -0.4738    3.2563    1.5537 H       1  UNL1        0.0251
     39 H           0.6188    3.0748   -0.4229 H       1  UNL1        0.0549
     40 H           2.5662    2.7198   -1.5491 H       1  UNL1        0.0621
     41 H           4.8438    1.6674   -1.7927 H       1  UNL1        0.0624
     42 H           5.9899   -0.8790    1.7312 H       1  UNL1        0.0625
     43 H           8.1758   -1.8859    1.4749 H       1  UNL1        0.0655
     44 H          10.5044   -2.0821   -2.9300 H       1  UNL1        0.1066
     45 H           6.0211    0.0018   -2.4921 H       1  UNL1        0.0837
     46 H           3.8777   -0.9976    1.3373 H       1  UNL1        0.0624
     47 H           1.6633    0.0310    1.5982 H       1  UNL1        0.0621
     48 H           0.0854   -0.7144    0.0762 H       1  UNL1        0.0467
     49 H          -0.7004   -0.0267    1.5099 H       1  UNL1        0.0467
     50 H          -1.7098   -0.8239   -1.2563 H       1  UNL1        0.0322
     51 H          -2.1022   -1.6062    0.2856 H       1  UNL1        0.0322
     52 H          -3.0970    1.2665    1.6578 H       1  UNL1        0.0335
     53 H          -4.6525    1.3564    0.8178 H       1  UNL1        0.0335
     54 H          -5.0859   -0.3724    4.0063 H       1  UNL1        0.0257
     55 H          -4.2205    1.1030    3.5157 H       1  UNL1        0.0257
     56 H          -5.9024    0.8106    2.9348 H       1  UNL1        0.0257
     57 H          -3.8169   -1.7320    3.5046 H       1  UNL1        0.0257
     58 H          -3.5744   -2.4302    1.9158 H       1  UNL1        0.0257
     59 H          -2.4385   -1.1228    2.6042 H       1  UNL1        0.0257
     60 H          -6.2993   -0.3348    1.3966 H       1  UNL1        0.2101
     61 H          -3.1433   -2.1925   -1.5166 H       1  UNL1        0.0622
     62 H          -4.8219   -3.1118   -2.9943 H       1  UNL1        0.0618
     63 H          -6.8810   -1.8744   -3.5145 H       1  UNL1        0.0618
     64 H          -7.2040    0.3538   -2.4902 H       1  UNL1        0.0618
     65 H          -5.5281    1.3038   -1.0055 H       1  UNL1        0.0622
@<TRIPOS>BOND
     1     1     2    1
     2     2     3    1
     3     3     4   ar
     4     4     5   ar
     5     5     6   ar
     6     6     7    1
     7     7     8   ar
     8     8     9   ar
     9     9    10   ar
    10    10    11   ar
    11    11    12   ar
    12    12    13   ar
    13    13    14   ar
    14    14    15   ar
    15     6    16   ar
    16    16    17   ar
    17     2    18    1
    18    18    19    1
    19    19    20    1
    20    20    21    1
    21    21    22    1
    22    22    23    1
    23    23    24    1
    24    23    25    1
    25    23    26    1
    26    21    27    1
    27    27    28   ar
    28    28    29   ar
    29    29    30   ar
    30    30    31   ar
    31    31    32   ar
    32    21    33    1
    33    33    34    1
    34    34    35    2
    35    17     3   ar
    36    34    18   am
    37    15     7   ar
    38    32    27   ar
    39    14    10   ar
    40     1    36    1
    41     1    37    1
    42     1    38    1
    43     2    39    1
    44     4    40    1
    45     5    41    1
    46     8    42    1
    47     9    43    1
    48    12    44    1
    49    15    45    1
    50    16    46    1
    51    17    47    1
    52    19    48    1
    53    19    49    1
    54    20    50    1
    55    20    51    1
    56    22    52    1
    57    22    53    1
    58    24    54    1
    59    24    55    1
    60    24    56    1
    61    25    57    1
    62    25    58    1
    63    25    59    1
    64    26    60    1
    65    28    61    1
    66    29    62    1
    67    30    63    1
    68    31    64    1
    69    32    65    1
