
     RDKit          3D

 65 69  0  0  0  0  0  0  0  0999 V2000
    0.4097    2.5873    1.6043 C   0  0  0  0  0  0  0  0  0  0  0  0
    0.6442    2.1115    0.1578 C   0  0  1  0  0  0  0  0  0  0  0  0
    1.9460    1.4524    0.0283 C   0  0  0  0  0  0  0  0  0  0  0  0
    2.8924    1.8836   -0.9175 C   0  0  0  0  0  0  0  0  0  0  0  0
    4.1338    1.3044   -1.0446 C   0  0  0  0  0  0  0  0  0  0  0  0
    4.5132    0.2550   -0.2350 C   0  0  0  0  0  0  0  0  0  0  0  0
    5.8351   -0.3568   -0.3759 C   0  0  0  0  0  0  0  0  0  0  0  0
    6.4254   -0.8803    0.7410 C   0  0  0  0  0  0  0  0  0  0  0  0
    7.6723   -1.4569    0.6055 C   0  0  0  0  0  0  0  0  0  0  0  0
    8.3119   -1.5071   -0.6218 C   0  0  0  0  0  0  0  0  0  0  0  0
    9.4927   -1.9993   -1.0045 N   0  0  0  0  0  0  0  0  0  0  0  0
    9.6453   -1.7900   -2.3404 C   0  0  0  0  0  0  0  0  0  0  0  0
    8.5141   -1.1604   -2.7190 N   0  0  0  0  0  0  0  0  0  0  0  0
    7.7046   -0.9857   -1.6897 N   0  0  0  0  0  0  0  0  0  0  0  0
    6.4922   -0.4183   -1.5898 C   0  0  0  0  0  0  0  0  0  0  0  0
    3.6015   -0.1825    0.6982 C   0  0  0  0  0  0  0  0  0  0  0  0
    2.3355    0.4079    0.8288 C   0  0  0  0  0  0  0  0  0  0  0  0
   -0.4992    1.2820   -0.1542 N   0  0  0  0  0  0  0  0  0  0  0  0
   -0.7389   -0.0018    0.4101 C   0  0  0  0  0  0  0  0  0  0  0  0
   -1.9912   -0.6279   -0.1683 C   0  0  0  0  0  0  0  0  0  0  0  0
   -3.1792    0.2551   -0.2232 C   0  0  2  0  0  0  0  0  0  0  0  0
   -3.8064    0.6456    1.0621 C   0  0  0  0  0  0  0  0  0  0  0  0
   -4.3722   -0.4016    1.9313 C   0  0  0  0  0  0  0  0  0  0  0  0
   -4.9440    0.3297    3.1672 C   0  0  0  0  0  0  0  0  0  0  0  0
   -3.4717   -1.4579    2.4515 C   0  0  0  0  0  0  0  0  0  0  0  0
   -5.5040   -0.9423    1.3028 O   0  0  0  0  0  0  0  0  0  0  0  0
   -4.1918   -0.3732   -1.1408 C   0  0  0  0  0  0  0  0  0  0  0  0
   -4.0273   -1.6087   -1.7169 C   0  0  0  0  0  0  0  0  0  0  0  0
   -4.9687   -2.1504   -2.5567 C   0  0  0  0  0  0  0  0  0  0  0  0
   -6.1142   -1.4518   -2.8405 C   0  0  0  0  0  0  0  0  0  0  0  0
   -6.3032   -0.2173   -2.2789 C   0  0  0  0  0  0  0  0  0  0  0  0
   -5.3505    0.3066   -1.4424 C   0  0  0  0  0  0  0  0  0  0  0  0
   -2.8051    1.4560   -0.9034 O   0  0  0  0  0  0  0  0  0  0  0  0
   -1.4732    1.7861   -1.1051 C   0  0  0  0  0  0  0  0  0  0  0  0
   -1.0753    2.4948   -2.0632 O   0  0  0  0  0  0  0  0  0  0  0  0
    0.2419    1.7387    2.2841 H   0  0  0  0  0  0  0  0  0  0  0  0
    1.3099    3.1889    1.9026 H   0  0  0  0  0  0  0  0  0  0  0  0
   -0.4738    3.2563    1.5537 H   0  0  0  0  0  0  0  0  0  0  0  0
    0.6188    3.0748   -0.4229 H   0  0  0  0  0  0  0  0  0  0  0  0
    2.5662    2.7198   -1.5491 H   0  0  0  0  0  0  0  0  0  0  0  0
    4.8438    1.6674   -1.7927 H   0  0  0  0  0  0  0  0  0  0  0  0
    5.9899   -0.8790    1.7312 H   0  0  0  0  0  0  0  0  0  0  0  0
    8.1758   -1.8859    1.4749 H   0  0  0  0  0  0  0  0  0  0  0  0
   10.5044   -2.0821   -2.9300 H   0  0  0  0  0  0  0  0  0  0  0  0
    6.0211    0.0018   -2.4921 H   0  0  0  0  0  0  0  0  0  0  0  0
    3.8777   -0.9976    1.3373 H   0  0  0  0  0  0  0  0  0  0  0  0
    1.6633    0.0310    1.5982 H   0  0  0  0  0  0  0  0  0  0  0  0
    0.0854   -0.7144    0.0762 H   0  0  0  0  0  0  0  0  0  0  0  0
   -0.7004   -0.0267    1.5099 H   0  0  0  0  0  0  0  0  0  0  0  0
   -1.7098   -0.8239   -1.2563 H   0  0  0  0  0  0  0  0  0  0  0  0
   -2.1022   -1.6062    0.2856 H   0  0  0  0  0  0  0  0  0  0  0  0
   -3.0970    1.2665    1.6578 H   0  0  0  0  0  0  0  0  0  0  0  0
   -4.6525    1.3564    0.8178 H   0  0  0  0  0  0  0  0  0  0  0  0
   -5.0859   -0.3724    4.0063 H   0  0  0  0  0  0  0  0  0  0  0  0
   -4.2205    1.1030    3.5157 H   0  0  0  0  0  0  0  0  0  0  0  0
   -5.9024    0.8106    2.9348 H   0  0  0  0  0  0  0  0  0  0  0  0
   -3.8169   -1.7320    3.5046 H   0  0  0  0  0  0  0  0  0  0  0  0
   -3.5744   -2.4302    1.9158 H   0  0  0  0  0  0  0  0  0  0  0  0
   -2.4385   -1.1228    2.6042 H   0  0  0  0  0  0  0  0  0  0  0  0
   -6.2993   -0.3348    1.3966 H   0  0  0  0  0  0  0  0  0  0  0  0
   -3.1433   -2.1925   -1.5166 H   0  0  0  0  0  0  0  0  0  0  0  0
   -4.8219   -3.1118   -2.9943 H   0  0  0  0  0  0  0  0  0  0  0  0
   -6.8810   -1.8744   -3.5145 H   0  0  0  0  0  0  0  0  0  0  0  0
   -7.2040    0.3538   -2.4902 H   0  0  0  0  0  0  0  0  0  0  0  0
   -5.5281    1.3038   -1.0055 H   0  0  0  0  0  0  0  0  0  0  0  0
  1  2  1  0
  2  3  1  0
  3  4  2  0
  4  5  1  0
  5  6  2  0
  6  7  1  0
  7  8  1  0
  8  9  2  0
  9 10  1  0
 10 11  2  0
 11 12  1  0
 12 13  2  0
 13 14  1  0
 14 15  1  0
  6 16  1  0
 16 17  2  0
  2 18  1  0
 18 19  1  0
 19 20  1  0
 20 21  1  0
 21 22  1  1
 22 23  1  0
 23 24  1  0
 23 25  1  0
 23 26  1  0
 21 27  1  0
 27 28  2  0
 28 29  1  0
 29 30  2  0
 30 31  1  0
 31 32  2  0
 21 33  1  0
 33 34  1  0
 34 35  2  0
 17  3  1  0
 34 18  1  0
 15  7  2  0
 32 27  1  0
 14 10  1  0
  1 36  1  0
  1 37  1  0
  1 38  1  0
  2 39  1  6
  4 40  1  0
  5 41  1  0
  8 42  1  0
  9 43  1  0
 12 44  1  0
 15 45  1  0
 16 46  1  0
 17 47  1  0
 19 48  1  0
 19 49  1  0
 20 50  1  0
 20 51  1  0
 22 52  1  0
 22 53  1  0
 24 54  1  0
 24 55  1  0
 24 56  1  0
 25 57  1  0
 25 58  1  0
 25 59  1  0
 26 60  1  0
 28 61  1  0
 29 62  1  0
 30 63  1  0
 31 64  1  0
 32 65  1  0
M  END
$$$$
