
     RDKit          3D

 74 81  0  0  0  0  0  0  0  0999 V2000
    3.8814   -3.9203   -2.0356 N   0  0  0  0  0  0  0  0  0  0  0  0
    2.4598   -3.9086   -2.0285 C   0  0  0  0  0  0  0  0  0  0  0  0
    1.7522   -5.0512   -2.1418 N   0  0  0  0  0  0  0  0  0  0  0  0
    0.4142   -5.0495   -2.1305 C   0  0  0  0  0  0  0  0  0  0  0  0
   -0.3140   -3.8711   -2.0009 C   0  0  0  0  0  0  0  0  0  0  0  0
    0.3693   -2.7181   -1.8858 N   0  0  0  0  0  0  0  0  0  0  0  0
    1.7407   -2.7391   -1.9001 C   0  0  0  0  0  0  0  0  0  0  0  0
    2.1753   -1.4351   -1.7676 C   0  0  0  0  0  0  0  0  0  0  0  0
    3.5573   -0.9489   -1.7190 C   0  0  0  0  0  0  0  0  0  0  0  0
    4.4231   -1.1735   -2.7858 C   0  0  0  0  0  0  0  0  0  0  0  0
    5.7116   -0.6935   -2.7174 C   0  0  0  0  0  0  0  0  0  0  0  0
    6.1890    0.0075   -1.6294 C   0  0  0  0  0  0  0  0  0  0  0  0
    7.4899    0.4596   -1.6168 C   0  0  0  0  0  0  0  0  0  0  0  0
    7.9373    1.1595   -0.4975 C   0  0  0  0  0  0  0  0  0  0  0  0
    7.0872    1.3831    0.5559 C   0  0  0  0  0  0  0  0  0  0  0  0
    7.5305    2.1039    1.7330 C   0  0  0  0  0  0  0  0  0  0  0  0
    8.7880    2.6119    1.8931 C   0  0  0  0  0  0  0  0  0  0  0  0
    9.1804    3.2914    3.0292 C   0  0  0  0  0  0  0  0  0  0  0  0
    8.3023    3.4826    4.0545 C   0  0  0  0  0  0  0  0  0  0  0  0
    7.0177    2.9793    3.9227 C   0  0  0  0  0  0  0  0  0  0  0  0
    6.6389    2.3039    2.7864 C   0  0  0  0  0  0  0  0  0  0  0  0
    5.8017    0.9117    0.4917 N   0  0  0  0  0  0  0  0  0  0  0  0
    5.3305    0.2344   -0.5632 C   0  0  0  0  0  0  0  0  0  0  0  0
    4.0442   -0.2505   -0.6429 C   0  0  0  0  0  0  0  0  0  0  0  0
    3.1995   -0.0291    0.4009 F   0  0  0  0  0  0  0  0  0  0  0  0
    1.0976   -0.6780   -1.6782 N   0  0  0  0  0  0  0  0  0  0  0  0
   -0.0474   -1.4539   -1.7494 C   0  0  0  0  0  0  0  0  0  0  0  0
   -1.3652   -0.8245   -1.6715 C   0  0  1  0  0  0  0  0  0  0  0  0
   -2.5214   -1.6729   -1.4735 C   0  0  0  0  0  0  0  0  0  0  0  0
   -3.8105   -0.9255   -1.1319 C   0  0  0  0  0  0  0  0  0  0  0  0
   -3.5373   -0.1372    0.1252 C   0  0  2  0  0  0  0  0  0  0  0  0
   -4.7986    0.5111    0.5703 C   0  0  0  0  0  0  0  0  0  0  0  0
   -4.8648    1.7605    0.6574 O   0  0  0  0  0  0  0  0  0  0  0  0
   -5.8865   -0.3402    0.8797 N   0  0  0  0  0  0  0  0  0  0  0  0
   -7.1174    0.2148    1.3047 C   0  0  0  0  0  0  0  0  0  0  0  0
   -7.5291    0.5037    2.5558 N   0  0  0  0  0  0  0  0  0  0  0  0
   -8.7801    1.0246    2.5210 C   0  0  0  0  0  0  0  0  0  0  0  0
   -9.6872    1.4909    3.4389 C   0  0  0  0  0  0  0  0  0  0  0  0
  -10.9295    1.9836    3.1321 C   0  0  0  0  0  0  0  0  0  0  0  0
  -11.2869    2.0071    1.7801 C   0  0  0  0  0  0  0  0  0  0  0  0
  -10.4064    1.5485    0.8268 C   0  0  0  0  0  0  0  0  0  0  0  0
   -9.1689    1.0622    1.1789 C   0  0  0  0  0  0  0  0  0  0  0  0
   -8.1393    0.5651    0.4727 N   0  0  0  0  0  0  0  0  0  0  0  0
   -2.5589    0.9492   -0.3271 C   0  0  0  0  0  0  0  0  0  0  0  0
   -1.2643    0.3871   -0.7672 C   0  0  0  0  0  0  0  0  0  0  0  0
    4.4331   -4.1416   -2.8806 H   0  0  0  0  0  0  0  0  0  0  0  0
    4.3754   -3.6965   -1.1537 H   0  0  0  0  0  0  0  0  0  0  0  0
   -0.1729   -5.9583   -2.2212 H   0  0  0  0  0  0  0  0  0  0  0  0
   -1.3814   -3.8852   -1.9976 H   0  0  0  0  0  0  0  0  0  0  0  0
    4.0986   -1.7079   -3.6627 H   0  0  0  0  0  0  0  0  0  0  0  0
    6.3919   -0.8655   -3.5462 H   0  0  0  0  0  0  0  0  0  0  0  0
    8.1994    0.3132   -2.4142 H   0  0  0  0  0  0  0  0  0  0  0  0
    8.9711    1.5188   -0.4846 H   0  0  0  0  0  0  0  0  0  0  0  0
    9.5369    2.4865    1.0965 H   0  0  0  0  0  0  0  0  0  0  0  0
   10.1777    3.6636    3.0919 H   0  0  0  0  0  0  0  0  0  0  0  0
    8.5875    4.0215    4.9747 H   0  0  0  0  0  0  0  0  0  0  0  0
    6.3349    3.1504    4.7672 H   0  0  0  0  0  0  0  0  0  0  0  0
    5.6358    1.9324    2.7280 H   0  0  0  0  0  0  0  0  0  0  0  0
   -1.4898   -0.3401   -2.7064 H   0  0  0  0  0  0  0  0  0  0  0  0
   -2.4070   -2.3864   -0.6402 H   0  0  0  0  0  0  0  0  0  0  0  0
   -2.8260   -2.2561   -2.3800 H   0  0  0  0  0  0  0  0  0  0  0  0
   -4.0654   -0.2993   -1.9832 H   0  0  0  0  0  0  0  0  0  0  0  0
   -4.5882   -1.7008   -0.9946 H   0  0  0  0  0  0  0  0  0  0  0  0
   -3.0570   -0.7325    0.8998 H   0  0  0  0  0  0  0  0  0  0  0  0
   -5.8038   -1.3685    0.8002 H   0  0  0  0  0  0  0  0  0  0  0  0
   -9.3951    1.4663    4.4808 H   0  0  0  0  0  0  0  0  0  0  0  0
  -11.6328    2.3476    3.8677 H   0  0  0  0  0  0  0  0  0  0  0  0
  -12.2662    2.3932    1.5200 H   0  0  0  0  0  0  0  0  0  0  0  0
  -10.7134    1.5811   -0.2053 H   0  0  0  0  0  0  0  0  0  0  0  0
   -8.1232    0.4624   -0.5633 H   0  0  0  0  0  0  0  0  0  0  0  0
   -3.0799    1.4610   -1.1844 H   0  0  0  0  0  0  0  0  0  0  0  0
   -2.4851    1.7005    0.4751 H   0  0  0  0  0  0  0  0  0  0  0  0
   -0.6846    1.1978   -1.2674 H   0  0  0  0  0  0  0  0  0  0  0  0
   -0.6765    0.1145    0.1345 H   0  0  0  0  0  0  0  0  0  0  0  0
  1  2  1  0
  2  3  2  0
  3  4  1  0
  4  5  2  0
  5  6  1  0
  6  7  1  0
  7  8  2  0
  8  9  1  0
  9 10  2  0
 10 11  1  0
 11 12  2  0
 12 13  1  0
 13 14  2  0
 14 15  1  0
 15 16  1  0
 16 17  2  0
 17 18  1  0
 18 19  2  0
 19 20  1  0
 20 21  2  0
 15 22  2  0
 22 23  1  0
 23 24  2  0
 24 25  1  0
  8 26  1  0
 26 27  2  0
 27 28  1  0
 28 29  1  0
 29 30  1  0
 30 31  1  0
 31 32  1  0
 32 33  2  0
 32 34  1  0
 34 35  1  0
 35 36  2  0
 36 37  1  0
 37 38  2  0
 38 39  1  0
 39 40  2  0
 40 41  1  0
 41 42  2  0
 42 43  1  0
 31 44  1  0
 44 45  1  0
  7  2  1  0
 24  9  1  0
 45 28  1  0
 27  6  1  0
 43 35  1  0
 23 12  1  0
 42 37  1  0
 21 16  1  0
  1 46  1  0
  1 47  1  0
  4 48  1  0
  5 49  1  0
 10 50  1  0
 11 51  1  0
 13 52  1  0
 14 53  1  0
 17 54  1  0
 18 55  1  0
 19 56  1  0
 20 57  1  0
 21 58  1  0
 28 59  1  6
 29 60  1  0
 29 61  1  0
 30 62  1  0
 30 63  1  0
 31 64  1  1
 34 65  1  0
 38 66  1  0
 39 67  1  0
 40 68  1  0
 41 69  1  0
 43 70  1  0
 44 71  1  0
 44 72  1  0
 45 73  1  0
 45 74  1  0
M  END
$$$$
