@<TRIPOS>MOLECULE
*****
 74 81 0 0 0
SMALL
GASTEIGER

@<TRIPOS>ATOM
      1 N           3.8814   -3.9203   -2.0356 N.pl3   1  UNL1       -0.3414
      2 C           2.4598   -3.9086   -2.0285 C.ar    1  UNL1        0.1424
      3 N           1.7522   -5.0512   -2.1418 N.ar    1  UNL1       -0.2371
      4 C           0.4142   -5.0495   -2.1305 C.ar    1  UNL1        0.0463
      5 C          -0.3140   -3.8711   -2.0009 C.ar    1  UNL1        0.0297
      6 N           0.3693   -2.7181   -1.8858 N.ar    1  UNL1       -0.2982
      7 C           1.7407   -2.7391   -1.9001 C.ar    1  UNL1        0.1136
      8 C           2.1753   -1.4351   -1.7676 C.ar    1  UNL1        0.1029
      9 C           3.5573   -0.9489   -1.7190 C.ar    1  UNL1        0.0399
     10 C           4.4231   -1.1735   -2.7858 C.ar    1  UNL1       -0.0490
     11 C           5.7116   -0.6935   -2.7174 C.ar    1  UNL1       -0.0518
     12 C           6.1890    0.0075   -1.6294 C.ar    1  UNL1        0.0033
     13 C           7.4899    0.4596   -1.6168 C.ar    1  UNL1       -0.0505
     14 C           7.9373    1.1595   -0.4975 C.ar    1  UNL1       -0.0351
     15 C           7.0872    1.3831    0.5559 C.ar    1  UNL1        0.0718
     16 C           7.5305    2.1039    1.7330 C.ar    1  UNL1        0.0004
     17 C           8.7880    2.6119    1.8931 C.ar    1  UNL1       -0.0526
     18 C           9.1804    3.2914    3.0292 C.ar    1  UNL1       -0.0611
     19 C           8.3023    3.4826    4.0545 C.ar    1  UNL1       -0.0617
     20 C           7.0177    2.9793    3.9227 C.ar    1  UNL1       -0.0611
     21 C           6.6389    2.3039    2.7864 C.ar    1  UNL1       -0.0526
     22 N           5.8017    0.9117    0.4917 N.ar    1  UNL1       -0.2438
     23 C           5.3305    0.2344   -0.5632 C.ar    1  UNL1        0.1074
     24 C           4.0442   -0.2505   -0.6429 C.ar    1  UNL1        0.1584
     25 F           3.1995   -0.0291    0.4009 F       1  UNL1       -0.2026
     26 N           1.0976   -0.6780   -1.6782 N.ar    1  UNL1       -0.2309
     27 C          -0.0474   -1.4539   -1.7494 C.ar    1  UNL1        0.1180
     28 C          -1.3652   -0.8245   -1.6715 C.3     1  UNL1        0.0177
     29 C          -2.5214   -1.6729   -1.4735 C.3     1  UNL1       -0.0427
     30 C          -3.8105   -0.9255   -1.1319 C.3     1  UNL1       -0.0413
     31 C          -3.5373   -0.1372    0.1252 C.3     1  UNL1        0.0360
     32 C          -4.7986    0.5111    0.5703 C.2     1  UNL1        0.2224
     33 O          -4.8648    1.7605    0.6574 O.2     1  UNL1       -0.2751
     34 N          -5.8865   -0.3402    0.8797 N.am    1  UNL1       -0.2558
     35 C          -7.1174    0.2148    1.3047 C.ar    1  UNL1        0.2003
     36 N          -7.5291    0.5037    2.5558 N.ar    1  UNL1       -0.2143
     37 C          -8.7801    1.0246    2.5210 C.ar    1  UNL1        0.0907
     38 C          -9.6872    1.4909    3.4389 C.ar    1  UNL1       -0.0342
     39 C         -10.9295    1.9836    3.1321 C.ar    1  UNL1       -0.0596
     40 C         -11.2869    2.0071    1.7801 C.ar    1  UNL1       -0.0597
     41 C         -10.4064    1.5485    0.8268 C.ar    1  UNL1       -0.0362
     42 C          -9.1689    1.0622    1.1789 C.ar    1  UNL1        0.0674
     43 N          -8.1393    0.5651    0.4727 N.ar    1  UNL1       -0.3258
     44 C          -2.5589    0.9492   -0.3271 C.3     1  UNL1       -0.0413
     45 C          -1.2643    0.3871   -0.7672 C.3     1  UNL1       -0.0427
     46 H           4.4331   -4.1416   -2.8806 H       1  UNL1        0.1438
     47 H           4.3754   -3.6965   -1.1537 H       1  UNL1        0.1438
     48 H          -0.1729   -5.9583   -2.2212 H       1  UNL1        0.0845
     49 H          -1.3814   -3.8852   -1.9976 H       1  UNL1        0.0829
     50 H           4.0986   -1.7079   -3.6627 H       1  UNL1        0.0625
     51 H           6.3919   -0.8655   -3.5462 H       1  UNL1        0.0624
     52 H           8.1994    0.3132   -2.4142 H       1  UNL1        0.0625
     53 H           8.9711    1.5188   -0.4846 H       1  UNL1        0.0639
     54 H           9.5369    2.4865    1.0965 H       1  UNL1        0.0624
     55 H          10.1777    3.6636    3.0919 H       1  UNL1        0.0618
     56 H           8.5875    4.0215    4.9747 H       1  UNL1        0.0618
     57 H           6.3349    3.1504    4.7672 H       1  UNL1        0.0618
     58 H           5.6358    1.9324    2.7280 H       1  UNL1        0.0624
     59 H          -1.4898   -0.3401   -2.7064 H       1  UNL1        0.0379
     60 H          -2.4070   -2.3864   -0.6402 H       1  UNL1        0.0272
     61 H          -2.8260   -2.2561   -2.3800 H       1  UNL1        0.0272
     62 H          -4.0654   -0.2993   -1.9832 H       1  UNL1        0.0273
     63 H          -4.5882   -1.7008   -0.9946 H       1  UNL1        0.0273
     64 H          -3.0570   -0.7325    0.8998 H       1  UNL1        0.0394
     65 H          -5.8038   -1.3685    0.8002 H       1  UNL1        0.1577
     66 H          -9.3951    1.4663    4.4808 H       1  UNL1        0.0639
     67 H         -11.6328    2.3476    3.8677 H       1  UNL1        0.0618
     68 H         -12.2662    2.3932    1.5200 H       1  UNL1        0.0618
     69 H         -10.7134    1.5811   -0.2053 H       1  UNL1        0.0639
     70 H          -8.1232    0.4624   -0.5633 H       1  UNL1        0.1686
     71 H          -3.0799    1.4610   -1.1844 H       1  UNL1        0.0273
     72 H          -2.4851    1.7005    0.4751 H       1  UNL1        0.0273
     73 H          -0.6846    1.1978   -1.2674 H       1  UNL1        0.0272
     74 H          -0.6765    0.1145    0.1345 H       1  UNL1        0.0272
@<TRIPOS>BOND
     1     1     2    1
     2     2     3   ar
     3     3     4   ar
     4     4     5   ar
     5     5     6   ar
     6     6     7   ar
     7     7     8   ar
     8     8     9    1
     9     9    10   ar
    10    10    11   ar
    11    11    12   ar
    12    12    13   ar
    13    13    14   ar
    14    14    15   ar
    15    15    16    1
    16    16    17   ar
    17    17    18   ar
    18    18    19   ar
    19    19    20   ar
    20    20    21   ar
    21    15    22   ar
    22    22    23   ar
    23    23    24   ar
    24    24    25    1
    25     8    26   ar
    26    26    27   ar
    27    27    28    1
    28    28    29    1
    29    29    30    1
    30    30    31    1
    31    31    32    1
    32    32    33    2
    33    32    34   am
    34    34    35    1
    35    35    36   ar
    36    36    37   ar
    37    37    38   ar
    38    38    39   ar
    39    39    40   ar
    40    40    41   ar
    41    41    42   ar
    42    42    43   ar
    43    31    44    1
    44    44    45    1
    45     7     2   ar
    46    24     9   ar
    47    45    28    1
    48    27     6   ar
    49    43    35   ar
    50    23    12   ar
    51    42    37   ar
    52    21    16   ar
    53     1    46    1
    54     1    47    1
    55     4    48    1
    56     5    49    1
    57    10    50    1
    58    11    51    1
    59    13    52    1
    60    14    53    1
    61    17    54    1
    62    18    55    1
    63    19    56    1
    64    20    57    1
    65    21    58    1
    66    28    59    1
    67    29    60    1
    68    29    61    1
    69    30    62    1
    70    30    63    1
    71    31    64    1
    72    34    65    1
    73    38    66    1
    74    39    67    1
    75    40    68    1
    76    41    69    1
    77    43    70    1
    78    44    71    1
    79    44    72    1
    80    45    73    1
    81    45    74    1
