@<TRIPOS>MOLECULE
*****
 42 45 0 0 0
SMALL
GASTEIGER

@<TRIPOS>ATOM
      1 C           1.5331   -0.9501   -1.5245 C.3     1  UNL1       -0.0386
      2 C           1.8132   -0.2432   -0.2523 C.ar    1  UNL1       -0.0304
      3 C           0.9108    0.5043    0.5344 C.ar    1  UNL1       -0.0086
      4 C          -0.3514    0.5682   -0.0054 C.3     1  UNL1        0.0361
      5 N          -1.6581    0.9098    0.3163 N.pl3   1  UNL1       -0.3392
      6 C          -2.9964    1.2749    0.6529 C.ar    1  UNL1        0.0367
      7 C          -3.6249    2.4505    1.0029 C.ar    1  UNL1       -0.0401
      8 C          -4.9792    2.3150    0.8931 C.ar    1  UNL1       -0.0580
      9 C          -5.6567    1.1527    0.4722 C.ar    1  UNL1       -0.0356
     10 C          -4.9981   -0.0055    0.1416 C.ar    1  UNL1        0.0727
     11 N          -5.6720   -1.0774   -0.2727 N.ar    1  UNL1       -0.2549
     12 C          -4.9572   -2.2326   -0.6292 C.ar    1  UNL1        0.0283
     13 C          -3.6201   -2.2722   -0.5786 C.ar    1  UNL1       -0.0429
     14 C          -3.0699   -1.1300   -0.1478 C.ar    1  UNL1       -0.0494
     15 C          -3.5839    0.1319    0.2545 C.ar    1  UNL1        0.0212
     16 C           1.2138    1.2133    1.5747 C.ar    1  UNL1        0.0349
     17 N           2.5758    1.2827    1.9975 N.ar    1  UNL1       -0.2352
     18 C           3.4524    0.5776    1.2711 C.ar    1  UNL1        0.1668
     19 N           4.8101    0.6849    1.5422 N.ar    1  UNL1       -0.1948
     20 C           5.6571    0.0566    0.7543 C.ar    1  UNL1        0.2162
     21 N           7.0073    0.4028    1.0539 N.pl3   1  UNL1       -0.3274
     22 N           5.4059   -0.7323   -0.2898 N.ar    1  UNL1       -0.1994
     23 C           4.0376   -0.8521   -0.5900 C.ar    1  UNL1        0.1308
     24 N           3.8243   -1.8399   -1.5163 N.pl3   1  UNL1       -0.3425
     25 C           3.1342   -0.1993    0.1598 C.ar    1  UNL1        0.0620
     26 H           0.6674   -0.3619   -2.0030 H       1  UNL1        0.0278
     27 H           2.3168   -0.6436   -2.3101 H       1  UNL1        0.0278
     28 H           1.2766   -1.9687   -1.5486 H       1  UNL1        0.0278
     29 H          -0.4955   -0.3097   -0.8170 H       1  UNL1        0.0511
     30 H          -0.1522    1.3764   -0.9575 H       1  UNL1        0.0511
     31 H          -1.1761    1.6591    0.9334 H       1  UNL1        0.1464
     32 H          -2.9324    3.1680    1.1943 H       1  UNL1        0.0636
     33 H          -5.4355    3.2459    1.1164 H       1  UNL1        0.0619
     34 H          -6.6910    1.2493    0.3890 H       1  UNL1        0.0639
     35 H          -5.4632   -3.1443   -1.0648 H       1  UNL1        0.0830
     36 H          -2.9303   -3.0955   -0.8559 H       1  UNL1        0.0633
     37 H          -2.0029   -1.2061    0.0340 H       1  UNL1        0.0625
     38 H           0.4225    1.6973    2.1280 H       1  UNL1        0.0834
     39 H           7.9268    0.5459    1.4346 H       1  UNL1        0.1452
     40 H           7.3073    0.9870    0.1934 H       1  UNL1        0.1452
     41 H           3.4672   -2.6517   -0.8979 H       1  UNL1        0.1437
     42 H           3.6868   -2.5378   -2.2349 H       1  UNL1        0.1437
@<TRIPOS>BOND
     1     1     2    1
     2     2     3   ar
     3     3     4    1
     4     4     5    1
     5     5     6    1
     6     6     7   ar
     7     7     8   ar
     8     8     9   ar
     9     9    10   ar
    10    10    11   ar
    11    11    12   ar
    12    12    13   ar
    13    13    14   ar
    14    14    15   ar
    15     3    16   ar
    16    16    17   ar
    17    17    18   ar
    18    18    19   ar
    19    19    20   ar
    20    20    21    1
    21    20    22   ar
    22    22    23   ar
    23    23    24    1
    24    23    25   ar
    25    25     2   ar
    26    15     6   ar
    27    25    18   ar
    28    15    10   ar
    29     1    26    1
    30     1    27    1
    31     1    28    1
    32     4    29    1
    33     4    30    1
    34     5    31    1
    35     7    32    1
    36     8    33    1
    37     9    34    1
    38    12    35    1
    39    13    36    1
    40    14    37    1
    41    16    38    1
    42    21    39    1
    43    21    40    1
    44    24    41    1
    45    24    42    1
