
     RDKit          3D

 54 53  0  0  0  0  0  0  0  0999 V2000
    5.4932   -0.1320    1.7707 C   0  0  0  0  0  0  0  0  0  0  0  0
    4.2444    0.0065    2.5817 C   0  0  0  0  0  0  0  0  0  0  0  0
    3.1115    0.4660    1.6535 C   0  0  0  0  0  0  0  0  0  0  0  0
    2.9423   -0.5559    0.5934 C   0  0  0  0  0  0  0  0  0  0  0  0
    1.9011   -0.3570   -0.4241 C   0  0  2  0  0  0  0  0  0  0  0  0
    1.9399    0.7933   -1.3422 C   0  0  0  0  0  0  0  0  0  0  0  0
    3.0849    0.8016   -2.2016 N   0  0  0  0  0  0  0  0  0  0  0  0
    2.9343    0.0763   -3.3857 O   0  0  0  0  0  0  0  0  0  0  0  0
    4.2811    1.4536   -1.9375 C   0  0  0  0  0  0  0  0  0  0  0  0
    4.4616    2.1505   -0.9221 O   0  0  0  0  0  0  0  0  0  0  0  0
    0.5516   -0.4336    0.2307 C   0  0  0  0  0  0  0  0  0  0  0  0
    0.4276   -0.6211    1.4838 O   0  0  0  0  0  0  0  0  0  0  0  0
   -0.6429   -0.3063   -0.4865 N   0  0  0  0  0  0  0  0  0  0  0  0
   -1.9780   -0.3807    0.1650 C   0  0  2  0  0  0  0  0  0  0  0  0
   -2.7304   -1.4295   -0.5284 C   0  0  0  0  0  0  0  0  0  0  0  0
   -2.2320   -1.8449   -1.6409 O   0  0  0  0  0  0  0  0  0  0  0  0
   -3.9248   -2.0499   -0.1435 N   0  0  0  0  0  0  0  0  0  0  0  0
   -4.5850   -1.7445    1.0964 C   0  0  0  0  0  0  0  0  0  0  0  0
   -4.5351   -3.0328   -1.0038 C   0  0  0  0  0  0  0  0  0  0  0  0
   -2.5174    1.0197   -0.0337 C   0  0  0  0  0  0  0  0  0  0  0  0
   -3.8651    1.2743    0.5202 C   0  0  0  0  0  0  0  0  0  0  0  0
   -1.5246    1.9484    0.6817 C   0  0  0  0  0  0  0  0  0  0  0  0
   -2.4328    1.4239   -1.5094 C   0  0  0  0  0  0  0  0  0  0  0  0
    5.6211    0.6595    1.0092 H   0  0  0  0  0  0  0  0  0  0  0  0
    5.5229   -1.1636    1.3073 H   0  0  0  0  0  0  0  0  0  0  0  0
    6.3740   -0.1084    2.4710 H   0  0  0  0  0  0  0  0  0  0  0  0
    3.9390   -1.0116    2.9221 H   0  0  0  0  0  0  0  0  0  0  0  0
    4.3197    0.7283    3.4000 H   0  0  0  0  0  0  0  0  0  0  0  0
    2.2158    0.4717    2.3458 H   0  0  0  0  0  0  0  0  0  0  0  0
    3.2861    1.4557    1.2401 H   0  0  0  0  0  0  0  0  0  0  0  0
    2.7093   -1.5307    1.1210 H   0  0  0  0  0  0  0  0  0  0  0  0
    3.9424   -0.7549    0.1157 H   0  0  0  0  0  0  0  0  0  0  0  0
    1.9849   -1.2902   -1.1131 H   0  0  0  0  0  0  0  0  0  0  0  0
    1.8114    1.7818   -0.8249 H   0  0  0  0  0  0  0  0  0  0  0  0
    1.0334    0.7336   -2.0084 H   0  0  0  0  0  0  0  0  0  0  0  0
    2.1898    0.5080   -3.8982 H   0  0  0  0  0  0  0  0  0  0  0  0
    5.0990    1.3429   -2.6642 H   0  0  0  0  0  0  0  0  0  0  0  0
   -0.6505   -0.1603   -1.5017 H   0  0  0  0  0  0  0  0  0  0  0  0
   -1.8114   -0.5414    1.2247 H   0  0  0  0  0  0  0  0  0  0  0  0
   -4.9978   -2.6732    1.5759 H   0  0  0  0  0  0  0  0  0  0  0  0
   -3.8881   -1.3138    1.8482 H   0  0  0  0  0  0  0  0  0  0  0  0
   -5.4625   -1.0799    0.9794 H   0  0  0  0  0  0  0  0  0  0  0  0
   -5.5721   -3.2815   -0.6944 H   0  0  0  0  0  0  0  0  0  0  0  0
   -4.4537   -2.7776   -2.0719 H   0  0  0  0  0  0  0  0  0  0  0  0
   -3.9462   -3.9843   -0.8649 H   0  0  0  0  0  0  0  0  0  0  0  0
   -3.9007    1.0229    1.5771 H   0  0  0  0  0  0  0  0  0  0  0  0
   -4.6948    0.8762   -0.1040 H   0  0  0  0  0  0  0  0  0  0  0  0
   -4.0448    2.3966    0.4944 H   0  0  0  0  0  0  0  0  0  0  0  0
   -0.5824    1.8819    0.0961 H   0  0  0  0  0  0  0  0  0  0  0  0
   -1.8676    3.0011    0.6288 H   0  0  0  0  0  0  0  0  0  0  0  0
   -1.3121    1.6050    1.7014 H   0  0  0  0  0  0  0  0  0  0  0  0
   -2.7203    0.5820   -2.1691 H   0  0  0  0  0  0  0  0  0  0  0  0
   -1.4180    1.8167   -1.7385 H   0  0  0  0  0  0  0  0  0  0  0  0
   -3.1310    2.2814   -1.6224 H   0  0  0  0  0  0  0  0  0  0  0  0
  1  2  1  0
  2  3  1  0
  3  4  1  0
  4  5  1  0
  5  6  1  0
  6  7  1  0
  7  8  1  0
  7  9  1  0
  9 10  2  0
  5 11  1  0
 11 12  2  0
 11 13  1  0
 13 14  1  0
 14 15  1  0
 15 16  2  0
 15 17  1  0
 17 18  1  0
 17 19  1  0
 14 20  1  0
 20 21  1  0
 20 22  1  0
 20 23  1  0
  1 24  1  0
  1 25  1  0
  1 26  1  0
  2 27  1  0
  2 28  1  0
  3 29  1  0
  3 30  1  0
  4 31  1  0
  4 32  1  0
  5 33  1  6
  6 34  1  0
  6 35  1  0
  8 36  1  0
  9 37  1  0
 13 38  1  0
 14 39  1  1
 18 40  1  0
 18 41  1  0
 18 42  1  0
 19 43  1  0
 19 44  1  0
 19 45  1  0
 21 46  1  0
 21 47  1  0
 21 48  1  0
 22 49  1  0
 22 50  1  0
 22 51  1  0
 23 52  1  0
 23 53  1  0
 23 54  1  0
M  END
$$$$
