@<TRIPOS>MOLECULE
*****
 54 53 0 0 0
SMALL
GASTEIGER

@<TRIPOS>ATOM
      1 C           5.4932   -0.1320    1.7707 C.3     1  UNL1       -0.0653
      2 C           4.2444    0.0065    2.5817 C.3     1  UNL1       -0.0559
      3 C           3.1115    0.4660    1.6535 C.3     1  UNL1       -0.0526
      4 C           2.9423   -0.5559    0.5934 C.3     1  UNL1       -0.0404
      5 C           1.9011   -0.3570   -0.4241 C.3     1  UNL1        0.0536
      6 C           1.9399    0.7933   -1.3422 C.3     1  UNL1        0.0525
      7 N           3.0849    0.8016   -2.2016 N.am    1  UNL1       -0.1857
      8 O           2.9343    0.0763   -3.3857 O.3     1  UNL1       -0.2927
      9 C           4.2811    1.4536   -1.9375 C.2     1  UNL1        0.2250
     10 O           4.4616    2.1505   -0.9221 O.2     1  UNL1       -0.2772
     11 C           0.5516   -0.4336    0.2307 C.2     1  UNL1        0.2183
     12 O           0.4276   -0.6211    1.4838 O.2     1  UNL1       -0.2754
     13 N          -0.6429   -0.3063   -0.4865 N.am    1  UNL1       -0.3032
     14 C          -1.9780   -0.3807    0.1650 C.3     1  UNL1        0.1044
     15 C          -2.7304   -1.4295   -0.5284 C.2     1  UNL1        0.2359
     16 O          -2.2320   -1.8449   -1.6409 O.2     1  UNL1       -0.2736
     17 N          -3.9248   -2.0499   -0.1435 N.am    1  UNL1       -0.3061
     18 C          -4.5850   -1.7445    1.0964 C.3     1  UNL1        0.0029
     19 C          -4.5351   -3.0328   -1.0038 C.3     1  UNL1        0.0029
     20 C          -2.5174    1.0197   -0.0337 C.3     1  UNL1       -0.0108
     21 C          -3.8651    1.2743    0.5202 C.3     1  UNL1       -0.0579
     22 C          -1.5246    1.9484    0.6817 C.3     1  UNL1       -0.0579
     23 C          -2.4328    1.4239   -1.5094 C.3     1  UNL1       -0.0579
     24 H           5.6211    0.6595    1.0092 H       1  UNL1        0.0230
     25 H           5.5229   -1.1636    1.3073 H       1  UNL1        0.0230
     26 H           6.3740   -0.1084    2.4710 H       1  UNL1        0.0230
     27 H           3.9390   -1.0116    2.9221 H       1  UNL1        0.0263
     28 H           4.3197    0.7283    3.4000 H       1  UNL1        0.0263
     29 H           2.2158    0.4717    2.3458 H       1  UNL1        0.0265
     30 H           3.2861    1.4557    1.2401 H       1  UNL1        0.0265
     31 H           2.7093   -1.5307    1.1210 H       1  UNL1        0.0273
     32 H           3.9424   -0.7549    0.1157 H       1  UNL1        0.0273
     33 H           1.9849   -1.2902   -1.1131 H       1  UNL1        0.0410
     34 H           1.8114    1.7818   -0.8249 H       1  UNL1        0.0496
     35 H           1.0334    0.7336   -2.0084 H       1  UNL1        0.0496
     36 H           2.1898    0.5080   -3.8982 H       1  UNL1        0.2416
     37 H           5.0990    1.3429   -2.6642 H       1  UNL1        0.1274
     38 H          -0.6505   -0.1603   -1.5017 H       1  UNL1        0.1495
     39 H          -1.8114   -0.5414    1.2247 H       1  UNL1        0.0600
     40 H          -4.9978   -2.6732    1.5759 H       1  UNL1        0.0428
     41 H          -3.8881   -1.3138    1.8482 H       1  UNL1        0.0428
     42 H          -5.4625   -1.0799    0.9794 H       1  UNL1        0.0428
     43 H          -5.5721   -3.2815   -0.6944 H       1  UNL1        0.0428
     44 H          -4.4537   -2.7776   -2.0719 H       1  UNL1        0.0428
     45 H          -3.9462   -3.9843   -0.8649 H       1  UNL1        0.0428
     46 H          -3.9007    1.0229    1.5771 H       1  UNL1        0.0236
     47 H          -4.6948    0.8762   -0.1040 H       1  UNL1        0.0236
     48 H          -4.0448    2.3966    0.4944 H       1  UNL1        0.0236
     49 H          -0.5824    1.8819    0.0961 H       1  UNL1        0.0236
     50 H          -1.8676    3.0011    0.6288 H       1  UNL1        0.0236
     51 H          -1.3121    1.6050    1.7014 H       1  UNL1        0.0236
     52 H          -2.7203    0.5820   -2.1691 H       1  UNL1        0.0236
     53 H          -1.4180    1.8167   -1.7385 H       1  UNL1        0.0236
     54 H          -3.1310    2.2814   -1.6224 H       1  UNL1        0.0236
@<TRIPOS>BOND
     1     1     2    1
     2     2     3    1
     3     3     4    1
     4     4     5    1
     5     5     6    1
     6     6     7    1
     7     7     8    1
     8     7     9   am
     9     9    10    2
    10     5    11    1
    11    11    12    2
    12    11    13   am
    13    13    14    1
    14    14    15    1
    15    15    16    2
    16    15    17   am
    17    17    18    1
    18    17    19    1
    19    14    20    1
    20    20    21    1
    21    20    22    1
    22    20    23    1
    23     1    24    1
    24     1    25    1
    25     1    26    1
    26     2    27    1
    27     2    28    1
    28     3    29    1
    29     3    30    1
    30     4    31    1
    31     4    32    1
    32     5    33    1
    33     6    34    1
    34     6    35    1
    35     8    36    1
    36     9    37    1
    37    13    38    1
    38    14    39    1
    39    18    40    1
    40    18    41    1
    41    18    42    1
    42    19    43    1
    43    19    44    1
    44    19    45    1
    45    21    46    1
    46    21    47    1
    47    21    48    1
    48    22    49    1
    49    22    50    1
    50    22    51    1
    51    23    52    1
    52    23    53    1
    53    23    54    1
