
     RDKit          3D

 39 40  0  0  0  0  0  0  0  0999 V2000
   -1.4972    3.6480   -0.4218 C   0  0  0  0  0  0  0  0  0  0  0  0
   -1.2104    2.3894    0.3277 C   0  0  0  0  0  0  0  0  0  0  0  0
   -0.2717    1.5277   -0.4611 C   0  0  0  0  0  0  0  0  0  0  0  0
    0.0959    1.9804   -1.5562 O   0  0  0  0  0  0  0  0  0  0  0  0
    0.1692    0.2090    0.0778 C   0  0  0  0  0  0  0  0  0  0  0  0
    0.9993   -0.4332   -1.0293 C   0  0  0  0  0  0  0  0  0  0  0  0
    2.0134   -1.4017   -0.4937 C   0  0  0  0  0  0  0  0  0  0  0  0
    2.8866   -0.8360    0.4994 N   0  0  0  0  0  0  0  0  0  0  0  0
    4.2829   -0.9920    0.1545 C   0  0  0  0  0  0  0  0  0  0  0  0
    2.5004    0.5350    0.7200 C   0  0  0  0  0  0  0  0  0  0  0  0
    1.0511    0.4812    1.2262 C   0  0  0  0  0  0  0  0  0  0  0  0
   -0.9959   -0.6375    0.2856 C   0  0  0  0  0  0  0  0  0  0  0  0
   -1.9130   -0.6276   -0.7750 C   0  0  0  0  0  0  0  0  0  0  0  0
   -3.0662   -1.4116   -0.6669 C   0  0  0  0  0  0  0  0  0  0  0  0
   -3.9773   -1.3985   -1.7265 O   0  0  0  0  0  0  0  0  0  0  0  0
   -3.3156   -2.1926    0.4634 C   0  0  0  0  0  0  0  0  0  0  0  0
   -2.4124   -2.1992    1.5024 C   0  0  0  0  0  0  0  0  0  0  0  0
   -1.2836   -1.4147    1.3655 C   0  0  0  0  0  0  0  0  0  0  0  0
   -2.5540    3.9517   -0.2824 H   0  0  0  0  0  0  0  0  0  0  0  0
   -1.3760    3.4669   -1.5256 H   0  0  0  0  0  0  0  0  0  0  0  0
   -0.7963    4.4729   -0.1837 H   0  0  0  0  0  0  0  0  0  0  0  0
   -0.7612    2.6915    1.3010 H   0  0  0  0  0  0  0  0  0  0  0  0
   -2.1573    1.9037    0.5716 H   0  0  0  0  0  0  0  0  0  0  0  0
    0.3287   -1.0419   -1.6902 H   0  0  0  0  0  0  0  0  0  0  0  0
    1.4509    0.3306   -1.6958 H   0  0  0  0  0  0  0  0  0  0  0  0
    2.6528   -1.6881   -1.3548 H   0  0  0  0  0  0  0  0  0  0  0  0
    1.5241   -2.3366   -0.1669 H   0  0  0  0  0  0  0  0  0  0  0  0
    4.3660   -1.1086   -0.9462 H   0  0  0  0  0  0  0  0  0  0  0  0
    4.8922   -0.1605    0.5444 H   0  0  0  0  0  0  0  0  0  0  0  0
    4.6166   -1.9639    0.5859 H   0  0  0  0  0  0  0  0  0  0  0  0
    3.1386    0.9967    1.5024 H   0  0  0  0  0  0  0  0  0  0  0  0
    2.6198    1.1066   -0.1943 H   0  0  0  0  0  0  0  0  0  0  0  0
    1.0928   -0.2465    2.0343 H   0  0  0  0  0  0  0  0  0  0  0  0
    0.8363    1.4794    1.6901 H   0  0  0  0  0  0  0  0  0  0  0  0
   -1.7873   -0.0465   -1.6840 H   0  0  0  0  0  0  0  0  0  0  0  0
   -4.7499   -2.0281   -1.7028 H   0  0  0  0  0  0  0  0  0  0  0  0
   -4.2345   -2.7907    0.5013 H   0  0  0  0  0  0  0  0  0  0  0  0
   -2.5810   -2.8027    2.4033 H   0  0  0  0  0  0  0  0  0  0  0  0
   -0.5766   -1.4121    2.1646 H   0  0  0  0  0  0  0  0  0  0  0  0
  1  2  1  0
  2  3  1  0
  3  4  2  0
  3  5  1  0
  5  6  1  0
  6  7  1  0
  7  8  1  0
  8  9  1  0
  8 10  1  0
 10 11  1  0
  5 12  1  0
 12 13  2  0
 13 14  1  0
 14 15  1  0
 14 16  2  0
 16 17  1  0
 17 18  2  0
 11  5  1  0
 18 12  1  0
  1 19  1  0
  1 20  1  0
  1 21  1  0
  2 22  1  0
  2 23  1  0
  6 24  1  0
  6 25  1  0
  7 26  1  0
  7 27  1  0
  9 28  1  0
  9 29  1  0
  9 30  1  0
 10 31  1  0
 10 32  1  0
 11 33  1  0
 11 34  1  0
 13 35  1  0
 15 36  1  0
 16 37  1  0
 17 38  1  0
 18 39  1  0
M  END
$$$$
