
     RDKit          3D

 95 98  0  0  0  0  0  0  0  0999 V2000
    2.3090    2.2209   -1.1516 C   0  0  0  0  0  0  0  0  0  0  0  0
    1.4680    1.0382   -1.5035 C   0  0  0  0  0  0  0  0  0  0  0  0
    1.0448    0.1394   -0.5218 N   0  0  0  0  0  0  0  0  0  0  0  0
   -0.3649   -0.1318   -0.3457 C   0  0  0  0  0  0  0  0  0  0  0  0
   -0.6856   -1.4955   -0.4890 C   0  0  0  0  0  0  0  0  0  0  0  0
   -1.9863   -1.9487   -0.3787 C   0  0  0  0  0  0  0  0  0  0  0  0
   -2.1356   -3.4426   -0.3643 C   0  0  0  0  0  0  0  0  0  0  0  0
   -2.2573   -4.6138   -0.3366 C   0  0  0  0  0  0  0  0  0  0  0  0
   -2.4045   -6.0699   -0.2786 C   0  0  0  0  0  0  0  0  0  0  0  0
   -3.7203   -6.5573   -0.4830 N   0  0  0  0  0  0  0  0  0  0  0  0
   -4.5784   -6.3699    0.6887 C   0  0  0  0  0  0  0  0  0  0  0  0
   -6.0321   -6.5330    0.3879 C   0  0  0  0  0  0  0  0  0  0  0  0
   -6.1709   -7.0462   -0.9028 O   0  0  0  0  0  0  0  0  0  0  0  0
   -5.7119   -6.1141   -1.8520 C   0  0  0  0  0  0  0  0  0  0  0  0
   -4.2918   -5.6849   -1.5456 C   0  0  0  0  0  0  0  0  0  0  0  0
   -2.9756   -1.0919   -0.1536 C   0  0  0  0  0  0  0  0  0  0  0  0
   -2.7015    0.2617   -0.0041 C   0  0  0  0  0  0  0  0  0  0  0  0
   -3.6588    1.3057    0.3011 C   0  0  0  0  0  0  0  0  0  0  0  0
   -4.4320    1.7743   -0.5945 O   0  0  0  0  0  0  0  0  0  0  0  0
   -3.7347    1.8344    1.5760 N   0  0  0  0  0  0  0  0  0  0  0  0
   -4.5383    2.9024    2.1179 C   0  0  0  0  0  0  0  0  0  0  0  0
   -4.2127    4.1696    1.4394 C   0  0  0  0  0  0  0  0  0  0  0  0
   -4.9790    4.7451    0.4600 C   0  0  0  0  0  0  0  0  0  0  0  0
   -6.3732    4.2363    0.2940 C   0  0  0  0  0  0  0  0  0  0  0  0
   -4.5616    5.8613   -0.2856 C   0  0  0  0  0  0  0  0  0  0  0  0
   -3.2980    6.3897    0.0235 C   0  0  0  0  0  0  0  0  0  0  0  0
   -2.7694    7.5638   -0.7413 C   0  0  0  0  0  0  0  0  0  0  0  0
   -2.5750    5.8306    0.9664 N   0  0  0  0  0  0  0  0  0  0  0  0
   -2.9890    4.7538    1.6730 C   0  0  0  0  0  0  0  0  0  0  0  0
   -2.2030    4.2946    2.5707 O   0  0  0  0  0  0  0  0  0  0  0  0
   -1.3649    0.7113   -0.1004 C   0  0  0  0  0  0  0  0  0  0  0  0
   -1.0377    2.1388    0.1936 C   0  0  0  0  0  0  0  0  0  0  0  0
    1.9538   -0.7018    0.2796 C   0  0  1  0  0  0  0  0  0  0  0  0
    2.7983   -1.5512   -0.6345 C   0  0  0  0  0  0  0  0  0  0  0  0
    4.1382   -1.8027    0.0158 C   0  0  0  0  0  0  0  0  0  0  0  0
    4.7549   -0.4104    0.1506 C   0  0  2  0  0  0  0  0  0  0  0  0
    6.1798   -0.5009    0.1689 N   0  0  0  0  0  0  0  0  0  0  0  0
    6.6959   -1.2294    1.2625 C   0  0  0  0  0  0  0  0  0  0  0  0
    6.7864    0.6988   -0.2363 C   0  0  0  0  0  0  0  0  0  0  0  0
    8.2657    0.5749   -0.4560 C   0  0  0  0  0  0  0  0  0  0  0  0
    8.9769    0.2168    0.6666 O   0  0  0  0  0  0  0  0  0  0  0  0
   10.3304    0.0889    0.3605 C   0  0  0  0  0  0  0  0  0  0  0  0
    4.0897    0.2062    1.3169 C   0  0  0  0  0  0  0  0  0  0  0  0
    2.6297   -0.0638    1.4072 C   0  0  0  0  0  0  0  0  0  0  0  0
    1.8984    3.1914   -1.4956 H   0  0  0  0  0  0  0  0  0  0  0  0
    3.3590    2.1809   -1.6107 H   0  0  0  0  0  0  0  0  0  0  0  0
    2.5644    2.2446   -0.0620 H   0  0  0  0  0  0  0  0  0  0  0  0
    1.9868    0.5469   -2.3677 H   0  0  0  0  0  0  0  0  0  0  0  0
    0.5575    1.5285   -2.0388 H   0  0  0  0  0  0  0  0  0  0  0  0
    0.0787   -2.2305   -0.7056 H   0  0  0  0  0  0  0  0  0  0  0  0
   -1.7048   -6.6081   -0.9702 H   0  0  0  0  0  0  0  0  0  0  0  0
   -2.0747   -6.3990    0.7392 H   0  0  0  0  0  0  0  0  0  0  0  0
   -4.2970   -5.4768    1.2707 H   0  0  0  0  0  0  0  0  0  0  0  0
   -4.3083   -7.2660    1.3651 H   0  0  0  0  0  0  0  0  0  0  0  0
   -6.5007   -7.2619    1.0747 H   0  0  0  0  0  0  0  0  0  0  0  0
   -6.5258   -5.5347    0.4836 H   0  0  0  0  0  0  0  0  0  0  0  0
   -5.7604   -6.4960   -2.8855 H   0  0  0  0  0  0  0  0  0  0  0  0
   -6.3358   -5.1992   -1.7206 H   0  0  0  0  0  0  0  0  0  0  0  0
   -3.6786   -5.7245   -2.4303 H   0  0  0  0  0  0  0  0  0  0  0  0
   -4.2589   -4.6508   -1.1082 H   0  0  0  0  0  0  0  0  0  0  0  0
   -3.9986   -1.4309   -0.0768 H   0  0  0  0  0  0  0  0  0  0  0  0
   -3.1074    1.3543    2.3271 H   0  0  0  0  0  0  0  0  0  0  0  0
   -5.6196    2.6599    1.8198 H   0  0  0  0  0  0  0  0  0  0  0  0
   -4.4903    2.9705    3.1966 H   0  0  0  0  0  0  0  0  0  0  0  0
   -6.8391    4.2983    1.3274 H   0  0  0  0  0  0  0  0  0  0  0  0
   -6.4362    3.2776   -0.1555 H   0  0  0  0  0  0  0  0  0  0  0  0
   -6.9563    5.0012   -0.3122 H   0  0  0  0  0  0  0  0  0  0  0  0
   -5.1483    6.3068   -1.0587 H   0  0  0  0  0  0  0  0  0  0  0  0
   -2.9581    8.5042   -0.2064 H   0  0  0  0  0  0  0  0  0  0  0  0
   -3.1972    7.6107   -1.7469 H   0  0  0  0  0  0  0  0  0  0  0  0
   -1.6688    7.3659   -0.8812 H   0  0  0  0  0  0  0  0  0  0  0  0
   -1.6137    6.2649    1.1391 H   0  0  0  0  0  0  0  0  0  0  0  0
   -1.2273    2.2285    1.3229 H   0  0  0  0  0  0  0  0  0  0  0  0
   -1.7302    2.8633   -0.2377 H   0  0  0  0  0  0  0  0  0  0  0  0
    0.0248    2.3722    0.1192 H   0  0  0  0  0  0  0  0  0  0  0  0
    1.2788   -1.5110    0.7527 H   0  0  0  0  0  0  0  0  0  0  0  0
    2.3713   -2.5471   -0.8496 H   0  0  0  0  0  0  0  0  0  0  0  0
    2.9795   -1.0828   -1.6171 H   0  0  0  0  0  0  0  0  0  0  0  0
    4.0984   -2.2913    1.0058 H   0  0  0  0  0  0  0  0  0  0  0  0
    4.7798   -2.3760   -0.6706 H   0  0  0  0  0  0  0  0  0  0  0  0
    4.4884    0.1316   -0.7900 H   0  0  0  0  0  0  0  0  0  0  0  0
    7.3540   -0.6053    1.9121 H   0  0  0  0  0  0  0  0  0  0  0  0
    5.8856   -1.7132    1.8994 H   0  0  0  0  0  0  0  0  0  0  0  0
    7.3006   -2.1117    0.8811 H   0  0  0  0  0  0  0  0  0  0  0  0
    6.6154    1.5369    0.5364 H   0  0  0  0  0  0  0  0  0  0  0  0
    6.3731    1.0821   -1.2425 H   0  0  0  0  0  0  0  0  0  0  0  0
    8.4589   -0.2017   -1.2468 H   0  0  0  0  0  0  0  0  0  0  0  0
    8.6918    1.5282   -0.8997 H   0  0  0  0  0  0  0  0  0  0  0  0
   10.8756   -0.0901    1.3248 H   0  0  0  0  0  0  0  0  0  0  0  0
   10.4152   -0.8731   -0.2168 H   0  0  0  0  0  0  0  0  0  0  0  0
   10.7324    0.8778   -0.2688 H   0  0  0  0  0  0  0  0  0  0  0  0
    4.5812   -0.2354    2.2046 H   0  0  0  0  0  0  0  0  0  0  0  0
    4.3954    1.2700    1.3420 H   0  0  0  0  0  0  0  0  0  0  0  0
    2.1032    0.8601    1.7526 H   0  0  0  0  0  0  0  0  0  0  0  0
    2.5105   -0.7381    2.3369 H   0  0  0  0  0  0  0  0  0  0  0  0
  1  2  1  0
  2  3  1  0
  3  4  1  0
  4  5  2  0
  5  6  1  0
  6  7  1  0
  7  8  3  0
  8  9  1  0
  9 10  1  0
 10 11  1  0
 11 12  1  0
 12 13  1  0
 13 14  1  0
 14 15  1  0
  6 16  2  0
 16 17  1  0
 17 18  1  0
 18 19  2  0
 18 20  1  0
 20 21  1  0
 21 22  1  0
 22 23  2  0
 23 24  1  0
 23 25  1  0
 25 26  2  0
 26 27  1  0
 26 28  1  0
 28 29  1  0
 29 30  2  0
 17 31  2  0
 31 32  1  0
  3 33  1  0
 33 34  1  0
 34 35  1  0
 35 36  1  0
 36 37  1  0
 37 38  1  0
 37 39  1  0
 39 40  1  0
 40 41  1  0
 41 42  1  0
 36 43  1  0
 43 44  1  0
 31  4  1  0
 44 33  1  0
 15 10  1  0
 29 22  1  0
  1 45  1  0
  1 46  1  0
  1 47  1  0
  2 48  1  0
  2 49  1  0
  5 50  1  0
  9 51  1  0
  9 52  1  0
 11 53  1  0
 11 54  1  0
 12 55  1  0
 12 56  1  0
 14 57  1  0
 14 58  1  0
 15 59  1  0
 15 60  1  0
 16 61  1  0
 20 62  1  0
 21 63  1  0
 21 64  1  0
 24 65  1  0
 24 66  1  0
 24 67  1  0
 25 68  1  0
 27 69  1  0
 27 70  1  0
 27 71  1  0
 28 72  1  0
 32 73  1  0
 32 74  1  0
 32 75  1  0
 33 76  1  1
 34 77  1  0
 34 78  1  0
 35 79  1  0
 35 80  1  0
 36 81  1  6
 38 82  1  0
 38 83  1  0
 38 84  1  0
 39 85  1  0
 39 86  1  0
 40 87  1  0
 40 88  1  0
 42 89  1  0
 42 90  1  0
 42 91  1  0
 43 92  1  0
 43 93  1  0
 44 94  1  0
 44 95  1  0
M  END
$$$$
