@<TRIPOS>MOLECULE
*****
 95 98 0 0 0
SMALL
GASTEIGER

@<TRIPOS>ATOM
      1 C           2.3090    2.2209   -1.1516 C.3     1  UNL1       -0.0494
      2 C           1.4680    1.0382   -1.5035 C.3     1  UNL1        0.0097
      3 N           1.0448    0.1394   -0.5218 N.pl3   1  UNL1       -0.3268
      4 C          -0.3649   -0.1318   -0.3457 C.ar    1  UNL1        0.0347
      5 C          -0.6856   -1.4955   -0.4890 C.ar    1  UNL1       -0.0249
      6 C          -1.9863   -1.9487   -0.3787 C.ar    1  UNL1        0.0274
      7 C          -2.1356   -3.4426   -0.3643 C.1     1  UNL1       -0.0649
      8 C          -2.2573   -4.6138   -0.3366 C.1     1  UNL1       -0.0814
      9 C          -2.4045   -6.0699   -0.2786 C.3     1  UNL1        0.0614
     10 N          -3.7203   -6.5573   -0.4830 N.3     1  UNL1       -0.2872
     11 C          -4.5784   -6.3699    0.6887 C.3     1  UNL1        0.0233
     12 C          -6.0321   -6.5330    0.3879 C.3     1  UNL1        0.0605
     13 O          -6.1709   -7.0462   -0.9028 O.3     1  UNL1       -0.3772
     14 C          -5.7119   -6.1141   -1.8520 C.3     1  UNL1        0.0605
     15 C          -4.2918   -5.6849   -1.5456 C.3     1  UNL1        0.0233
     16 C          -2.9756   -1.0919   -0.1536 C.ar    1  UNL1       -0.0338
     17 C          -2.7015    0.2617   -0.0041 C.ar    1  UNL1        0.0425
     18 C          -3.6588    1.3057    0.3011 C.2     1  UNL1        0.2447
     19 O          -4.4320    1.7743   -0.5945 O.2     1  UNL1       -0.2702
     20 N          -3.7347    1.8344    1.5760 N.am    1  UNL1       -0.3070
     21 C          -4.5383    2.9024    2.1179 C.3     1  UNL1        0.0425
     22 C          -4.2127    4.1696    1.4394 C.ar    1  UNL1        0.0368
     23 C          -4.9790    4.7451    0.4600 C.ar    1  UNL1       -0.0390
     24 C          -6.3732    4.2363    0.2940 C.3     1  UNL1       -0.0392
     25 C          -4.5616    5.8613   -0.2856 C.ar    1  UNL1       -0.0393
     26 C          -3.2980    6.3897    0.0235 C.ar    1  UNL1        0.0162
     27 C          -2.7694    7.5638   -0.7413 C.3     1  UNL1       -0.0244
     28 N          -2.5750    5.8306    0.9664 N.ar    1  UNL1       -0.3262
     29 C          -2.9890    4.7538    1.6730 C.ar    1  UNL1        0.2539
     30 O          -2.2030    4.2946    2.5707 O.2     1  UNL1       -0.2675
     31 C          -1.3649    0.7113   -0.1004 C.ar    1  UNL1       -0.0173
     32 C          -1.0377    2.1388    0.1936 C.3     1  UNL1       -0.0372
     33 C           1.9538   -0.7018    0.2796 C.3     1  UNL1        0.0236
     34 C           2.7983   -1.5512   -0.6345 C.3     1  UNL1       -0.0330
     35 C           4.1382   -1.8027    0.0158 C.3     1  UNL1       -0.0357
     36 C           4.7549   -0.4104    0.1506 C.3     1  UNL1        0.0103
     37 N           6.1798   -0.5009    0.1689 N.3     1  UNL1       -0.3002
     38 C           6.6959   -1.2294    1.2625 C.3     1  UNL1       -0.0124
     39 C           6.7864    0.6988   -0.2363 C.3     1  UNL1        0.0223
     40 C           8.2657    0.5749   -0.4560 C.3     1  UNL1        0.0600
     41 O           8.9769    0.2168    0.6666 O.3     1  UNL1       -0.3817
     42 C          10.3304    0.0889    0.3605 C.3     1  UNL1        0.0365
     43 C           4.0897    0.2062    1.3169 C.3     1  UNL1       -0.0357
     44 C           2.6297   -0.0638    1.4072 C.3     1  UNL1       -0.0330
     45 H           1.8984    3.1914   -1.4956 H       1  UNL1        0.0245
     46 H           3.3590    2.1809   -1.6107 H       1  UNL1        0.0245
     47 H           2.5644    2.2446   -0.0620 H       1  UNL1        0.0245
     48 H           1.9868    0.5469   -2.3677 H       1  UNL1        0.0461
     49 H           0.5575    1.5285   -2.0388 H       1  UNL1        0.0461
     50 H           0.0787   -2.2305   -0.7056 H       1  UNL1        0.0648
     51 H          -1.7048   -6.6081   -0.9702 H       1  UNL1        0.0563
     52 H          -2.0747   -6.3990    0.7392 H       1  UNL1        0.0563
     53 H          -4.2970   -5.4768    1.2707 H       1  UNL1        0.0449
     54 H          -4.3083   -7.2660    1.3651 H       1  UNL1        0.0449
     55 H          -6.5007   -7.2619    1.0747 H       1  UNL1        0.0572
     56 H          -6.5258   -5.5347    0.4836 H       1  UNL1        0.0572
     57 H          -5.7604   -6.4960   -2.8855 H       1  UNL1        0.0572
     58 H          -6.3358   -5.1992   -1.7206 H       1  UNL1        0.0572
     59 H          -3.6786   -5.7245   -2.4303 H       1  UNL1        0.0449
     60 H          -4.2589   -4.6508   -1.1082 H       1  UNL1        0.0449
     61 H          -3.9986   -1.4309   -0.0768 H       1  UNL1        0.0637
     62 H          -3.1074    1.3543    2.3271 H       1  UNL1        0.1493
     63 H          -5.6196    2.6599    1.8198 H       1  UNL1        0.0513
     64 H          -4.4903    2.9705    3.1966 H       1  UNL1        0.0513
     65 H          -6.8391    4.2983    1.3274 H       1  UNL1        0.0278
     66 H          -6.4362    3.2776   -0.1555 H       1  UNL1        0.0278
     67 H          -6.9563    5.0012   -0.3122 H       1  UNL1        0.0278
     68 H          -5.1483    6.3068   -1.0587 H       1  UNL1        0.0637
     69 H          -2.9581    8.5042   -0.2064 H       1  UNL1        0.0292
     70 H          -3.1972    7.6107   -1.7469 H       1  UNL1        0.0292
     71 H          -1.6688    7.3659   -0.8812 H       1  UNL1        0.0292
     72 H          -1.6137    6.2649    1.1391 H       1  UNL1        0.1686
     73 H          -1.2273    2.2285    1.3229 H       1  UNL1        0.0278
     74 H          -1.7302    2.8633   -0.2377 H       1  UNL1        0.0278
     75 H           0.0248    2.3722    0.1192 H       1  UNL1        0.0278
     76 H           1.2788   -1.5110    0.7527 H       1  UNL1        0.0500
     77 H           2.3713   -2.5471   -0.8496 H       1  UNL1        0.0284
     78 H           2.9795   -1.0828   -1.6171 H       1  UNL1        0.0284
     79 H           4.0984   -2.2913    1.0058 H       1  UNL1        0.0281
     80 H           4.7798   -2.3760   -0.6706 H       1  UNL1        0.0281
     81 H           4.4884    0.1316   -0.7900 H       1  UNL1        0.0462
     82 H           7.3540   -0.6053    1.9121 H       1  UNL1        0.0391
     83 H           5.8856   -1.7132    1.8994 H       1  UNL1        0.0391
     84 H           7.3006   -2.1117    0.8811 H       1  UNL1        0.0391
     85 H           6.6154    1.5369    0.5364 H       1  UNL1        0.0449
     86 H           6.3731    1.0821   -1.2425 H       1  UNL1        0.0449
     87 H           8.4589   -0.2017   -1.2468 H       1  UNL1        0.0572
     88 H           8.6918    1.5282   -0.8997 H       1  UNL1        0.0572
     89 H          10.8756   -0.0901    1.3248 H       1  UNL1        0.0523
     90 H          10.4152   -0.8731   -0.2168 H       1  UNL1        0.0523
     91 H          10.7324    0.8778   -0.2688 H       1  UNL1        0.0523
     92 H           4.5812   -0.2354    2.2046 H       1  UNL1        0.0281
     93 H           4.3954    1.2700    1.3420 H       1  UNL1        0.0281
     94 H           2.1032    0.8601    1.7526 H       1  UNL1        0.0284
     95 H           2.5105   -0.7381    2.3369 H       1  UNL1        0.0284
@<TRIPOS>BOND
     1     1     2    1
     2     2     3    1
     3     3     4    1
     4     4     5   ar
     5     5     6   ar
     6     6     7    1
     7     7     8    3
     8     8     9    1
     9     9    10    1
    10    10    11    1
    11    11    12    1
    12    12    13    1
    13    13    14    1
    14    14    15    1
    15     6    16   ar
    16    16    17   ar
    17    17    18    1
    18    18    19    2
    19    18    20   am
    20    20    21    1
    21    21    22    1
    22    22    23   ar
    23    23    24    1
    24    23    25   ar
    25    25    26   ar
    26    26    27    1
    27    26    28   ar
    28    28    29   ar
    29    29    30    2
    30    17    31   ar
    31    31    32    1
    32     3    33    1
    33    33    34    1
    34    34    35    1
    35    35    36    1
    36    36    37    1
    37    37    38    1
    38    37    39    1
    39    39    40    1
    40    40    41    1
    41    41    42    1
    42    36    43    1
    43    43    44    1
    44    31     4   ar
    45    44    33    1
    46    15    10    1
    47    29    22   ar
    48     1    45    1
    49     1    46    1
    50     1    47    1
    51     2    48    1
    52     2    49    1
    53     5    50    1
    54     9    51    1
    55     9    52    1
    56    11    53    1
    57    11    54    1
    58    12    55    1
    59    12    56    1
    60    14    57    1
    61    14    58    1
    62    15    59    1
    63    15    60    1
    64    16    61    1
    65    20    62    1
    66    21    63    1
    67    21    64    1
    68    24    65    1
    69    24    66    1
    70    24    67    1
    71    25    68    1
    72    27    69    1
    73    27    70    1
    74    27    71    1
    75    28    72    1
    76    32    73    1
    77    32    74    1
    78    32    75    1
    79    33    76    1
    80    34    77    1
    81    34    78    1
    82    35    79    1
    83    35    80    1
    84    36    81    1
    85    38    82    1
    86    38    83    1
    87    38    84    1
    88    39    85    1
    89    39    86    1
    90    40    87    1
    91    40    88    1
    92    42    89    1
    93    42    90    1
    94    42    91    1
    95    43    92    1
    96    43    93    1
    97    44    94    1
    98    44    95    1
