@<TRIPOS>MOLECULE
*****
 73 80 0 0 0
SMALL
GASTEIGER

@<TRIPOS>ATOM
      1 S         -12.0308    0.5205    1.6703 S.2     1  UNL1       -0.0111
      2 C         -10.5369    0.8269    1.1214 C.ar    1  UNL1        0.1799
      3 N         -10.2131    1.8784    0.3243 N.ar    1  UNL1       -0.2537
      4 N          -8.9194    1.8132    0.0764 N.ar    1  UNL1       -0.1529
      5 C          -8.3733    0.7644    0.6748 C.ar    1  UNL1        0.1687
      6 C          -7.0776    0.2917    0.7069 C.ar    1  UNL1        0.0455
      7 C          -6.0462    0.9347    0.0308 C.ar    1  UNL1       -0.0392
      8 C          -4.7578    0.4335    0.0840 C.ar    1  UNL1        0.0088
      9 C          -3.6398    1.0643   -0.6042 C.ar    1  UNL1       -0.0158
     10 C          -3.2713    2.3551   -0.2772 C.ar    1  UNL1       -0.0540
     11 C          -2.2188    2.9968   -0.9001 C.ar    1  UNL1       -0.0612
     12 C          -1.4918    2.3632   -1.8810 C.ar    1  UNL1       -0.0617
     13 C          -1.8492    1.0745   -2.2171 C.ar    1  UNL1       -0.0612
     14 C          -2.8984    0.4475   -1.5896 C.ar    1  UNL1       -0.0540
     15 C          -4.5287   -0.7168    0.8239 C.ar    1  UNL1        0.0794
     16 C          -3.1746   -1.2355    0.8741 C.ar    1  UNL1        0.0010
     17 C          -2.2001   -0.4404    1.4532 C.ar    1  UNL1       -0.0522
     18 C          -0.8865   -0.8404    1.5489 C.ar    1  UNL1       -0.0567
     19 C          -0.5004   -2.0607    1.0636 C.ar    1  UNL1       -0.0333
     20 C           0.9141   -2.4692    1.1768 C.3     1  UNL1        0.0240
     21 N           1.7308   -2.1007    0.0715 N.3     1  UNL1       -0.2981
     22 C           1.8409   -0.7126   -0.2101 C.3     1  UNL1       -0.0001
     23 C           3.1378   -0.3538   -0.9048 C.3     1  UNL1       -0.0304
     24 C           4.2602   -0.8125   -0.0172 C.3     1  UNL1        0.0212
     25 C           5.5584   -0.3774   -0.6188 C.ar    1  UNL1        0.1344
     26 N           6.0271   -0.7023   -1.8512 N.ar    1  UNL1       -0.1339
     27 N           7.2187   -0.1271   -2.0313 N.ar    1  UNL1       -0.1278
     28 C           7.5276    0.5699   -0.9233 C.ar    1  UNL1        0.1800
     29 C           8.7533    1.3478   -0.7150 C.ar    1  UNL1        0.1077
     30 C           8.9467    2.0177    0.4736 C.ar    1  UNL1       -0.0326
     31 C          10.0870    2.7533    0.6938 C.ar    1  UNL1       -0.0582
     32 C          11.0403    2.8136   -0.2935 C.ar    1  UNL1       -0.0436
     33 C          10.8324    2.1440   -1.4644 C.ar    1  UNL1        0.0284
     34 N           9.7085    1.4356   -1.6463 N.ar    1  UNL1       -0.2519
     35 N           6.5028    0.4046   -0.0742 N.ar    1  UNL1       -0.3237
     36 C           4.1904   -2.2942    0.1320 C.3     1  UNL1       -0.0304
     37 C           2.8700   -2.9037   -0.1739 C.3     1  UNL1       -0.0001
     38 C          -1.4709   -2.8542    0.4860 C.ar    1  UNL1       -0.0567
     39 C          -2.7913   -2.4630    0.3849 C.ar    1  UNL1       -0.0522
     40 N          -5.5570   -1.3251    1.4755 N.ar    1  UNL1       -0.2459
     41 C          -6.8156   -0.8507    1.4340 C.ar    1  UNL1        0.0766
     42 C          -7.8591   -1.4801    2.1034 C.ar    1  UNL1       -0.0190
     43 C          -9.1384   -0.9676    2.0402 C.ar    1  UNL1        0.0157
     44 N          -9.3900    0.1464    1.3303 N.ar    1  UNL1       -0.2781
     45 H         -10.8640    2.6042   -0.0282 H       1  UNL1        0.1911
     46 H          -6.2462    1.8353   -0.5438 H       1  UNL1        0.0632
     47 H          -3.8244    2.8587    0.4802 H       1  UNL1        0.0624
     48 H          -1.9398    4.0052   -0.6369 H       1  UNL1        0.0618
     49 H          -0.6542    2.8542   -2.3867 H       1  UNL1        0.0618
     50 H          -1.2553    0.5971   -2.9979 H       1  UNL1        0.0618
     51 H          -3.1428   -0.5623   -1.8851 H       1  UNL1        0.0624
     52 H          -2.4688    0.5471    1.8554 H       1  UNL1        0.0624
     53 H          -0.1808   -0.1671    2.0140 H       1  UNL1        0.0621
     54 H           0.9953   -3.5629    1.3172 H       1  UNL1        0.0476
     55 H           1.3334   -1.9758    2.0986 H       1  UNL1        0.0476
     56 H           1.8731   -0.1687    0.7768 H       1  UNL1        0.0427
     57 H           1.0093   -0.2764   -0.7843 H       1  UNL1        0.0427
     58 H           3.1811    0.7481   -0.9564 H       1  UNL1        0.0284
     59 H           3.2574   -0.8231   -1.8831 H       1  UNL1        0.0284
     60 H           4.2060   -0.3553    1.0006 H       1  UNL1        0.0380
     61 H           8.2181    1.9940    1.2751 H       1  UNL1        0.0640
     62 H          10.2187    3.2793    1.6504 H       1  UNL1        0.0619
     63 H          11.9518    3.3922   -0.1375 H       1  UNL1        0.0633
     64 H          11.6113    2.2149   -2.2255 H       1  UNL1        0.0830
     65 H           6.4672    0.8332    0.8707 H       1  UNL1        0.1686
     66 H           4.5859   -2.5849    1.1317 H       1  UNL1        0.0284
     67 H           4.9341   -2.7290   -0.5992 H       1  UNL1        0.0284
     68 H           2.8085   -3.2741   -1.2360 H       1  UNL1        0.0427
     69 H           2.7703   -3.8411    0.4422 H       1  UNL1        0.0427
     70 H          -1.1924   -3.8173    0.0972 H       1  UNL1        0.0621
     71 H          -3.5501   -3.0989   -0.0739 H       1  UNL1        0.0624
     72 H          -7.6591   -2.3819    2.6788 H       1  UNL1        0.0654
     73 H          -9.9539   -1.4544    2.5600 H       1  UNL1        0.0815
@<TRIPOS>BOND
     1     1     2    2
     2     2     3   ar
     3     3     4   ar
     4     4     5   ar
     5     5     6   ar
     6     6     7   ar
     7     7     8   ar
     8     8     9    1
     9     9    10   ar
    10    10    11   ar
    11    11    12   ar
    12    12    13   ar
    13    13    14   ar
    14     8    15   ar
    15    15    16    1
    16    16    17   ar
    17    17    18   ar
    18    18    19   ar
    19    19    20    1
    20    20    21    1
    21    21    22    1
    22    22    23    1
    23    23    24    1
    24    24    25    1
    25    25    26   ar
    26    26    27   ar
    27    27    28   ar
    28    28    29    1
    29    29    30   ar
    30    30    31   ar
    31    31    32   ar
    32    32    33   ar
    33    33    34   ar
    34    28    35   ar
    35    24    36    1
    36    36    37    1
    37    19    38   ar
    38    38    39   ar
    39    15    40   ar
    40    40    41   ar
    41    41    42   ar
    42    42    43   ar
    43    43    44   ar
    44    44     2   ar
    45    44     5   ar
    46    41     6   ar
    47    14     9   ar
    48    39    16   ar
    49    37    21    1
    50    35    25   ar
    51    34    29   ar
    52     3    45    1
    53     7    46    1
    54    10    47    1
    55    11    48    1
    56    12    49    1
    57    13    50    1
    58    14    51    1
    59    17    52    1
    60    18    53    1
    61    20    54    1
    62    20    55    1
    63    22    56    1
    64    22    57    1
    65    23    58    1
    66    23    59    1
    67    24    60    1
    68    30    61    1
    69    31    62    1
    70    32    63    1
    71    33    64    1
    72    35    65    1
    73    36    66    1
    74    36    67    1
    75    37    68    1
    76    37    69    1
    77    38    70    1
    78    39    71    1
    79    42    72    1
    80    43    73    1
