@<TRIPOS>MOLECULE
*****
 56 60 0 0 0
SMALL
GASTEIGER

@<TRIPOS>ATOM
      1 N           1.0012    2.1635   -1.0257 N.pl3   1  UNL1       -0.3426
      2 C           2.1286    1.4115   -0.6130 C.ar    1  UNL1        0.1250
      3 N           3.3111    2.0080   -0.7287 N.ar    1  UNL1       -0.2394
      4 C           4.5019    1.4844   -0.4240 C.ar    1  UNL1        0.0386
      5 C           4.4594    0.1846    0.0587 C.ar    1  UNL1        0.0176
      6 C           5.6327   -0.5752    0.4496 C.ar    1  UNL1        0.0221
      7 C           5.8288   -1.3544    1.5721 C.ar    1  UNL1        0.0572
      8 N           7.0601   -1.8772    1.5374 N.ar    1  UNL1       -0.1790
      9 N           7.6466   -1.4519    0.4282 N.ar    1  UNL1       -0.2687
     10 C           8.9949   -1.8185    0.0565 C.3     1  UNL1        0.0646
     11 C           9.9438   -0.7915    0.6425 C.3     1  UNL1        0.0637
     12 O           9.5868    0.4458    0.1023 O.3     1  UNL1       -0.3932
     13 C           6.8215   -0.6532   -0.2754 C.ar    1  UNL1        0.0334
     14 C           3.2296   -0.4633    0.1895 C.ar    1  UNL1        0.0324
     15 S           2.8205   -2.0742    0.7367 S.2     1  UNL1       -0.0953
     16 C           1.0637   -1.9371    0.5207 C.ar    1  UNL1       -0.0153
     17 C           0.9187   -0.6555    0.0416 C.ar    1  UNL1        0.0002
     18 C          -0.4785   -0.1753   -0.2092 C.ar    1  UNL1       -0.0166
     19 C          -1.0147    0.9093    0.4375 C.ar    1  UNL1       -0.0522
     20 C          -2.3023    1.3380    0.1695 C.ar    1  UNL1       -0.0399
     21 C          -3.0945    0.6953   -0.7531 C.ar    1  UNL1        0.0348
     22 N          -4.4276    1.1245   -1.0429 N.am    1  UNL1       -0.2692
     23 C          -5.5598    0.6527   -0.3573 C.2     1  UNL1        0.3081
     24 O          -5.4004   -0.2004    0.5705 O.2     1  UNL1       -0.2522
     25 N          -6.8756    1.0956   -0.6648 N.am    1  UNL1       -0.2691
     26 C          -7.9982    0.6034    0.0420 C.ar    1  UNL1        0.0375
     27 C          -8.6415   -0.5238   -0.4277 C.ar    1  UNL1       -0.0403
     28 C          -9.7453   -1.0243    0.2502 C.ar    1  UNL1       -0.0573
     29 C         -10.2325   -0.4283    1.3950 C.ar    1  UNL1       -0.0263
     30 C          -9.6004    0.6880    1.8656 C.ar    1  UNL1        0.1252
     31 F         -10.0537    1.3026    2.9929 F       1  UNL1       -0.2054
     32 C          -8.4954    1.1930    1.1911 C.ar    1  UNL1       -0.0052
     33 C          -2.5505   -0.3975   -1.4020 C.ar    1  UNL1       -0.0399
     34 C          -1.2675   -0.8217   -1.1330 C.ar    1  UNL1       -0.0522
     35 C           2.0306    0.0853   -0.1241 C.ar    1  UNL1        0.0370
     36 H           0.4315    1.8796   -1.8625 H       1  UNL1        0.1437
     37 H           0.6983    3.0249   -0.5175 H       1  UNL1        0.1437
     38 H           5.4424    1.9811   -0.5241 H       1  UNL1        0.0837
     39 H           5.1047   -1.5188    2.3570 H       1  UNL1        0.0854
     40 H           9.0578   -1.7739   -1.0484 H       1  UNL1        0.0531
     41 H           9.2529   -2.8494    0.3858 H       1  UNL1        0.0531
     42 H          10.9948   -1.0391    0.3400 H       1  UNL1        0.0575
     43 H           9.8365   -0.7641    1.7409 H       1  UNL1        0.0575
     44 H           8.7695    0.7759    0.5574 H       1  UNL1        0.2095
     45 H           7.0532   -0.1692   -1.2256 H       1  UNL1        0.0832
     46 H           0.3319   -2.6904    0.7250 H       1  UNL1        0.0700
     47 H          -0.4072    1.4344    1.1923 H       1  UNL1        0.0624
     48 H          -2.6794    2.1940    0.7017 H       1  UNL1        0.0636
     49 H          -4.5196    1.8336   -1.8198 H       1  UNL1        0.1564
     50 H          -7.0128    1.7942   -1.4236 H       1  UNL1        0.1564
     51 H          -8.2775   -1.0063   -1.3215 H       1  UNL1        0.0636
     52 H         -10.2571   -1.9142   -0.1164 H       1  UNL1        0.0619
     53 H         -11.0968   -0.8373    1.9081 H       1  UNL1        0.0646
     54 H          -7.9789    2.0780    1.5476 H       1  UNL1        0.0665
     55 H          -3.1615   -0.9077   -2.1254 H       1  UNL1        0.0636
     56 H          -0.8246   -1.6873   -1.6411 H       1  UNL1        0.0624
@<TRIPOS>BOND
     1     1     2    1
     2     2     3   ar
     3     3     4   ar
     4     4     5   ar
     5     5     6    1
     6     6     7   ar
     7     7     8   ar
     8     8     9   ar
     9     9    10    1
    10    10    11    1
    11    11    12    1
    12     9    13   ar
    13     5    14   ar
    14    14    15   ar
    15    15    16   ar
    16    16    17   ar
    17    17    18    1
    18    18    19   ar
    19    19    20   ar
    20    20    21   ar
    21    21    22    1
    22    22    23   am
    23    23    24    2
    24    23    25   am
    25    25    26    1
    26    26    27   ar
    27    27    28   ar
    28    28    29   ar
    29    29    30   ar
    30    30    31    1
    31    30    32   ar
    32    21    33   ar
    33    33    34   ar
    34    17    35   ar
    35    35     2   ar
    36    13     6   ar
    37    35    14   ar
    38    34    18   ar
    39    32    26   ar
    40     1    36    1
    41     1    37    1
    42     4    38    1
    43     7    39    1
    44    10    40    1
    45    10    41    1
    46    11    42    1
    47    11    43    1
    48    12    44    1
    49    13    45    1
    50    16    46    1
    51    19    47    1
    52    20    48    1
    53    22    49    1
    54    25    50    1
    55    27    51    1
    56    28    52    1
    57    29    53    1
    58    32    54    1
    59    33    55    1
    60    34    56    1
