
     RDKit          3D

 56 60  0  0  0  0  0  0  0  0999 V2000
    1.0012    2.1635   -1.0257 N   0  0  0  0  0  0  0  0  0  0  0  0
    2.1286    1.4115   -0.6130 C   0  0  0  0  0  0  0  0  0  0  0  0
    3.3111    2.0080   -0.7287 N   0  0  0  0  0  0  0  0  0  0  0  0
    4.5019    1.4844   -0.4240 C   0  0  0  0  0  0  0  0  0  0  0  0
    4.4594    0.1846    0.0587 C   0  0  0  0  0  0  0  0  0  0  0  0
    5.6327   -0.5752    0.4496 C   0  0  0  0  0  0  0  0  0  0  0  0
    5.8288   -1.3544    1.5721 C   0  0  0  0  0  0  0  0  0  0  0  0
    7.0601   -1.8772    1.5374 N   0  0  0  0  0  0  0  0  0  0  0  0
    7.6466   -1.4519    0.4282 N   0  0  0  0  0  0  0  0  0  0  0  0
    8.9949   -1.8185    0.0565 C   0  0  0  0  0  0  0  0  0  0  0  0
    9.9438   -0.7915    0.6425 C   0  0  0  0  0  0  0  0  0  0  0  0
    9.5868    0.4458    0.1023 O   0  0  0  0  0  0  0  0  0  0  0  0
    6.8215   -0.6532   -0.2754 C   0  0  0  0  0  0  0  0  0  0  0  0
    3.2296   -0.4633    0.1895 C   0  0  0  0  0  0  0  0  0  0  0  0
    2.8205   -2.0742    0.7367 S   0  0  0  0  0  0  0  0  0  0  0  0
    1.0637   -1.9371    0.5207 C   0  0  0  0  0  0  0  0  0  0  0  0
    0.9187   -0.6555    0.0416 C   0  0  0  0  0  0  0  0  0  0  0  0
   -0.4785   -0.1753   -0.2092 C   0  0  0  0  0  0  0  0  0  0  0  0
   -1.0147    0.9093    0.4375 C   0  0  0  0  0  0  0  0  0  0  0  0
   -2.3023    1.3380    0.1695 C   0  0  0  0  0  0  0  0  0  0  0  0
   -3.0945    0.6953   -0.7531 C   0  0  0  0  0  0  0  0  0  0  0  0
   -4.4276    1.1245   -1.0429 N   0  0  0  0  0  0  0  0  0  0  0  0
   -5.5598    0.6527   -0.3573 C   0  0  0  0  0  0  0  0  0  0  0  0
   -5.4004   -0.2004    0.5705 O   0  0  0  0  0  0  0  0  0  0  0  0
   -6.8756    1.0956   -0.6648 N   0  0  0  0  0  0  0  0  0  0  0  0
   -7.9982    0.6034    0.0420 C   0  0  0  0  0  0  0  0  0  0  0  0
   -8.6415   -0.5238   -0.4277 C   0  0  0  0  0  0  0  0  0  0  0  0
   -9.7453   -1.0243    0.2502 C   0  0  0  0  0  0  0  0  0  0  0  0
  -10.2325   -0.4283    1.3950 C   0  0  0  0  0  0  0  0  0  0  0  0
   -9.6004    0.6880    1.8656 C   0  0  0  0  0  0  0  0  0  0  0  0
  -10.0537    1.3026    2.9929 F   0  0  0  0  0  0  0  0  0  0  0  0
   -8.4954    1.1930    1.1911 C   0  0  0  0  0  0  0  0  0  0  0  0
   -2.5505   -0.3975   -1.4020 C   0  0  0  0  0  0  0  0  0  0  0  0
   -1.2675   -0.8217   -1.1330 C   0  0  0  0  0  0  0  0  0  0  0  0
    2.0306    0.0853   -0.1241 C   0  0  0  0  0  0  0  0  0  0  0  0
    0.4315    1.8796   -1.8625 H   0  0  0  0  0  0  0  0  0  0  0  0
    0.6983    3.0249   -0.5175 H   0  0  0  0  0  0  0  0  0  0  0  0
    5.4424    1.9811   -0.5241 H   0  0  0  0  0  0  0  0  0  0  0  0
    5.1047   -1.5188    2.3570 H   0  0  0  0  0  0  0  0  0  0  0  0
    9.0578   -1.7739   -1.0484 H   0  0  0  0  0  0  0  0  0  0  0  0
    9.2529   -2.8494    0.3858 H   0  0  0  0  0  0  0  0  0  0  0  0
   10.9948   -1.0391    0.3400 H   0  0  0  0  0  0  0  0  0  0  0  0
    9.8365   -0.7641    1.7409 H   0  0  0  0  0  0  0  0  0  0  0  0
    8.7695    0.7759    0.5574 H   0  0  0  0  0  0  0  0  0  0  0  0
    7.0532   -0.1692   -1.2256 H   0  0  0  0  0  0  0  0  0  0  0  0
    0.3319   -2.6904    0.7250 H   0  0  0  0  0  0  0  0  0  0  0  0
   -0.4072    1.4344    1.1923 H   0  0  0  0  0  0  0  0  0  0  0  0
   -2.6794    2.1940    0.7017 H   0  0  0  0  0  0  0  0  0  0  0  0
   -4.5196    1.8336   -1.8198 H   0  0  0  0  0  0  0  0  0  0  0  0
   -7.0128    1.7942   -1.4236 H   0  0  0  0  0  0  0  0  0  0  0  0
   -8.2775   -1.0063   -1.3215 H   0  0  0  0  0  0  0  0  0  0  0  0
  -10.2571   -1.9142   -0.1164 H   0  0  0  0  0  0  0  0  0  0  0  0
  -11.0968   -0.8373    1.9081 H   0  0  0  0  0  0  0  0  0  0  0  0
   -7.9789    2.0780    1.5476 H   0  0  0  0  0  0  0  0  0  0  0  0
   -3.1615   -0.9077   -2.1254 H   0  0  0  0  0  0  0  0  0  0  0  0
   -0.8246   -1.6873   -1.6411 H   0  0  0  0  0  0  0  0  0  0  0  0
  1  2  1  0
  2  3  2  0
  3  4  1  0
  4  5  2  0
  5  6  1  0
  6  7  1  0
  7  8  2  0
  8  9  1  0
  9 10  1  0
 10 11  1  0
 11 12  1  0
  9 13  1  0
  5 14  1  0
 14 15  1  0
 15 16  1  0
 16 17  2  0
 17 18  1  0
 18 19  2  0
 19 20  1  0
 20 21  2  0
 21 22  1  0
 22 23  1  0
 23 24  2  0
 23 25  1  0
 25 26  1  0
 26 27  2  0
 27 28  1  0
 28 29  2  0
 29 30  1  0
 30 31  1  0
 30 32  2  0
 21 33  1  0
 33 34  2  0
 17 35  1  0
 35  2  1  0
 13  6  2  0
 35 14  2  0
 34 18  1  0
 32 26  1  0
  1 36  1  0
  1 37  1  0
  4 38  1  0
  7 39  1  0
 10 40  1  0
 10 41  1  0
 11 42  1  0
 11 43  1  0
 12 44  1  0
 13 45  1  0
 16 46  1  0
 19 47  1  0
 20 48  1  0
 22 49  1  0
 25 50  1  0
 27 51  1  0
 28 52  1  0
 29 53  1  0
 32 54  1  0
 33 55  1  0
 34 56  1  0
M  END
$$$$
