@<TRIPOS>MOLECULE
*****
 52 55 0 0 0
SMALL
GASTEIGER

@<TRIPOS>ATOM
      1 N           7.9546   -0.9143    1.7726 N.pl3   1  UNL1       -0.3274
      2 C           6.6911   -0.5418    1.2818 C.ar    1  UNL1        0.2148
      3 N           6.5709   -0.3264   -0.0340 N.ar    1  UNL1       -0.2144
      4 C           5.4138    0.0327   -0.6083 C.ar    1  UNL1        0.0814
      5 C           5.3510    0.2393   -1.9685 C.ar    1  UNL1       -0.0353
      6 C           4.2104    0.6082   -2.6454 C.ar    1  UNL1       -0.0563
      7 C           3.1317    0.7489   -1.8061 C.ar    1  UNL1       -0.0191
      8 C           3.0216    0.5826   -0.4433 C.ar    1  UNL1        0.1330
      9 O           2.0582    0.6992    0.4002 O.3     1  UNL1       -0.4909
     10 C           0.8269    0.9242    0.8354 C.3     1  UNL1        0.0925
     11 C          -0.2304   -0.0352    0.4124 C.3     1  UNL1       -0.0045
     12 C          -0.3829   -0.0959   -1.0681 C.3     1  UNL1       -0.0342
     13 C          -1.3729   -1.2391   -1.3728 C.3     1  UNL1       -0.0004
     14 N          -2.6234   -0.9648   -0.7782 N.3     1  UNL1       -0.2980
     15 C          -3.5328   -0.1499   -1.5122 C.3     1  UNL1        0.0268
     16 C          -4.7723   -0.0099   -0.6764 C.ar    1  UNL1        0.0018
     17 C          -5.1751    1.0981    0.0651 C.ar    1  UNL1       -0.0546
     18 C          -6.3425    1.0388    0.7671 C.ar    1  UNL1       -0.0613
     19 C          -7.1525   -0.0797    0.7774 C.ar    1  UNL1       -0.0590
     20 C          -6.7775   -1.2001    0.0477 C.ar    1  UNL1       -0.0261
     21 C          -5.6005   -1.1318   -0.6562 C.ar    1  UNL1        0.1278
     22 F          -5.2835   -2.2530   -1.3499 F       1  UNL1       -0.2052
     23 C          -2.5664   -0.7152    0.6400 C.3     1  UNL1       -0.0004
     24 C          -1.5928    0.3830    0.9844 C.3     1  UNL1       -0.0342
     25 C           4.2535    0.2092    0.1114 C.ar    1  UNL1        0.0816
     26 C           4.4320   -0.0235    1.4496 C.ar    1  UNL1        0.1326
     27 N           3.3858    0.0902    2.3880 N.pl3   1  UNL1       -0.3424
     28 N           5.5854   -0.3820    2.0265 N.ar    1  UNL1       -0.1994
     29 H           8.1166   -0.5468    2.7281 H       1  UNL1        0.1452
     30 H           8.6199   -1.4958    1.2030 H       1  UNL1        0.1452
     31 H           6.2516    0.1070   -2.5640 H       1  UNL1        0.0639
     32 H           4.1313    0.7761   -3.7033 H       1  UNL1        0.0619
     33 H           2.2059    1.0641   -2.3134 H       1  UNL1        0.0654
     34 H           0.7556    1.0894    1.9787 H       1  UNL1        0.0699
     35 H           0.4202    1.9484    0.4458 H       1  UNL1        0.0699
     36 H          -0.0753   -1.0635    0.8643 H       1  UNL1        0.0334
     37 H          -0.7935    0.8724   -1.4201 H       1  UNL1        0.0281
     38 H           0.5948   -0.3621   -1.5331 H       1  UNL1        0.0281
     39 H          -1.4695   -1.2567   -2.4662 H       1  UNL1        0.0427
     40 H          -0.9231   -2.1564   -0.9559 H       1  UNL1        0.0427
     41 H          -3.1140    0.8337   -1.7861 H       1  UNL1        0.0477
     42 H          -3.8255   -0.6972   -2.4336 H       1  UNL1        0.0477
     43 H          -4.4836    1.9303    0.0020 H       1  UNL1        0.0622
     44 H          -6.6248    1.9141    1.3304 H       1  UNL1        0.0618
     45 H          -8.0851   -0.0760    1.3608 H       1  UNL1        0.0618
     46 H          -7.4063   -2.0858    0.0478 H       1  UNL1        0.0646
     47 H          -2.1669   -1.6351    1.1409 H       1  UNL1        0.0427
     48 H          -3.5855   -0.5370    0.9989 H       1  UNL1        0.0427
     49 H          -1.5024    0.4535    2.0760 H       1  UNL1        0.0281
     50 H          -1.8967    1.3596    0.5165 H       1  UNL1        0.0281
     51 H           2.7573   -0.7618    2.3692 H       1  UNL1        0.1437
     52 H           2.6181    0.1679    3.0731 H       1  UNL1        0.1437
@<TRIPOS>BOND
     1     1     2    1
     2     2     3   ar
     3     3     4   ar
     4     4     5   ar
     5     5     6   ar
     6     6     7   ar
     7     7     8   ar
     8     8     9    1
     9     9    10    1
    10    10    11    1
    11    11    12    1
    12    12    13    1
    13    13    14    1
    14    14    15    1
    15    15    16    1
    16    16    17   ar
    17    17    18   ar
    18    18    19   ar
    19    19    20   ar
    20    20    21   ar
    21    21    22    1
    22    14    23    1
    23    23    24    1
    24     8    25   ar
    25    25    26   ar
    26    26    27    1
    27    26    28   ar
    28    28     2   ar
    29    25     4   ar
    30    24    11    1
    31    21    16   ar
    32     1    29    1
    33     1    30    1
    34     5    31    1
    35     6    32    1
    36     7    33    1
    37    10    34    1
    38    10    35    1
    39    11    36    1
    40    12    37    1
    41    12    38    1
    42    13    39    1
    43    13    40    1
    44    15    41    1
    45    15    42    1
    46    17    43    1
    47    18    44    1
    48    19    45    1
    49    20    46    1
    50    23    47    1
    51    23    48    1
    52    24    49    1
    53    24    50    1
    54    27    51    1
    55    27    52    1
