
     RDKit          3D

 54 57  0  0  0  0  0  0  0  0999 V2000
   -1.4892   -1.1048   -2.9054 C   0  0  0  0  0  0  0  0  0  0  0  0
   -1.6731   -0.4090   -1.6364 N   0  0  0  0  0  0  0  0  0  0  0  0
   -3.0009   -0.2891   -1.1510 C   0  0  0  0  0  0  0  0  0  0  0  0
   -3.3738    0.2668    0.0470 C   0  0  0  0  0  0  0  0  0  0  0  0
   -4.6784    0.3843    0.4729 C   0  0  0  0  0  0  0  0  0  0  0  0
   -5.2826    0.8685    1.5596 N   0  0  0  0  0  0  0  0  0  0  0  0
   -6.5935    0.7350    1.4732 N   0  0  0  0  0  0  0  0  0  0  0  0
   -7.6631    1.1063    2.3941 C   0  0  0  0  0  0  0  0  0  0  0  0
   -6.9208    0.1388    0.2891 C   0  0  0  0  0  0  0  0  0  0  0  0
   -8.2416   -0.2165   -0.2583 C   0  0  0  0  0  0  0  0  0  0  0  0
   -5.6991   -0.0726   -0.3227 C   0  0  0  0  0  0  0  0  0  0  0  0
   -5.3917   -0.6426   -1.5400 C   0  0  0  0  0  0  0  0  0  0  0  0
   -4.0667   -0.7289   -1.9049 C   0  0  0  0  0  0  0  0  0  0  0  0
   -0.4962    0.0594   -1.0498 C   0  0  0  0  0  0  0  0  0  0  0  0
   -0.3488    1.2802   -0.4496 C   0  0  0  0  0  0  0  0  0  0  0  0
    0.8494    1.6448    0.1165 C   0  0  0  0  0  0  0  0  0  0  0  0
    1.8490    0.7659    0.0554 N   0  0  0  0  0  0  0  0  0  0  0  0
    1.7667   -0.4307   -0.5117 C   0  0  0  0  0  0  0  0  0  0  0  0
    2.8141   -1.3845   -0.5947 N   0  0  0  0  0  0  0  0  0  0  0  0
    4.1599   -1.2353   -0.1752 C   0  0  0  0  0  0  0  0  0  0  0  0
    5.0490   -2.3125   -0.1701 C   0  0  0  0  0  0  0  0  0  0  0  0
    6.3579   -2.1732    0.2201 C   0  0  0  0  0  0  0  0  0  0  0  0
    6.8797   -0.9518    0.6341 C   0  0  0  0  0  0  0  0  0  0  0  0
    8.2801   -0.8327    1.0465 C   0  0  0  0  0  0  0  0  0  0  0  0
    6.0185    0.1488    0.6409 C   0  0  0  0  0  0  0  0  0  0  0  0
    4.7230   -0.0502    0.2416 C   0  0  0  0  0  0  0  0  0  0  0  0
    6.6657    1.6832    1.1474 S   0  0  0  0  0  0  0  0  0  0  0  0
    5.5041    2.9520    1.1069 N   0  0  0  0  0  0  0  0  0  0  0  0
    7.1741    1.5654    2.5616 O   0  0  0  0  0  0  0  0  0  0  0  0
    7.8724    2.0495    0.2900 O   0  0  0  0  0  0  0  0  0  0  0  0
    0.5894   -0.7213   -1.0382 N   0  0  0  0  0  0  0  0  0  0  0  0
   -1.9200   -0.5488   -3.7681 H   0  0  0  0  0  0  0  0  0  0  0  0
   -1.9887   -2.1146   -2.8269 H   0  0  0  0  0  0  0  0  0  0  0  0
   -0.4231   -1.3202   -3.1050 H   0  0  0  0  0  0  0  0  0  0  0  0
   -2.6411    0.6325    0.7232 H   0  0  0  0  0  0  0  0  0  0  0  0
   -8.3673    0.2587    2.4795 H   0  0  0  0  0  0  0  0  0  0  0  0
   -7.2563    1.4400    3.3726 H   0  0  0  0  0  0  0  0  0  0  0  0
   -8.2243    1.9694    1.9869 H   0  0  0  0  0  0  0  0  0  0  0  0
   -8.1379   -0.3655   -1.3549 H   0  0  0  0  0  0  0  0  0  0  0  0
   -9.0185    0.5644   -0.0759 H   0  0  0  0  0  0  0  0  0  0  0  0
   -8.6022   -1.1777    0.2066 H   0  0  0  0  0  0  0  0  0  0  0  0
   -6.1909   -0.9995   -2.1612 H   0  0  0  0  0  0  0  0  0  0  0  0
   -3.8911   -1.1888   -2.8801 H   0  0  0  0  0  0  0  0  0  0  0  0
   -1.1480    2.0016   -0.4083 H   0  0  0  0  0  0  0  0  0  0  0  0
    1.0442    2.5917    0.6086 H   0  0  0  0  0  0  0  0  0  0  0  0
    2.5875   -2.3334   -1.0204 H   0  0  0  0  0  0  0  0  0  0  0  0
    4.6647   -3.2904   -0.4928 H   0  0  0  0  0  0  0  0  0  0  0  0
    6.9633   -3.0840    0.1846 H   0  0  0  0  0  0  0  0  0  0  0  0
    8.3665   -0.3798    2.0617 H   0  0  0  0  0  0  0  0  0  0  0  0
    8.9062   -0.3077    0.2872 H   0  0  0  0  0  0  0  0  0  0  0  0
    8.7109   -1.8581    1.1475 H   0  0  0  0  0  0  0  0  0  0  0  0
    4.1419    0.8441    0.2797 H   0  0  0  0  0  0  0  0  0  0  0  0
    4.7809    2.7539    0.3923 H   0  0  0  0  0  0  0  0  0  0  0  0
    6.0101    3.8189    0.7499 H   0  0  0  0  0  0  0  0  0  0  0  0
  1  2  1  0
  2  3  1  0
  3  4  2  0
  4  5  1  0
  5  6  2  0
  6  7  1  0
  7  8  1  0
  7  9  1  0
  9 10  1  0
  9 11  2  0
 11 12  1  0
 12 13  2  0
  2 14  1  0
 14 15  2  0
 15 16  1  0
 16 17  2  0
 17 18  1  0
 18 19  1  0
 19 20  1  0
 20 21  2  0
 21 22  1  0
 22 23  2  0
 23 24  1  0
 23 25  1  0
 25 26  2  0
 25 27  1  0
 27 28  1  0
 27 29  2  0
 27 30  2  0
 18 31  2  0
 13  3  1  0
 31 14  1  0
 11  5  1  0
 26 20  1  0
  1 32  1  0
  1 33  1  0
  1 34  1  0
  4 35  1  0
  8 36  1  0
  8 37  1  0
  8 38  1  0
 10 39  1  0
 10 40  1  0
 10 41  1  0
 12 42  1  0
 13 43  1  0
 15 44  1  0
 16 45  1  0
 19 46  1  0
 21 47  1  0
 22 48  1  0
 24 49  1  0
 24 50  1  0
 24 51  1  0
 26 52  1  0
 28 53  1  0
 28 54  1  0
M  END
$$$$
