@<TRIPOS>MOLECULE
*****
 67 71 0 0 0
SMALL
GASTEIGER

@<TRIPOS>ATOM
      1 C          -3.4115   -4.9864   -1.7896 C.3     1  UNL1        0.0365
      2 O          -2.8945   -3.7266   -2.1329 O.3     1  UNL1       -0.3814
      3 C          -2.5274   -3.1345   -0.9263 C.3     1  UNL1        0.0630
      4 C          -1.9516   -1.7341   -1.1376 C.3     1  UNL1        0.0384
      5 N          -1.5925   -1.1310    0.1204 N.am    1  UNL1       -0.2950
      6 C          -0.3216   -1.4146    0.7645 C.3     1  UNL1        0.0190
      7 C           0.7557   -0.4055    0.5458 C.3     1  UNL1       -0.0124
      8 C           1.1937   -0.1309   -0.8350 C.3     1  UNL1       -0.0465
      9 C           2.2952   -1.0937   -1.2327 C.3     1  UNL1       -0.0399
     10 C           3.5063   -0.9036   -0.3507 C.3     1  UNL1       -0.0008
     11 N           3.1988   -0.5755    0.9838 N.3     1  UNL1       -0.2985
     12 C           4.0433    0.2970    1.6916 C.3     1  UNL1        0.0184
     13 C           5.4725   -0.1620    1.7908 C.3     1  UNL1       -0.0114
     14 C           6.1621    0.5800    0.6977 C.ar    1  UNL1       -0.0427
     15 C           7.3458    0.3786    0.0274 C.ar    1  UNL1       -0.0583
     16 C           7.7632    1.2463   -0.9797 C.ar    1  UNL1       -0.0615
     17 C           6.9844    2.3346   -1.3238 C.ar    1  UNL1       -0.0615
     18 C           5.7921    2.5179   -0.6340 C.ar    1  UNL1       -0.0583
     19 C           5.3795    1.6601    0.3621 C.ar    1  UNL1       -0.0427
     20 C           4.1440    1.6983    1.2093 C.3     1  UNL1       -0.0114
     21 C           1.9058   -0.7751    1.4589 C.3     1  UNL1        0.0034
     22 C          -2.4701   -0.2704    0.8079 C.2     1  UNL1        0.2467
     23 O          -2.0086    0.1242    1.9740 O.2     1  UNL1       -0.2700
     24 C          -3.7502    0.2462    0.4539 C.ar    1  UNL1        0.0375
     25 C          -4.7958   -0.3925   -0.1181 C.ar    1  UNL1       -0.0490
     26 C          -6.0061    0.2254   -0.4239 C.ar    1  UNL1       -0.0533
     27 C          -6.1968    1.5577   -0.1466 C.ar    1  UNL1       -0.0178
     28 C          -7.4142    2.1727   -0.4558 C.ar    1  UNL1       -0.0540
     29 C          -7.5640    3.5003   -0.1575 C.ar    1  UNL1       -0.0612
     30 C          -6.5307    4.2163    0.4361 C.ar    1  UNL1       -0.0612
     31 C          -5.3436    3.5843    0.7238 C.ar    1  UNL1       -0.0540
     32 C          -5.1497    2.2355    0.4371 C.ar    1  UNL1       -0.0172
     33 C          -3.9546    1.6175    0.7370 C.ar    1  UNL1       -0.0419
     34 H          -3.7480   -5.5728   -2.6562 H       1  UNL1        0.0523
     35 H          -4.2933   -4.7791   -1.1208 H       1  UNL1        0.0523
     36 H          -2.6752   -5.5320   -1.1525 H       1  UNL1        0.0523
     37 H          -1.6315   -3.7440   -0.5657 H       1  UNL1        0.0575
     38 H          -3.3403   -3.2065   -0.2274 H       1  UNL1        0.0575
     39 H          -2.7321   -1.1578   -1.6718 H       1  UNL1        0.0487
     40 H          -1.0831   -1.7820   -1.8111 H       1  UNL1        0.0487
     41 H           0.0783   -2.4062    0.4931 H       1  UNL1        0.0468
     42 H          -0.4992   -1.4861    1.8799 H       1  UNL1        0.0468
     43 H           0.3108    0.5758    0.9266 H       1  UNL1        0.0328
     44 H           0.4184   -0.1379   -1.5801 H       1  UNL1        0.0269
     45 H           1.7162    0.8771   -0.8040 H       1  UNL1        0.0269
     46 H           1.9118   -2.1300   -1.1574 H       1  UNL1        0.0278
     47 H           2.5142   -0.9239   -2.3025 H       1  UNL1        0.0278
     48 H           4.1007   -1.8353   -0.3682 H       1  UNL1        0.0427
     49 H           4.1241   -0.1104   -0.8094 H       1  UNL1        0.0427
     50 H           3.6606    0.3351    2.7529 H       1  UNL1        0.0469
     51 H           5.6170   -1.2405    1.7522 H       1  UNL1        0.0328
     52 H           5.9354    0.1939    2.7466 H       1  UNL1        0.0328
     53 H           8.0165   -0.4360    0.2320 H       1  UNL1        0.0620
     54 H           8.6881    1.1078   -1.5173 H       1  UNL1        0.0618
     55 H           7.2768    3.0360   -2.1112 H       1  UNL1        0.0618
     56 H           5.1553    3.3725   -0.8677 H       1  UNL1        0.0620
     57 H           3.2503    1.9745    0.6475 H       1  UNL1        0.0328
     58 H           4.2660    2.3961    2.0702 H       1  UNL1        0.0328
     59 H           1.7494   -0.2437    2.4185 H       1  UNL1        0.0430
     60 H           1.8061   -1.8711    1.7348 H       1  UNL1        0.0430
     61 H          -4.7172   -1.4259   -0.3591 H       1  UNL1        0.0625
     62 H          -6.8220   -0.3233   -0.8799 H       1  UNL1        0.0624
     63 H          -8.2028    1.5738   -0.9192 H       1  UNL1        0.0624
     64 H          -8.5089    3.9719   -0.3976 H       1  UNL1        0.0618
     65 H          -6.7118    5.2594    0.6543 H       1  UNL1        0.0618
     66 H          -4.5311    4.1371    1.1937 H       1  UNL1        0.0624
     67 H          -3.1584    2.1770    1.1987 H       1  UNL1        0.0631
@<TRIPOS>BOND
     1     1     2    1
     2     2     3    1
     3     3     4    1
     4     4     5    1
     5     5     6    1
     6     6     7    1
     7     7     8    1
     8     8     9    1
     9     9    10    1
    10    10    11    1
    11    11    12    1
    12    12    13    1
    13    13    14    1
    14    14    15   ar
    15    15    16   ar
    16    16    17   ar
    17    17    18   ar
    18    18    19   ar
    19    19    20    1
    20    11    21    1
    21     5    22   am
    22    22    23    2
    23    22    24    1
    24    24    25   ar
    25    25    26   ar
    26    26    27   ar
    27    27    28   ar
    28    28    29   ar
    29    29    30   ar
    30    30    31   ar
    31    31    32   ar
    32    32    33   ar
    33    21     7    1
    34    33    24   ar
    35    20    12    1
    36    32    27   ar
    37    19    14   ar
    38     1    34    1
    39     1    35    1
    40     1    36    1
    41     3    37    1
    42     3    38    1
    43     4    39    1
    44     4    40    1
    45     6    41    1
    46     6    42    1
    47     7    43    1
    48     8    44    1
    49     8    45    1
    50     9    46    1
    51     9    47    1
    52    10    48    1
    53    10    49    1
    54    12    50    1
    55    13    51    1
    56    13    52    1
    57    15    53    1
    58    16    54    1
    59    17    55    1
    60    18    56    1
    61    20    57    1
    62    20    58    1
    63    21    59    1
    64    21    60    1
    65    25    61    1
    66    26    62    1
    67    28    63    1
    68    29    64    1
    69    30    65    1
    70    31    66    1
    71    33    67    1
