
     RDKit          3D

 67 71  0  0  0  0  0  0  0  0999 V2000
   -3.4115   -4.9864   -1.7896 C   0  0  0  0  0  0  0  0  0  0  0  0
   -2.8945   -3.7266   -2.1329 O   0  0  0  0  0  0  0  0  0  0  0  0
   -2.5274   -3.1345   -0.9263 C   0  0  0  0  0  0  0  0  0  0  0  0
   -1.9516   -1.7341   -1.1376 C   0  0  0  0  0  0  0  0  0  0  0  0
   -1.5925   -1.1310    0.1204 N   0  0  0  0  0  0  0  0  0  0  0  0
   -0.3216   -1.4146    0.7645 C   0  0  0  0  0  0  0  0  0  0  0  0
    0.7557   -0.4055    0.5458 C   0  0  2  0  0  0  0  0  0  0  0  0
    1.1937   -0.1309   -0.8350 C   0  0  0  0  0  0  0  0  0  0  0  0
    2.2952   -1.0937   -1.2327 C   0  0  0  0  0  0  0  0  0  0  0  0
    3.5063   -0.9036   -0.3507 C   0  0  0  0  0  0  0  0  0  0  0  0
    3.1988   -0.5755    0.9838 N   0  0  0  0  0  0  0  0  0  0  0  0
    4.0433    0.2970    1.6916 C   0  0  0  0  0  0  0  0  0  0  0  0
    5.4725   -0.1620    1.7908 C   0  0  0  0  0  0  0  0  0  0  0  0
    6.1621    0.5800    0.6977 C   0  0  0  0  0  0  0  0  0  0  0  0
    7.3458    0.3786    0.0274 C   0  0  0  0  0  0  0  0  0  0  0  0
    7.7632    1.2463   -0.9797 C   0  0  0  0  0  0  0  0  0  0  0  0
    6.9844    2.3346   -1.3238 C   0  0  0  0  0  0  0  0  0  0  0  0
    5.7921    2.5179   -0.6340 C   0  0  0  0  0  0  0  0  0  0  0  0
    5.3795    1.6601    0.3621 C   0  0  0  0  0  0  0  0  0  0  0  0
    4.1440    1.6983    1.2093 C   0  0  0  0  0  0  0  0  0  0  0  0
    1.9058   -0.7751    1.4589 C   0  0  0  0  0  0  0  0  0  0  0  0
   -2.4701   -0.2704    0.8079 C   0  0  0  0  0  0  0  0  0  0  0  0
   -2.0086    0.1242    1.9740 O   0  0  0  0  0  0  0  0  0  0  0  0
   -3.7502    0.2462    0.4539 C   0  0  0  0  0  0  0  0  0  0  0  0
   -4.7958   -0.3925   -0.1181 C   0  0  0  0  0  0  0  0  0  0  0  0
   -6.0061    0.2254   -0.4239 C   0  0  0  0  0  0  0  0  0  0  0  0
   -6.1968    1.5577   -0.1466 C   0  0  0  0  0  0  0  0  0  0  0  0
   -7.4142    2.1727   -0.4558 C   0  0  0  0  0  0  0  0  0  0  0  0
   -7.5640    3.5003   -0.1575 C   0  0  0  0  0  0  0  0  0  0  0  0
   -6.5307    4.2163    0.4361 C   0  0  0  0  0  0  0  0  0  0  0  0
   -5.3436    3.5843    0.7238 C   0  0  0  0  0  0  0  0  0  0  0  0
   -5.1497    2.2355    0.4371 C   0  0  0  0  0  0  0  0  0  0  0  0
   -3.9546    1.6175    0.7370 C   0  0  0  0  0  0  0  0  0  0  0  0
   -3.7480   -5.5728   -2.6562 H   0  0  0  0  0  0  0  0  0  0  0  0
   -4.2933   -4.7791   -1.1208 H   0  0  0  0  0  0  0  0  0  0  0  0
   -2.6752   -5.5320   -1.1525 H   0  0  0  0  0  0  0  0  0  0  0  0
   -1.6315   -3.7440   -0.5657 H   0  0  0  0  0  0  0  0  0  0  0  0
   -3.3403   -3.2065   -0.2274 H   0  0  0  0  0  0  0  0  0  0  0  0
   -2.7321   -1.1578   -1.6718 H   0  0  0  0  0  0  0  0  0  0  0  0
   -1.0831   -1.7820   -1.8111 H   0  0  0  0  0  0  0  0  0  0  0  0
    0.0783   -2.4062    0.4931 H   0  0  0  0  0  0  0  0  0  0  0  0
   -0.4992   -1.4861    1.8799 H   0  0  0  0  0  0  0  0  0  0  0  0
    0.3108    0.5758    0.9266 H   0  0  0  0  0  0  0  0  0  0  0  0
    0.4184   -0.1379   -1.5801 H   0  0  0  0  0  0  0  0  0  0  0  0
    1.7162    0.8771   -0.8040 H   0  0  0  0  0  0  0  0  0  0  0  0
    1.9118   -2.1300   -1.1574 H   0  0  0  0  0  0  0  0  0  0  0  0
    2.5142   -0.9239   -2.3025 H   0  0  0  0  0  0  0  0  0  0  0  0
    4.1007   -1.8353   -0.3682 H   0  0  0  0  0  0  0  0  0  0  0  0
    4.1241   -0.1104   -0.8094 H   0  0  0  0  0  0  0  0  0  0  0  0
    3.6606    0.3351    2.7529 H   0  0  0  0  0  0  0  0  0  0  0  0
    5.6170   -1.2405    1.7522 H   0  0  0  0  0  0  0  0  0  0  0  0
    5.9354    0.1939    2.7466 H   0  0  0  0  0  0  0  0  0  0  0  0
    8.0165   -0.4360    0.2320 H   0  0  0  0  0  0  0  0  0  0  0  0
    8.6881    1.1078   -1.5173 H   0  0  0  0  0  0  0  0  0  0  0  0
    7.2768    3.0360   -2.1112 H   0  0  0  0  0  0  0  0  0  0  0  0
    5.1553    3.3725   -0.8677 H   0  0  0  0  0  0  0  0  0  0  0  0
    3.2503    1.9745    0.6475 H   0  0  0  0  0  0  0  0  0  0  0  0
    4.2660    2.3961    2.0702 H   0  0  0  0  0  0  0  0  0  0  0  0
    1.7494   -0.2437    2.4185 H   0  0  0  0  0  0  0  0  0  0  0  0
    1.8061   -1.8711    1.7348 H   0  0  0  0  0  0  0  0  0  0  0  0
   -4.7172   -1.4259   -0.3591 H   0  0  0  0  0  0  0  0  0  0  0  0
   -6.8220   -0.3233   -0.8799 H   0  0  0  0  0  0  0  0  0  0  0  0
   -8.2028    1.5738   -0.9192 H   0  0  0  0  0  0  0  0  0  0  0  0
   -8.5089    3.9719   -0.3976 H   0  0  0  0  0  0  0  0  0  0  0  0
   -6.7118    5.2594    0.6543 H   0  0  0  0  0  0  0  0  0  0  0  0
   -4.5311    4.1371    1.1937 H   0  0  0  0  0  0  0  0  0  0  0  0
   -3.1584    2.1770    1.1987 H   0  0  0  0  0  0  0  0  0  0  0  0
  1  2  1  0
  2  3  1  0
  3  4  1  0
  4  5  1  0
  5  6  1  0
  6  7  1  0
  7  8  1  0
  8  9  1  0
  9 10  1  0
 10 11  1  0
 11 12  1  0
 12 13  1  0
 13 14  1  0
 14 15  2  0
 15 16  1  0
 16 17  2  0
 17 18  1  0
 18 19  2  0
 19 20  1  0
 11 21  1  0
  5 22  1  0
 22 23  2  0
 22 24  1  0
 24 25  2  0
 25 26  1  0
 26 27  2  0
 27 28  1  0
 28 29  2  0
 29 30  1  0
 30 31  2  0
 31 32  1  0
 32 33  2  0
 21  7  1  0
 33 24  1  0
 20 12  1  0
 32 27  1  0
 19 14  1  0
  1 34  1  0
  1 35  1  0
  1 36  1  0
  3 37  1  0
  3 38  1  0
  4 39  1  0
  4 40  1  0
  6 41  1  0
  6 42  1  0
  7 43  1  1
  8 44  1  0
  8 45  1  0
  9 46  1  0
  9 47  1  0
 10 48  1  0
 10 49  1  0
 12 50  1  0
 13 51  1  0
 13 52  1  0
 15 53  1  0
 16 54  1  0
 17 55  1  0
 18 56  1  0
 20 57  1  0
 20 58  1  0
 21 59  1  0
 21 60  1  0
 25 61  1  0
 26 62  1  0
 28 63  1  0
 29 64  1  0
 30 65  1  0
 31 66  1  0
 33 67  1  0
M  END
$$$$
