@<TRIPOS>MOLECULE
*****
 54 56 0 0 0
SMALL
GASTEIGER

@<TRIPOS>ATOM
      1 C          -3.3438   -1.8293   -1.8284 C.3     1  UNL1       -0.0493
      2 C          -1.8932   -1.9208   -1.5470 C.3     1  UNL1        0.0127
      3 N          -1.2847   -0.8078   -0.8567 N.am    1  UNL1       -0.2882
      4 C          -1.2620   -0.7696    0.5447 C.2     1  UNL1        0.2419
      5 O          -0.6816    0.2918    1.0259 O.2     1  UNL1       -0.2731
      6 C          -1.7815   -1.7177    1.5155 C.3     1  UNL1        0.1235
      7 O          -2.3483   -2.8684    1.0786 O.3     1  UNL1       -0.3738
      8 C          -2.8191   -3.6917    2.0954 C.3     1  UNL1        0.0371
      9 C          -0.6151    0.2210   -1.6626 C.3     1  UNL1        0.1025
     10 C           0.8905   -0.1251   -1.5552 C.3     1  UNL1        0.1108
     11 N           1.3785    0.9095   -0.7153 N.pl3   1  UNL1       -0.1007
     12 C           2.6339    0.9022   -0.0277 C.cat   1  UNL1        0.4110
     13 N           3.7206    1.2741   -0.6624 N.2     1  UNL1        0.0087
     14 C           3.5781    1.6698   -2.0190 C.1     1  UNL1        0.2952
     15 N           3.4675    2.0080   -3.1150 N.1     1  UNL1       -0.1505
     16 N           2.7021    0.5246    1.3273 N.pl3   1  UNL1       -0.2035
     17 C           3.7634   -0.2176    1.8312 C.ar    1  UNL1        0.0932
     18 C           4.7302   -0.7965    1.0554 C.ar    1  UNL1       -0.0238
     19 C           5.7647   -1.5108    1.6284 C.ar    1  UNL1       -0.0389
     20 C           5.8329   -1.6474    2.9920 C.ar    1  UNL1        0.0594
     21 CL          7.1493   -2.5618    3.7123 Cl      1  UNL1       -0.0820
     22 C           4.8761   -1.0770    3.7956 C.ar    1  UNL1        0.0623
     23 CL          4.9660   -1.2479    5.5526 Cl      1  UNL1       -0.0819
     24 C           3.8500   -0.3680    3.2173 C.ar    1  UNL1       -0.0055
     25 N           0.4378    1.9175   -0.6888 N.2     1  UNL1       -0.1199
     26 C          -0.7015    1.5766   -1.2128 C.2     1  UNL1        0.1048
     27 C          -1.8248    2.5368   -1.2742 C.ar    1  UNL1        0.0011
     28 C          -3.0235    2.2157   -1.8590 C.ar    1  UNL1       -0.0513
     29 C          -4.0712    3.1452   -1.8841 C.ar    1  UNL1       -0.0428
     30 C          -3.8931    4.3851   -1.3184 C.ar    1  UNL1        0.0410
     31 CL         -5.1758    5.5805   -1.3251 Cl      1  UNL1       -0.0835
     32 C          -2.7055    4.7484   -0.7211 C.ar    1  UNL1       -0.0428
     33 C          -1.7163    3.8017   -0.7253 C.ar    1  UNL1       -0.0513
     34 H          -3.7272   -0.9271   -2.2826 H       1  UNL1        0.0245
     35 H          -3.9385   -1.9735   -0.8851 H       1  UNL1        0.0245
     36 H          -3.6479   -2.7355   -2.4419 H       1  UNL1        0.0245
     37 H          -1.4071   -2.0045   -2.5981 H       1  UNL1        0.0462
     38 H          -1.6866   -2.8816   -1.0195 H       1  UNL1        0.0462
     39 H          -2.5727   -1.1458    2.1099 H       1  UNL1        0.0656
     40 H          -0.9652   -1.9472    2.2526 H       1  UNL1        0.0656
     41 H          -2.0024   -4.0012    2.8055 H       1  UNL1        0.0524
     42 H          -3.2502   -4.6239    1.6230 H       1  UNL1        0.0524
     43 H          -3.6197   -3.2343    2.7058 H       1  UNL1        0.0524
     44 H          -0.8304    0.0374   -2.7311 H       1  UNL1        0.0597
     45 H           1.3606   -0.1990   -2.5309 H       1  UNL1        0.0680
     46 H           1.0427   -1.0886   -1.0282 H       1  UNL1        0.0680
     47 H           1.9148    0.8256    1.9563 H       1  UNL1        0.2513
     48 H           4.7183   -0.7135   -0.0361 H       1  UNL1        0.0651
     49 H           6.5042   -1.9520    0.9772 H       1  UNL1        0.0634
     50 H           3.0820    0.0940    3.8517 H       1  UNL1        0.0665
     51 H          -3.2006    1.2596   -2.3261 H       1  UNL1        0.0624
     52 H          -5.0204    2.8566   -2.3621 H       1  UNL1        0.0632
     53 H          -2.5837    5.7389   -0.2781 H       1  UNL1        0.0632
     54 H          -0.7705    4.0643   -0.2608 H       1  UNL1        0.0624
@<TRIPOS>BOND
     1     1     2    1
     2     2     3    1
     3     3     4   am
     4     4     5    2
     5     4     6    1
     6     6     7    1
     7     7     8    1
     8     3     9    1
     9     9    10    1
    10    10    11    1
    11    11    12    1
    12    12    13    2
    13    13    14    1
    14    14    15    3
    15    12    16    1
    16    16    17    1
    17    17    18   ar
    18    18    19   ar
    19    19    20   ar
    20    20    21    1
    21    20    22   ar
    22    22    23    1
    23    22    24   ar
    24    11    25    1
    25    25    26    2
    26    26    27    1
    27    27    28   ar
    28    28    29   ar
    29    29    30   ar
    30    30    31    1
    31    30    32   ar
    32    32    33   ar
    33    26     9    1
    34    33    27   ar
    35    24    17   ar
    36     1    34    1
    37     1    35    1
    38     1    36    1
    39     2    37    1
    40     2    38    1
    41     6    39    1
    42     6    40    1
    43     8    41    1
    44     8    42    1
    45     8    43    1
    46     9    44    1
    47    10    45    1
    48    10    46    1
    49    16    47    1
    50    18    48    1
    51    19    49    1
    52    24    50    1
    53    28    51    1
    54    29    52    1
    55    32    53    1
    56    33    54    1
