
     RDKit          3D

 40 39  0  0  0  0  0  0  0  0999 V2000
    2.6427   -3.6077    0.8669 C   0  0  0  0  0  0  0  0  0  0  0  0
    3.0729   -2.5646   -0.5547 S   0  0  0  0  0  0  0  0  0  0  0  0
    1.6072   -1.7173   -1.2076 C   0  0  0  0  0  0  0  0  0  0  0  0
    1.0568   -0.7247   -0.2345 C   0  0  2  0  0  0  0  0  0  0  0  0
   -0.1150   -0.1142   -0.8743 N   0  0  0  0  0  0  0  0  0  0  0  0
   -1.4583   -0.1691   -0.3866 C   0  0  0  0  0  0  0  0  0  0  0  0
   -1.3365   -0.8446    0.6701 O   0  0  0  0  0  0  0  0  0  0  0  0
   -2.3145    0.5741   -1.3356 C   0  0  0  0  0  0  0  0  0  0  0  0
   -3.7609    0.6282   -0.9825 C   0  0  0  0  0  0  0  0  0  0  0  0
   -3.9573    1.3269    0.3258 C   0  0  2  0  0  0  0  0  0  0  0  0
   -3.2971    0.6935    1.4210 N   0  0  0  0  0  0  0  0  0  0  0  0
   -5.4395    1.4218    0.5839 C   0  0  0  0  0  0  0  0  0  0  0  0
   -6.4379    1.1220    1.5044 O   0  0  0  0  0  0  0  0  0  0  0  0
   -6.3240    1.9217   -0.1721 O   0  0  0  0  0  0  0  0  0  0  0  0
    1.9374    0.3925    0.1119 C   0  0  0  0  0  0  0  0  0  0  0  0
    1.5895    1.5896   -0.1782 O   0  0  0  0  0  0  0  0  0  0  0  0
    3.1917    0.3056    0.7625 N   0  0  0  0  0  0  0  0  0  0  0  0
    3.8547    1.5684    0.9835 C   0  0  0  0  0  0  0  0  0  0  0  0
    5.1632    1.3916    1.6700 C   0  0  0  0  0  0  0  0  0  0  0  0
    5.7666    0.2067    2.0906 O   0  0  0  0  0  0  0  0  0  0  0  0
    5.7622    2.4976    1.8725 O   0  0  0  0  0  0  0  0  0  0  0  0
    3.5450   -3.7575    1.5174 H   0  0  0  0  0  0  0  0  0  0  0  0
    1.8426   -3.0717    1.4144 H   0  0  0  0  0  0  0  0  0  0  0  0
    2.2090   -4.5778    0.5484 H   0  0  0  0  0  0  0  0  0  0  0  0
    0.8524   -2.5199   -1.3440 H   0  0  0  0  0  0  0  0  0  0  0  0
    1.8003   -1.3364   -2.2151 H   0  0  0  0  0  0  0  0  0  0  0  0
    0.8037   -1.2635    0.6949 H   0  0  0  0  0  0  0  0  0  0  0  0
    0.2744    0.3523   -1.7467 H   0  0  0  0  0  0  0  0  0  0  0  0
   -1.8758    1.6050   -1.4703 H   0  0  0  0  0  0  0  0  0  0  0  0
   -2.2440    0.1155   -2.3416 H   0  0  0  0  0  0  0  0  0  0  0  0
   -4.1784   -0.3999   -0.9842 H   0  0  0  0  0  0  0  0  0  0  0  0
   -4.3619    1.1621   -1.7720 H   0  0  0  0  0  0  0  0  0  0  0  0
   -3.6010    2.3988    0.2779 H   0  0  0  0  0  0  0  0  0  0  0  0
   -3.8621   -0.0764    1.8644 H   0  0  0  0  0  0  0  0  0  0  0  0
   -2.9173    1.3505    2.1368 H   0  0  0  0  0  0  0  0  0  0  0  0
   -6.8846    0.2133    1.5294 H   0  0  0  0  0  0  0  0  0  0  0  0
    3.5348   -0.6328    1.0272 H   0  0  0  0  0  0  0  0  0  0  0  0
    3.9983    2.0719   -0.0118 H   0  0  0  0  0  0  0  0  0  0  0  0
    3.2254    2.2230    1.6029 H   0  0  0  0  0  0  0  0  0  0  0  0
    6.6352    0.2456    2.5866 H   0  0  0  0  0  0  0  0  0  0  0  0
  1  2  1  0
  2  3  1  0
  3  4  1  0
  4  5  1  0
  5  6  1  0
  6  7  2  0
  6  8  1  0
  8  9  1  0
  9 10  1  0
 10 11  1  0
 10 12  1  0
 12 13  1  0
 12 14  2  0
  4 15  1  0
 15 16  2  0
 15 17  1  0
 17 18  1  0
 18 19  1  0
 19 20  1  0
 19 21  2  0
  1 22  1  0
  1 23  1  0
  1 24  1  0
  3 25  1  0
  3 26  1  0
  4 27  1  1
  5 28  1  0
  8 29  1  0
  8 30  1  0
  9 31  1  0
  9 32  1  0
 10 33  1  6
 11 34  1  0
 11 35  1  0
 13 36  1  0
 17 37  1  0
 18 38  1  0
 18 39  1  0
 20 40  1  0
M  END
$$$$
