@<TRIPOS>MOLECULE
*****
 40 39 0 0 0
SMALL
GASTEIGER

@<TRIPOS>ATOM
      1 C           2.6427   -3.6077    0.8669 C.3     1  UNK1       -0.0180
      2 S           3.0729   -2.5646   -0.5547 S.3     1  UNK1       -0.1618
      3 C           1.6072   -1.7173   -1.2076 C.3     1  UNK1        0.0204
      4 C           1.0568   -0.7247   -0.2345 C.3     1  UNK1        0.1083
      5 N          -0.1150   -0.1142   -0.8743 N.am    1  UNK1       -0.3033
      6 C          -1.4583   -0.1691   -0.3866 C.2     1  UNK1        0.2137
      7 O          -1.3365   -0.8446    0.6701 O.2     1  UNK1       -0.2758
      8 C          -2.3145    0.5741   -1.3356 C.3     1  UNK1        0.0259
      9 C          -3.7609    0.6282   -0.9825 C.3     1  UNK1       -0.0191
     10 C          -3.9573    1.3269    0.3258 C.3     1  UNK1        0.1037
     11 N          -3.2971    0.6935    1.4210 N.3     1  UNK1       -0.3184
     12 C          -5.4395    1.4218    0.5839 C.2     1  UNK1        0.3217
     13 O          -6.4379    1.1220    1.5044 O.3     1  UNK1       -0.4795
     14 O          -6.3240    1.9217   -0.1721 O.2     1  UNK1       -0.2493
     15 C           1.9374    0.3925    0.1119 C.2     1  UNK1        0.2346
     16 O           1.5895    1.5896   -0.1782 O.2     1  UNK1       -0.2737
     17 N           3.1917    0.3056    0.7625 N.am    2  GLY2       -0.3033
     18 CA          3.8547    1.5684    0.9835 C.3     2  GLY2        0.1089
     19 C           5.1632    1.3916    1.6700 C.2     2  GLY2        0.3221
     20 O           5.7666    0.2067    2.0906 O.3     2  GLY2       -0.4795
     21 OXT         5.7622    2.4976    1.8725 O.2     2  GLY2       -0.2492
     22 H           3.5450   -3.7575    1.5174 H       1  UNK1        0.0340
     23 H           1.8426   -3.0717    1.4144 H       1  UNK1        0.0340
     24 H           2.2090   -4.5778    0.5484 H       1  UNK1        0.0340
     25 H           0.8524   -2.5199   -1.3440 H       1  UNK1        0.0399
     26 H           1.8003   -1.3364   -2.2151 H       1  UNK1        0.0399
     27 H           0.8037   -1.2635    0.6949 H       1  UNK1        0.0603
     28 H           0.2744    0.3523   -1.7467 H       1  UNK1        0.1495
     29 H          -1.8758    1.6050   -1.4703 H       1  UNK1        0.0359
     30 H          -2.2440    0.1155   -2.3416 H       1  UNK1        0.0359
     31 H          -4.1784   -0.3999   -0.9842 H       1  UNK1        0.0290
     32 H          -4.3619    1.1621   -1.7720 H       1  UNK1        0.0290
     33 H          -3.6010    2.3988    0.2779 H       1  UNK1        0.0574
     34 H          -3.8621   -0.0764    1.8644 H       1  UNK1        0.1190
     35 H          -2.9173    1.3505    2.1368 H       1  UNK1        0.1190
     36 H          -6.8846    0.2133    1.5294 H       1  UNK1        0.2951
     37 H           3.5348   -0.6328    1.0272 H       2  GLY2        0.1493
     38 HA1         3.9983    2.0719   -0.0118 H       2  GLY2        0.0577
     39 HA2         3.2254    2.2230    1.6029 H       2  GLY2        0.0577
     40 H           6.6352    0.2456    2.5866 H       2  GLY2        0.2951
@<TRIPOS>BOND
     1     1     2    1
     2     2     3    1
     3     3     4    1
     4     4     5    1
     5     5     6   am
     6     6     7    2
     7     6     8    1
     8     8     9    1
     9     9    10    1
    10    10    11    1
    11    10    12    1
    12    12    13    1
    13    12    14    2
    14     4    15    1
    15    15    16    2
    16    15    17   am
    17    17    18    1
    18    18    19    1
    19    19    20    1
    20    19    21    2
    21     1    22    1
    22     1    23    1
    23     1    24    1
    24     3    25    1
    25     3    26    1
    26     4    27    1
    27     5    28    1
    28     8    29    1
    29     8    30    1
    30     9    31    1
    31     9    32    1
    32    10    33    1
    33    11    34    1
    34    11    35    1
    35    13    36    1
    36    17    37    1
    37    18    38    1
    38    18    39    1
    39    20    40    1
