
     RDKit          3D

 76 79  0  0  0  0  0  0  0  0999 V2000
    1.9147   -3.6618   -1.2589 C   0  0  0  0  0  0  0  0  0  0  0  0
    1.6163   -2.7524   -0.0574 C   0  0  1  0  0  0  0  0  0  0  0  0
    2.5851   -1.6277   -0.0389 C   0  0  0  0  0  0  0  0  0  0  0  0
    3.8319   -1.6719   -0.6067 C   0  0  0  0  0  0  0  0  0  0  0  0
    4.6703   -0.5618   -0.5977 C   0  0  0  0  0  0  0  0  0  0  0  0
    4.3034    0.6345   -0.0258 C   0  0  0  0  0  0  0  0  0  0  0  0
    5.2122    1.7838   -0.0506 C   0  0  0  0  0  0  0  0  0  0  0  0
    4.8027    3.0929   -0.1018 C   0  0  0  0  0  0  0  0  0  0  0  0
    5.6805    4.1551   -0.1282 C   0  0  0  0  0  0  0  0  0  0  0  0
    7.0358    3.8696   -0.1017 C   0  0  0  0  0  0  0  0  0  0  0  0
    7.8614    4.8326   -0.1328 O   0  0  0  0  0  0  0  0  0  0  0  0
    7.4498    2.5915   -0.0511 N   0  0  0  0  0  0  0  0  0  0  0  0
    8.8729    2.3302   -0.0265 C   0  0  0  0  0  0  0  0  0  0  0  0
    6.5783    1.5672   -0.0251 C   0  0  0  0  0  0  0  0  0  0  0  0
    3.0511    0.6983    0.5526 C   0  0  0  0  0  0  0  0  0  0  0  0
    2.2201   -0.3995    0.5460 C   0  0  0  0  0  0  0  0  0  0  0  0
    0.2603   -2.3112   -0.1003 N   0  0  0  0  0  0  0  0  0  0  0  0
   -0.6969   -2.8164    0.8469 C   0  0  0  0  0  0  0  0  0  0  0  0
   -1.6876   -1.7108    1.1919 C   0  0  0  0  0  0  0  0  0  0  0  0
   -2.3903   -1.1770   -0.0033 C   0  0  2  0  0  0  0  0  0  0  0  0
   -3.3405   -0.0839    0.3226 C   0  0  0  0  0  0  0  0  0  0  0  0
   -2.8977    1.1648    0.9553 C   0  0  0  0  0  0  0  0  0  0  0  0
   -1.8631    1.9459    0.1929 C   0  0  0  0  0  0  0  0  0  0  0  0
   -2.3957    1.0018    2.3775 C   0  0  0  0  0  0  0  0  0  0  0  0
   -4.0810    2.0065    1.0806 N   0  0  0  0  0  0  0  0  0  0  0  0
   -3.8602    3.2835    1.6459 C   0  0  0  0  0  0  0  0  0  0  0  0
   -5.2962    1.8378   -0.0494 S   0  0  0  0  0  6  0  0  0  0  0  0
   -4.8236    2.2008   -1.7176 C   0  0  0  0  0  0  0  0  0  0  0  0
   -6.0386    0.5296   -0.0430 O   0  0  0  0  0  0  0  0  0  0  0  0
   -6.3767    2.8775    0.3022 O   0  0  0  0  0  0  0  0  0  0  0  0
   -3.2584   -2.2532   -0.6341 C   0  0  0  0  0  0  0  0  0  0  0  0
   -3.6873   -2.0739   -1.9305 C   0  0  0  0  0  0  0  0  0  0  0  0
   -4.4915   -2.9907   -2.5752 C   0  0  0  0  0  0  0  0  0  0  0  0
   -4.8805   -4.1283   -1.9022 C   0  0  0  0  0  0  0  0  0  0  0  0
   -4.4571   -4.3268   -0.5864 C   0  0  0  0  0  0  0  0  0  0  0  0
   -3.6474   -3.3807    0.0359 C   0  0  0  0  0  0  0  0  0  0  0  0
   -1.4601   -0.8435   -0.9972 O   0  0  0  0  0  0  0  0  0  0  0  0
   -0.1868   -1.3980   -1.0791 C   0  0  0  0  0  0  0  0  0  0  0  0
    0.5450   -1.0793   -2.0189 O   0  0  0  0  0  0  0  0  0  0  0  0
    2.4640   -4.5559   -0.9742 H   0  0  0  0  0  0  0  0  0  0  0  0
    0.9524   -3.8495   -1.8177 H   0  0  0  0  0  0  0  0  0  0  0  0
    2.5234   -3.0649   -1.9531 H   0  0  0  0  0  0  0  0  0  0  0  0
    1.7506   -3.4155    0.8120 H   0  0  0  0  0  0  0  0  0  0  0  0
    4.1686   -2.6067   -1.0589 H   0  0  0  0  0  0  0  0  0  0  0  0
    5.6466   -0.6425   -1.0591 H   0  0  0  0  0  0  0  0  0  0  0  0
    3.7309    3.2897   -0.1273 H   0  0  0  0  0  0  0  0  0  0  0  0
    5.3429    5.1867   -0.1708 H   0  0  0  0  0  0  0  0  0  0  0  0
    9.4110    2.9126    0.7398 H   0  0  0  0  0  0  0  0  0  0  0  0
    9.3409    2.4669   -1.0212 H   0  0  0  0  0  0  0  0  0  0  0  0
    9.0132    1.2680    0.2465 H   0  0  0  0  0  0  0  0  0  0  0  0
    6.9214    0.5352    0.0184 H   0  0  0  0  0  0  0  0  0  0  0  0
    2.7495    1.6478    1.0128 H   0  0  0  0  0  0  0  0  0  0  0  0
    1.2475   -0.3628    0.9945 H   0  0  0  0  0  0  0  0  0  0  0  0
   -1.1403   -3.7045    0.4025 H   0  0  0  0  0  0  0  0  0  0  0  0
   -0.1418   -3.0199    1.7878 H   0  0  0  0  0  0  0  0  0  0  0  0
   -1.0487   -0.9089    1.6076 H   0  0  0  0  0  0  0  0  0  0  0  0
   -2.3599   -2.0449    2.0030 H   0  0  0  0  0  0  0  0  0  0  0  0
   -3.9102    0.2252   -0.6210 H   0  0  0  0  0  0  0  0  0  0  0  0
   -4.1710   -0.5028    0.9776 H   0  0  0  0  0  0  0  0  0  0  0  0
   -0.9559    2.0900    0.8105 H   0  0  0  0  0  0  0  0  0  0  0  0
   -1.6142    1.5159   -0.7978 H   0  0  0  0  0  0  0  0  0  0  0  0
   -2.2591    2.9583   -0.0030 H   0  0  0  0  0  0  0  0  0  0  0  0
   -2.7966    1.8942    2.9731 H   0  0  0  0  0  0  0  0  0  0  0  0
   -2.7494    0.1002    2.8748 H   0  0  0  0  0  0  0  0  0  0  0  0
   -1.2855    1.1864    2.4632 H   0  0  0  0  0  0  0  0  0  0  0  0
   -2.8164    3.5628    1.8545 H   0  0  0  0  0  0  0  0  0  0  0  0
   -4.2139    4.0546    0.8940 H   0  0  0  0  0  0  0  0  0  0  0  0
   -4.5355    3.4361    2.5213 H   0  0  0  0  0  0  0  0  0  0  0  0
   -3.7052    2.2754   -1.8082 H   0  0  0  0  0  0  0  0  0  0  0  0
   -5.2100    3.1685   -2.0736 H   0  0  0  0  0  0  0  0  0  0  0  0
   -5.1818    1.3855   -2.4026 H   0  0  0  0  0  0  0  0  0  0  0  0
   -3.4020   -1.1889   -2.4921 H   0  0  0  0  0  0  0  0  0  0  0  0
   -4.8245   -2.8452   -3.5905 H   0  0  0  0  0  0  0  0  0  0  0  0
   -5.5069   -4.8440   -2.4060 H   0  0  0  0  0  0  0  0  0  0  0  0
   -4.7559   -5.1985   -0.0558 H   0  0  0  0  0  0  0  0  0  0  0  0
   -3.3525   -3.5599    1.0539 H   0  0  0  0  0  0  0  0  0  0  0  0
  1  2  1  0
  2  3  1  0
  3  4  2  0
  4  5  1  0
  5  6  2  0
  6  7  1  0
  7  8  1  0
  8  9  2  0
  9 10  1  0
 10 11  2  0
 10 12  1  0
 12 13  1  0
 12 14  1  0
  6 15  1  0
 15 16  2  0
  2 17  1  0
 17 18  1  0
 18 19  1  0
 19 20  1  0
 20 21  1  1
 21 22  1  0
 22 23  1  0
 22 24  1  0
 22 25  1  0
 25 26  1  0
 25 27  1  0
 27 28  1  0
 27 29  2  0
 27 30  2  0
 20 31  1  0
 31 32  2  0
 32 33  1  0
 33 34  2  0
 34 35  1  0
 35 36  2  0
 20 37  1  0
 37 38  1  0
 38 39  2  0
 16  3  1  0
 38 17  1  0
 14  7  2  0
 36 31  1  0
  1 40  1  0
  1 41  1  0
  1 42  1  0
  2 43  1  1
  4 44  1  0
  5 45  1  0
  8 46  1  0
  9 47  1  0
 13 48  1  0
 13 49  1  0
 13 50  1  0
 14 51  1  0
 15 52  1  0
 16 53  1  0
 18 54  1  0
 18 55  1  0
 19 56  1  0
 19 57  1  0
 21 58  1  0
 21 59  1  0
 23 60  1  0
 23 61  1  0
 23 62  1  0
 24 63  1  0
 24 64  1  0
 24 65  1  0
 26 66  1  0
 26 67  1  0
 26 68  1  0
 28 69  1  0
 28 70  1  0
 28 71  1  0
 32 72  1  0
 33 73  1  0
 34 74  1  0
 35 75  1  0
 36 76  1  0
M  END
$$$$
