@<TRIPOS>MOLECULE
*****
 76 79 0 0 0
SMALL
GASTEIGER

@<TRIPOS>ATOM
      1 C           1.9147   -3.6618   -1.2589 C.3     1  UNL1       -0.0421
      2 C           1.6163   -2.7524   -0.0574 C.3     1  UNL1        0.0515
      3 C           2.5851   -1.6277   -0.0389 C.ar    1  UNL1       -0.0271
      4 C           3.8319   -1.6719   -0.6067 C.ar    1  UNL1       -0.0562
      5 C           4.6703   -0.5618   -0.5977 C.ar    1  UNL1       -0.0537
      6 C           4.3034    0.6345   -0.0258 C.ar    1  UNL1       -0.0165
      7 C           5.2122    1.7838   -0.0506 C.ar    1  UNL1       -0.0015
      8 C           4.8027    3.0929   -0.1018 C.ar    1  UNL1       -0.0475
      9 C           5.6805    4.1551   -0.1282 C.ar    1  UNL1        0.0036
     10 C           7.0358    3.8696   -0.1017 C.ar    1  UNL1        0.2511
     11 O           7.8614    4.8326   -0.1328 O.2     1  UNL1       -0.2677
     12 N           7.4498    2.5915   -0.0511 N.ar    1  UNL1       -0.3177
     13 C           8.8729    2.3302   -0.0265 C.3     1  UNL1        0.0147
     14 C           6.5783    1.5672   -0.0251 C.ar    1  UNL1        0.0153
     15 C           3.0511    0.6983    0.5526 C.ar    1  UNL1       -0.0537
     16 C           2.2201   -0.3995    0.5460 C.ar    1  UNL1       -0.0562
     17 N           0.2603   -2.3112   -0.1003 N.am    1  UNL1       -0.2605
     18 C          -0.6969   -2.8164    0.8469 C.3     1  UNL1        0.0224
     19 C          -1.6876   -1.7108    1.1919 C.3     1  UNL1        0.0075
     20 C          -2.3903   -1.1770   -0.0033 C.3     1  UNL1        0.1431
     21 C          -3.3405   -0.0839    0.3226 C.3     1  UNL1        0.0111
     22 C          -2.8977    1.1648    0.9553 C.3     1  UNL1        0.0407
     23 C          -1.8631    1.9459    0.1929 C.3     1  UNL1       -0.0451
     24 C          -2.3957    1.0018    2.3775 C.3     1  UNL1       -0.0451
     25 N          -4.0810    2.0065    1.0806 N.3     1  UNL1       -0.1787
     26 C          -3.8602    3.2835    1.6459 C.3     1  UNL1        0.0091
     27 S          -5.2962    1.8378   -0.0494 S.O2    1  UNL1        0.0292
     28 C          -4.8236    2.2008   -1.7176 C.3     1  UNL1        0.0707
     29 O          -6.0386    0.5296   -0.0430 O.2     1  UNL1       -0.1583
     30 O          -6.3767    2.8775    0.3022 O.2     1  UNL1       -0.1583
     31 C          -3.2584   -2.2532   -0.6341 C.ar    1  UNL1       -0.0041
     32 C          -3.6873   -2.0739   -1.9305 C.ar    1  UNL1       -0.0548
     33 C          -4.4915   -2.9907   -2.5752 C.ar    1  UNL1       -0.0614
     34 C          -4.8805   -4.1283   -1.9022 C.ar    1  UNL1       -0.0617
     35 C          -4.4571   -4.3268   -0.5864 C.ar    1  UNL1       -0.0614
     36 C          -3.6474   -3.3807    0.0359 C.ar    1  UNL1       -0.0548
     37 O          -1.4601   -0.8435   -0.9972 O.3     1  UNL1       -0.4388
     38 C          -0.1868   -1.3980   -1.0791 C.2     1  UNL1        0.4042
     39 O           0.5450   -1.0793   -2.0189 O.2     1  UNL1       -0.2262
     40 H           2.4640   -4.5559   -0.9742 H       1  UNL1        0.0251
     41 H           0.9524   -3.8495   -1.8177 H       1  UNL1        0.0251
     42 H           2.5234   -3.0649   -1.9531 H       1  UNL1        0.0251
     43 H           1.7506   -3.4155    0.8120 H       1  UNL1        0.0549
     44 H           4.1686   -2.6067   -1.0589 H       1  UNL1        0.0621
     45 H           5.6466   -0.6425   -1.0591 H       1  UNL1        0.0624
     46 H           3.7309    3.2897   -0.1273 H       1  UNL1        0.0626
     47 H           5.3429    5.1867   -0.1708 H       1  UNL1        0.0672
     48 H           9.4110    2.9126    0.7398 H       1  UNL1        0.0457
     49 H           9.3409    2.4669   -1.0212 H       1  UNL1        0.0457
     50 H           9.0132    1.2680    0.2465 H       1  UNL1        0.0457
     51 H           6.9214    0.5352    0.0184 H       1  UNL1        0.0816
     52 H           2.7495    1.6478    1.0128 H       1  UNL1        0.0624
     53 H           1.2475   -0.3628    0.9945 H       1  UNL1        0.0621
     54 H          -1.1403   -3.7045    0.4025 H       1  UNL1        0.0467
     55 H          -0.1418   -3.0199    1.7878 H       1  UNL1        0.0467
     56 H          -1.0487   -0.9089    1.6076 H       1  UNL1        0.0322
     57 H          -2.3599   -2.0449    2.0030 H       1  UNL1        0.0322
     58 H          -3.9102    0.2252   -0.6210 H       1  UNL1        0.0325
     59 H          -4.1710   -0.5028    0.9776 H       1  UNL1        0.0325
     60 H          -0.9559    2.0900    0.8105 H       1  UNL1        0.0248
     61 H          -1.6142    1.5159   -0.7978 H       1  UNL1        0.0248
     62 H          -2.2591    2.9583   -0.0030 H       1  UNL1        0.0248
     63 H          -2.7966    1.8942    2.9731 H       1  UNL1        0.0248
     64 H          -2.7494    0.1002    2.8748 H       1  UNL1        0.0248
     65 H          -1.2855    1.1864    2.4632 H       1  UNL1        0.0248
     66 H          -2.8164    3.5628    1.8545 H       1  UNL1        0.0408
     67 H          -4.2139    4.0546    0.8940 H       1  UNL1        0.0408
     68 H          -4.5355    3.4361    2.5213 H       1  UNL1        0.0408
     69 H          -3.7052    2.2754   -1.8082 H       1  UNL1        0.0479
     70 H          -5.2100    3.1685   -2.0736 H       1  UNL1        0.0479
     71 H          -5.1818    1.3855   -2.4026 H       1  UNL1        0.0479
     72 H          -3.4020   -1.1889   -2.4921 H       1  UNL1        0.0622
     73 H          -4.8245   -2.8452   -3.5905 H       1  UNL1        0.0618
     74 H          -5.5069   -4.8440   -2.4060 H       1  UNL1        0.0618
     75 H          -4.7559   -5.1985   -0.0558 H       1  UNL1        0.0618
     76 H          -3.3525   -3.5599    1.0539 H       1  UNL1        0.0622
@<TRIPOS>BOND
     1     1     2    1
     2     2     3    1
     3     3     4   ar
     4     4     5   ar
     5     5     6   ar
     6     6     7    1
     7     7     8   ar
     8     8     9   ar
     9     9    10   ar
    10    10    11    2
    11    10    12   ar
    12    12    13    1
    13    12    14   ar
    14     6    15   ar
    15    15    16   ar
    16     2    17    1
    17    17    18    1
    18    18    19    1
    19    19    20    1
    20    20    21    1
    21    21    22    1
    22    22    23    1
    23    22    24    1
    24    22    25    1
    25    25    26    1
    26    25    27    1
    27    27    28    1
    28    27    29    2
    29    27    30    2
    30    20    31    1
    31    31    32   ar
    32    32    33   ar
    33    33    34   ar
    34    34    35   ar
    35    35    36   ar
    36    20    37    1
    37    37    38    1
    38    38    39    2
    39    16     3   ar
    40    38    17   am
    41    14     7   ar
    42    36    31   ar
    43     1    40    1
    44     1    41    1
    45     1    42    1
    46     2    43    1
    47     4    44    1
    48     5    45    1
    49     8    46    1
    50     9    47    1
    51    13    48    1
    52    13    49    1
    53    13    50    1
    54    14    51    1
    55    15    52    1
    56    16    53    1
    57    18    54    1
    58    18    55    1
    59    19    56    1
    60    19    57    1
    61    21    58    1
    62    21    59    1
    63    23    60    1
    64    23    61    1
    65    23    62    1
    66    24    63    1
    67    24    64    1
    68    24    65    1
    69    26    66    1
    70    26    67    1
    71    26    68    1
    72    28    69    1
    73    28    70    1
    74    28    71    1
    75    32    72    1
    76    33    73    1
    77    34    74    1
    78    35    75    1
    79    36    76    1
