@<TRIPOS>MOLECULE
*****
 100 102 0 0 0
SMALL
GASTEIGER

@<TRIPOS>ATOM
      1 C           6.4831   -0.2832    3.7619 C.3     1  UNL1       -0.0523
      2 C           6.5301   -1.0333    2.4333 C.3     1  UNL1       -0.0036
      3 N           7.4679   -0.5282    1.5311 N.3     1  UNL1       -0.2983
      4 C           7.4006    0.7083    0.9274 C.3     1  UNL1       -0.0008
      5 C           6.4153    1.0836   -0.0903 C.3     1  UNL1       -0.0402
      6 C           4.9926    1.0450    0.3468 C.3     1  UNL1       -0.0515
      7 C           4.0924    1.5106   -0.8299 C.3     1  UNL1       -0.0447
      8 C           2.6572    1.4878   -0.3755 C.3     1  UNL1        0.0242
      9 C           1.8474    1.9420   -1.5301 C.2     1  UNL1        0.2156
     10 O           2.3394    2.2092   -2.6580 O.2     1  UNL1       -0.2756
     11 N           0.4277    2.0842   -1.3516 N.am    1  UNL1       -0.2985
     12 C          -0.3972    2.5380   -2.4580 C.3     1  UNL1        0.0305
     13 C          -1.8425    2.4378   -2.0917 C.3     1  UNL1        0.0305
     14 N          -2.1089    1.1596   -1.4153 N.am    1  UNL1       -0.2985
     15 C          -3.1954    0.3894   -1.8753 C.2     1  UNL1        0.2156
     16 O          -3.9126    0.7514   -2.8556 O.2     1  UNL1       -0.2756
     17 C          -3.5642   -0.9065   -1.2207 C.3     1  UNL1        0.0242
     18 C          -4.4883   -1.6468   -2.1453 C.3     1  UNL1       -0.0447
     19 C          -4.9348   -2.9608   -1.5748 C.3     1  UNL1       -0.0515
     20 C          -5.6844   -2.7510   -0.2969 C.3     1  UNL1       -0.0402
     21 C          -6.9197   -1.9028   -0.4850 C.3     1  UNL1       -0.0008
     22 N          -7.6045   -1.7692    0.7448 N.3     1  UNL1       -0.2983
     23 C          -8.2225   -2.9072    1.3006 C.3     1  UNL1       -0.0036
     24 C          -9.4081   -3.4104    0.4993 C.3     1  UNL1       -0.0523
     25 C          -7.2798   -0.6844    1.5844 C.3     1  UNL1        0.0275
     26 C          -7.5395    0.6690    0.9760 C.ar    1  UNL1        0.0082
     27 C          -6.5305    1.4634    0.4979 C.ar    1  UNL1       -0.0539
     28 C          -6.8533    2.6894   -0.0390 C.ar    1  UNL1       -0.0612
     29 C          -8.1405    3.1549   -0.1186 C.ar    1  UNL1       -0.0583
     30 C          -9.1367    2.3392    0.3678 C.ar    1  UNL1       -0.0196
     31 C          -8.8413    1.1074    0.9104 C.ar    1  UNL1        0.1245
     32 O          -9.9021    0.3343    1.3836 O.3     1  UNL1       -0.4948
     33 C         -11.2373    0.7551    1.3311 C.3     1  UNL1        0.0788
     34 C          -1.2531    0.7272   -0.3316 C.3     1  UNL1        0.0305
     35 C          -0.1750    1.7842   -0.0926 C.3     1  UNL1        0.0305
     36 C           8.8025   -0.8435    1.9876 C.3     1  UNL1        0.0275
     37 C           9.8815   -0.3487    1.1151 C.ar    1  UNL1        0.0082
     38 C          10.6156    0.7406    1.5015 C.ar    1  UNL1       -0.0539
     39 C          11.6439    1.2487    0.7271 C.ar    1  UNL1       -0.0612
     40 C          11.9488    0.6397   -0.4839 C.ar    1  UNL1       -0.0583
     41 C          11.2032   -0.4473   -0.8504 C.ar    1  UNL1       -0.0196
     42 C          10.1725   -0.9630   -0.0833 C.ar    1  UNL1        0.1245
     43 O           9.4255   -2.0754   -0.4807 O.3     1  UNL1       -0.4948
     44 C           9.7030   -2.7200   -1.7041 C.3     1  UNL1        0.0788
     45 H           6.5820    0.8074    3.6300 H       1  UNL1        0.0242
     46 H           5.4763   -0.4516    4.2375 H       1  UNL1        0.0242
     47 H           7.2275   -0.6635    4.4891 H       1  UNL1        0.0242
     48 H           6.9511   -2.0617    2.7595 H       1  UNL1        0.0424
     49 H           5.5274   -1.2811    2.1189 H       1  UNL1        0.0424
     50 H           8.4379    0.9075    0.4616 H       1  UNL1        0.0427
     51 H           7.3895    1.5665    1.7061 H       1  UNL1        0.0427
     52 H           6.5707    0.5865   -1.0848 H       1  UNL1        0.0278
     53 H           6.6185    2.1749   -0.3479 H       1  UNL1        0.0278
     54 H           4.8075    1.7934    1.1412 H       1  UNL1        0.0266
     55 H           4.5834    0.0574    0.5895 H       1  UNL1        0.0266
     56 H           4.2220    0.7670   -1.6115 H       1  UNL1        0.0270
     57 H           4.3546    2.5435   -1.0778 H       1  UNL1        0.0270
     58 H           2.4951    2.1335    0.5143 H       1  UNL1        0.0358
     59 H           2.3780    0.4597   -0.1382 H       1  UNL1        0.0358
     60 H          -0.2238    1.8033   -3.2955 H       1  UNL1        0.0480
     61 H          -0.1051    3.5410   -2.8087 H       1  UNL1        0.0480
     62 H          -2.5294    2.5888   -2.9338 H       1  UNL1        0.0480
     63 H          -2.0662    3.2081   -1.3039 H       1  UNL1        0.0480
     64 H          -2.6983   -1.4932   -0.9015 H       1  UNL1        0.0358
     65 H          -4.1345   -0.6533   -0.2806 H       1  UNL1        0.0358
     66 H          -5.3528   -1.0131   -2.4100 H       1  UNL1        0.0270
     67 H          -3.9796   -1.8533   -3.1293 H       1  UNL1        0.0270
     68 H          -5.5045   -3.5701   -2.3090 H       1  UNL1        0.0266
     69 H          -4.0177   -3.5699   -1.3254 H       1  UNL1        0.0266
     70 H          -5.9749   -3.7627    0.1104 H       1  UNL1        0.0278
     71 H          -4.9794   -2.3308    0.4549 H       1  UNL1        0.0278
     72 H          -7.5152   -2.3790   -1.2934 H       1  UNL1        0.0427
     73 H          -6.6302   -0.8994   -0.9084 H       1  UNL1        0.0427
     74 H          -7.5164   -3.7340    1.4200 H       1  UNL1        0.0424
     75 H          -8.6679   -2.5963    2.2938 H       1  UNL1        0.0424
     76 H          -9.1819   -3.5980   -0.5585 H       1  UNL1        0.0242
     77 H          -9.7040   -4.3780    0.9527 H       1  UNL1        0.0242
     78 H         -10.3016   -2.7454    0.6069 H       1  UNL1        0.0242
     79 H          -6.1641   -0.7100    1.7638 H       1  UNL1        0.0477
     80 H          -7.7187   -0.7471    2.6037 H       1  UNL1        0.0477
     81 H          -5.5183    1.1520    0.5343 H       1  UNL1        0.0622
     82 H          -6.0676    3.3372   -0.4262 H       1  UNL1        0.0618
     83 H          -8.3963    4.1086   -0.5358 H       1  UNL1        0.0619
     84 H         -10.1817    2.6700    0.3248 H       1  UNL1        0.0654
     85 H         -11.8673   -0.0612    1.7443 H       1  UNL1        0.0660
     86 H         -11.5290    0.9599    0.2777 H       1  UNL1        0.0660
     87 H         -11.3816    1.6617    1.9255 H       1  UNL1        0.0660
     88 H          -0.7318   -0.2129   -0.5390 H       1  UNL1        0.0480
     89 H          -1.8326    0.6470    0.6031 H       1  UNL1        0.0480
     90 H           0.5963    1.4286    0.6101 H       1  UNL1        0.0480
     91 H          -0.6411    2.7106    0.3438 H       1  UNL1        0.0480
     92 H           8.9817   -0.4578    3.0289 H       1  UNL1        0.0477
     93 H           8.9560   -1.9413    2.0794 H       1  UNL1        0.0477
     94 H          10.3848    1.2157    2.4412 H       1  UNL1        0.0622
     95 H          12.2234    2.0982    1.0216 H       1  UNL1        0.0618
     96 H          12.7445    1.0239   -1.0974 H       1  UNL1        0.0619
     97 H          11.4395   -0.9269   -1.7920 H       1  UNL1        0.0654
     98 H           9.2291   -3.7107   -1.6968 H       1  UNL1        0.0660
     99 H          10.7965   -2.8555   -1.8285 H       1  UNL1        0.0660
    100 H           9.2619   -2.1125   -2.5462 H       1  UNL1        0.0660
@<TRIPOS>BOND
     1     1     2    1
     2     2     3    1
     3     3     4    1
     4     4     5    1
     5     5     6    1
     6     6     7    1
     7     7     8    1
     8     8     9    1
     9     9    10    2
    10     9    11   am
    11    11    12    1
    12    12    13    1
    13    13    14    1
    14    14    15   am
    15    15    16    2
    16    15    17    1
    17    17    18    1
    18    18    19    1
    19    19    20    1
    20    20    21    1
    21    21    22    1
    22    22    23    1
    23    23    24    1
    24    22    25    1
    25    25    26    1
    26    26    27   ar
    27    27    28   ar
    28    28    29   ar
    29    29    30   ar
    30    30    31   ar
    31    31    32    1
    32    32    33    1
    33    14    34    1
    34    34    35    1
    35     3    36    1
    36    36    37    1
    37    37    38   ar
    38    38    39   ar
    39    39    40   ar
    40    40    41   ar
    41    41    42   ar
    42    42    43    1
    43    43    44    1
    44    35    11    1
    45    42    37   ar
    46    31    26   ar
    47     1    45    1
    48     1    46    1
    49     1    47    1
    50     2    48    1
    51     2    49    1
    52     4    50    1
    53     4    51    1
    54     5    52    1
    55     5    53    1
    56     6    54    1
    57     6    55    1
    58     7    56    1
    59     7    57    1
    60     8    58    1
    61     8    59    1
    62    12    60    1
    63    12    61    1
    64    13    62    1
    65    13    63    1
    66    17    64    1
    67    17    65    1
    68    18    66    1
    69    18    67    1
    70    19    68    1
    71    19    69    1
    72    20    70    1
    73    20    71    1
    74    21    72    1
    75    21    73    1
    76    23    74    1
    77    23    75    1
    78    24    76    1
    79    24    77    1
    80    24    78    1
    81    25    79    1
    82    25    80    1
    83    27    81    1
    84    28    82    1
    85    29    83    1
    86    30    84    1
    87    33    85    1
    88    33    86    1
    89    33    87    1
    90    34    88    1
    91    34    89    1
    92    35    90    1
    93    35    91    1
    94    36    92    1
    95    36    93    1
    96    38    94    1
    97    39    95    1
    98    40    96    1
    99    41    97    1
   100    44    98    1
   101    44    99    1
   102    44   100    1
