
     RDKit          3D

100102  0  0  0  0  0  0  0  0999 V2000
    6.4831   -0.2832    3.7619 C   0  0  0  0  0  0  0  0  0  0  0  0
    6.5301   -1.0333    2.4333 C   0  0  0  0  0  0  0  0  0  0  0  0
    7.4679   -0.5282    1.5311 N   0  0  0  0  0  0  0  0  0  0  0  0
    7.4006    0.7083    0.9274 C   0  0  0  0  0  0  0  0  0  0  0  0
    6.4153    1.0836   -0.0903 C   0  0  0  0  0  0  0  0  0  0  0  0
    4.9926    1.0450    0.3468 C   0  0  0  0  0  0  0  0  0  0  0  0
    4.0924    1.5106   -0.8299 C   0  0  0  0  0  0  0  0  0  0  0  0
    2.6572    1.4878   -0.3755 C   0  0  0  0  0  0  0  0  0  0  0  0
    1.8474    1.9420   -1.5301 C   0  0  0  0  0  0  0  0  0  0  0  0
    2.3394    2.2092   -2.6580 O   0  0  0  0  0  0  0  0  0  0  0  0
    0.4277    2.0842   -1.3516 N   0  0  0  0  0  0  0  0  0  0  0  0
   -0.3972    2.5380   -2.4580 C   0  0  0  0  0  0  0  0  0  0  0  0
   -1.8425    2.4378   -2.0917 C   0  0  0  0  0  0  0  0  0  0  0  0
   -2.1089    1.1596   -1.4153 N   0  0  0  0  0  0  0  0  0  0  0  0
   -3.1954    0.3894   -1.8753 C   0  0  0  0  0  0  0  0  0  0  0  0
   -3.9126    0.7514   -2.8556 O   0  0  0  0  0  0  0  0  0  0  0  0
   -3.5642   -0.9065   -1.2207 C   0  0  0  0  0  0  0  0  0  0  0  0
   -4.4883   -1.6468   -2.1453 C   0  0  0  0  0  0  0  0  0  0  0  0
   -4.9348   -2.9608   -1.5748 C   0  0  0  0  0  0  0  0  0  0  0  0
   -5.6844   -2.7510   -0.2969 C   0  0  0  0  0  0  0  0  0  0  0  0
   -6.9197   -1.9028   -0.4850 C   0  0  0  0  0  0  0  0  0  0  0  0
   -7.6045   -1.7692    0.7448 N   0  0  0  0  0  0  0  0  0  0  0  0
   -8.2225   -2.9072    1.3006 C   0  0  0  0  0  0  0  0  0  0  0  0
   -9.4081   -3.4104    0.4993 C   0  0  0  0  0  0  0  0  0  0  0  0
   -7.2798   -0.6844    1.5844 C   0  0  0  0  0  0  0  0  0  0  0  0
   -7.5395    0.6690    0.9760 C   0  0  0  0  0  0  0  0  0  0  0  0
   -6.5305    1.4634    0.4979 C   0  0  0  0  0  0  0  0  0  0  0  0
   -6.8533    2.6894   -0.0390 C   0  0  0  0  0  0  0  0  0  0  0  0
   -8.1405    3.1549   -0.1186 C   0  0  0  0  0  0  0  0  0  0  0  0
   -9.1367    2.3392    0.3678 C   0  0  0  0  0  0  0  0  0  0  0  0
   -8.8413    1.1074    0.9104 C   0  0  0  0  0  0  0  0  0  0  0  0
   -9.9021    0.3343    1.3836 O   0  0  0  0  0  0  0  0  0  0  0  0
  -11.2373    0.7551    1.3311 C   0  0  0  0  0  0  0  0  0  0  0  0
   -1.2531    0.7272   -0.3316 C   0  0  0  0  0  0  0  0  0  0  0  0
   -0.1750    1.7842   -0.0926 C   0  0  0  0  0  0  0  0  0  0  0  0
    8.8025   -0.8435    1.9876 C   0  0  0  0  0  0  0  0  0  0  0  0
    9.8815   -0.3487    1.1151 C   0  0  0  0  0  0  0  0  0  0  0  0
   10.6156    0.7406    1.5015 C   0  0  0  0  0  0  0  0  0  0  0  0
   11.6439    1.2487    0.7271 C   0  0  0  0  0  0  0  0  0  0  0  0
   11.9488    0.6397   -0.4839 C   0  0  0  0  0  0  0  0  0  0  0  0
   11.2032   -0.4473   -0.8504 C   0  0  0  0  0  0  0  0  0  0  0  0
   10.1725   -0.9630   -0.0833 C   0  0  0  0  0  0  0  0  0  0  0  0
    9.4255   -2.0754   -0.4807 O   0  0  0  0  0  0  0  0  0  0  0  0
    9.7030   -2.7200   -1.7041 C   0  0  0  0  0  0  0  0  0  0  0  0
    6.5820    0.8074    3.6300 H   0  0  0  0  0  0  0  0  0  0  0  0
    5.4763   -0.4516    4.2375 H   0  0  0  0  0  0  0  0  0  0  0  0
    7.2275   -0.6635    4.4891 H   0  0  0  0  0  0  0  0  0  0  0  0
    6.9511   -2.0617    2.7595 H   0  0  0  0  0  0  0  0  0  0  0  0
    5.5274   -1.2811    2.1189 H   0  0  0  0  0  0  0  0  0  0  0  0
    8.4379    0.9075    0.4616 H   0  0  0  0  0  0  0  0  0  0  0  0
    7.3895    1.5665    1.7061 H   0  0  0  0  0  0  0  0  0  0  0  0
    6.5707    0.5865   -1.0848 H   0  0  0  0  0  0  0  0  0  0  0  0
    6.6185    2.1749   -0.3479 H   0  0  0  0  0  0  0  0  0  0  0  0
    4.8075    1.7934    1.1412 H   0  0  0  0  0  0  0  0  0  0  0  0
    4.5834    0.0574    0.5895 H   0  0  0  0  0  0  0  0  0  0  0  0
    4.2220    0.7670   -1.6115 H   0  0  0  0  0  0  0  0  0  0  0  0
    4.3546    2.5435   -1.0778 H   0  0  0  0  0  0  0  0  0  0  0  0
    2.4951    2.1335    0.5143 H   0  0  0  0  0  0  0  0  0  0  0  0
    2.3780    0.4597   -0.1382 H   0  0  0  0  0  0  0  0  0  0  0  0
   -0.2238    1.8033   -3.2955 H   0  0  0  0  0  0  0  0  0  0  0  0
   -0.1051    3.5410   -2.8087 H   0  0  0  0  0  0  0  0  0  0  0  0
   -2.5294    2.5888   -2.9338 H   0  0  0  0  0  0  0  0  0  0  0  0
   -2.0662    3.2081   -1.3039 H   0  0  0  0  0  0  0  0  0  0  0  0
   -2.6983   -1.4932   -0.9015 H   0  0  0  0  0  0  0  0  0  0  0  0
   -4.1345   -0.6533   -0.2806 H   0  0  0  0  0  0  0  0  0  0  0  0
   -5.3528   -1.0131   -2.4100 H   0  0  0  0  0  0  0  0  0  0  0  0
   -3.9796   -1.8533   -3.1293 H   0  0  0  0  0  0  0  0  0  0  0  0
   -5.5045   -3.5701   -2.3090 H   0  0  0  0  0  0  0  0  0  0  0  0
   -4.0177   -3.5699   -1.3254 H   0  0  0  0  0  0  0  0  0  0  0  0
   -5.9749   -3.7627    0.1104 H   0  0  0  0  0  0  0  0  0  0  0  0
   -4.9794   -2.3308    0.4549 H   0  0  0  0  0  0  0  0  0  0  0  0
   -7.5152   -2.3790   -1.2934 H   0  0  0  0  0  0  0  0  0  0  0  0
   -6.6302   -0.8994   -0.9084 H   0  0  0  0  0  0  0  0  0  0  0  0
   -7.5164   -3.7340    1.4200 H   0  0  0  0  0  0  0  0  0  0  0  0
   -8.6679   -2.5963    2.2938 H   0  0  0  0  0  0  0  0  0  0  0  0
   -9.1819   -3.5980   -0.5585 H   0  0  0  0  0  0  0  0  0  0  0  0
   -9.7040   -4.3780    0.9527 H   0  0  0  0  0  0  0  0  0  0  0  0
  -10.3016   -2.7454    0.6069 H   0  0  0  0  0  0  0  0  0  0  0  0
   -6.1641   -0.7100    1.7638 H   0  0  0  0  0  0  0  0  0  0  0  0
   -7.7187   -0.7471    2.6037 H   0  0  0  0  0  0  0  0  0  0  0  0
   -5.5183    1.1520    0.5343 H   0  0  0  0  0  0  0  0  0  0  0  0
   -6.0676    3.3372   -0.4262 H   0  0  0  0  0  0  0  0  0  0  0  0
   -8.3963    4.1086   -0.5358 H   0  0  0  0  0  0  0  0  0  0  0  0
  -10.1817    2.6700    0.3248 H   0  0  0  0  0  0  0  0  0  0  0  0
  -11.8673   -0.0612    1.7443 H   0  0  0  0  0  0  0  0  0  0  0  0
  -11.5290    0.9599    0.2777 H   0  0  0  0  0  0  0  0  0  0  0  0
  -11.3816    1.6617    1.9255 H   0  0  0  0  0  0  0  0  0  0  0  0
   -0.7318   -0.2129   -0.5390 H   0  0  0  0  0  0  0  0  0  0  0  0
   -1.8326    0.6470    0.6031 H   0  0  0  0  0  0  0  0  0  0  0  0
    0.5963    1.4286    0.6101 H   0  0  0  0  0  0  0  0  0  0  0  0
   -0.6411    2.7106    0.3438 H   0  0  0  0  0  0  0  0  0  0  0  0
    8.9817   -0.4578    3.0289 H   0  0  0  0  0  0  0  0  0  0  0  0
    8.9560   -1.9413    2.0794 H   0  0  0  0  0  0  0  0  0  0  0  0
   10.3848    1.2157    2.4412 H   0  0  0  0  0  0  0  0  0  0  0  0
   12.2234    2.0982    1.0216 H   0  0  0  0  0  0  0  0  0  0  0  0
   12.7445    1.0239   -1.0974 H   0  0  0  0  0  0  0  0  0  0  0  0
   11.4395   -0.9269   -1.7920 H   0  0  0  0  0  0  0  0  0  0  0  0
    9.2291   -3.7107   -1.6968 H   0  0  0  0  0  0  0  0  0  0  0  0
   10.7965   -2.8555   -1.8285 H   0  0  0  0  0  0  0  0  0  0  0  0
    9.2619   -2.1125   -2.5462 H   0  0  0  0  0  0  0  0  0  0  0  0
  1  2  1  0
  2  3  1  0
  3  4  1  0
  4  5  1  0
  5  6  1  0
  6  7  1  0
  7  8  1  0
  8  9  1  0
  9 10  2  0
  9 11  1  0
 11 12  1  0
 12 13  1  0
 13 14  1  0
 14 15  1  0
 15 16  2  0
 15 17  1  0
 17 18  1  0
 18 19  1  0
 19 20  1  0
 20 21  1  0
 21 22  1  0
 22 23  1  0
 23 24  1  0
 22 25  1  0
 25 26  1  0
 26 27  2  0
 27 28  1  0
 28 29  2  0
 29 30  1  0
 30 31  2  0
 31 32  1  0
 32 33  1  0
 14 34  1  0
 34 35  1  0
  3 36  1  0
 36 37  1  0
 37 38  2  0
 38 39  1  0
 39 40  2  0
 40 41  1  0
 41 42  2  0
 42 43  1  0
 43 44  1  0
 35 11  1  0
 42 37  1  0
 31 26  1  0
  1 45  1  0
  1 46  1  0
  1 47  1  0
  2 48  1  0
  2 49  1  0
  4 50  1  0
  4 51  1  0
  5 52  1  0
  5 53  1  0
  6 54  1  0
  6 55  1  0
  7 56  1  0
  7 57  1  0
  8 58  1  0
  8 59  1  0
 12 60  1  0
 12 61  1  0
 13 62  1  0
 13 63  1  0
 17 64  1  0
 17 65  1  0
 18 66  1  0
 18 67  1  0
 19 68  1  0
 19 69  1  0
 20 70  1  0
 20 71  1  0
 21 72  1  0
 21 73  1  0
 23 74  1  0
 23 75  1  0
 24 76  1  0
 24 77  1  0
 24 78  1  0
 25 79  1  0
 25 80  1  0
 27 81  1  0
 28 82  1  0
 29 83  1  0
 30 84  1  0
 33 85  1  0
 33 86  1  0
 33 87  1  0
 34 88  1  0
 34 89  1  0
 35 90  1  0
 35 91  1  0
 36 92  1  0
 36 93  1  0
 38 94  1  0
 39 95  1  0
 40 96  1  0
 41 97  1  0
 44 98  1  0
 44 99  1  0
 44100  1  0
M  END
$$$$
