@<TRIPOS>MOLECULE
*****
 42 45 0 0 0
SMALL
GASTEIGER

@<TRIPOS>ATOM
      1 C          -2.8929   -0.7431    1.9138 C.3     1  UNL1        0.0391
      2 O          -1.5976   -1.1315    1.6623 O.3     1  UNL1       -0.3568
      3 C          -1.2655   -1.2179    0.3228 C.3     1  UNL1        0.1630
      4 C          -2.0513   -2.1621   -0.4678 C.3     1  UNL1        0.0719
      5 N          -1.5169   -2.6510   -1.7638 N.3     1  UNL1       -0.3022
      6 C          -1.2291   -3.4160   -0.5687 C.3     1  UNL1        0.0435
      7 C           0.1450   -3.1633   -0.0254 C.3     1  UNL1        0.0320
      8 N           0.0740   -1.7468    0.2611 N.pl3   1  UNL1       -0.2954
      9 C           0.9319   -0.6204    0.5286 C.2     1  UNL1        0.0870
     10 C           0.2766    0.4819    0.2045 C.2     1  UNL1        0.0366
     11 C          -1.0695    0.1402   -0.3033 C.3     1  UNL1        0.0714
     12 C          -1.1381    0.0986   -1.8020 C.3     1  UNL1        0.1053
     13 O          -0.9555    1.4066   -2.2962 O.3     1  UNL1       -0.4498
     14 C          -1.7863    2.4814   -2.0149 C.2     1  UNL1        0.3977
     15 N          -1.4160    3.7154   -2.6194 N.am    1  UNL1       -0.2950
     16 O          -2.7874    2.3576   -1.2792 O.2     1  UNL1       -0.2267
     17 C           1.0495    1.6954    0.4363 C.2     1  UNL1        0.2054
     18 O           0.5528    2.8177    0.1743 O.2     1  UNL1       -0.2856
     19 C           2.4045    1.7522    0.9661 C.2     1  UNL1        0.0789
     20 N           3.1012    2.9754    1.1673 N.pl3   1  UNL1       -0.3547
     21 C           3.0186    0.6226    1.2752 C.2     1  UNL1        0.0224
     22 C           4.3842    0.6181    1.8128 C.3     1  UNL1       -0.0341
     23 C           2.3089   -0.6311    1.0710 C.2     1  UNL1        0.2050
     24 O           2.9061   -1.6901    1.3694 O.2     1  UNL1       -0.2856
     25 H          -3.1925    0.2318    1.5330 H       1  UNL1        0.0524
     26 H          -3.0013   -0.6958    3.0172 H       1  UNL1        0.0524
     27 H          -3.6263   -1.5230    1.5765 H       1  UNL1        0.0524
     28 H          -3.1560   -2.2403   -0.3970 H       1  UNL1        0.0522
     29 H          -2.1757   -3.0989   -2.4076 H       1  UNL1        0.1228
     30 H          -1.7108   -4.4021   -0.4285 H       1  UNL1        0.0493
     31 H           0.2638   -3.6590    0.9614 H       1  UNL1        0.0480
     32 H           0.9520   -3.4290   -0.7323 H       1  UNL1        0.0480
     33 H          -1.7937    0.8257    0.1727 H       1  UNL1        0.0429
     34 H          -0.2726   -0.4882   -2.1696 H       1  UNL1        0.0706
     35 H          -2.0825   -0.3117   -2.1569 H       1  UNL1        0.0706
     36 H          -2.0104    4.2301   -3.2933 H       1  UNL1        0.1482
     37 H          -0.4816    4.1431   -2.3747 H       1  UNL1        0.1482
     38 H           3.1900    3.3516    2.1447 H       1  UNL1        0.1424
     39 H           3.3690    3.2004    0.1861 H       1  UNL1        0.1424
     40 H           5.0509   -0.1190    1.3190 H       1  UNL1        0.0279
     41 H           4.3433    0.3959    2.8876 H       1  UNL1        0.0279
     42 H           4.8877    1.5986    1.6848 H       1  UNL1        0.0279
@<TRIPOS>BOND
     1     1     2    1
     2     3     2    1
     3     3     4    1
     4     4     5    1
     5     5     6    1
     6     6     7    1
     7     7     8    1
     8     8     9    1
     9     9    10    2
    10    10    11    1
    11    11    12    1
    12    12    13    1
    13    13    14    1
    14    14    15   am
    15    14    16    2
    16    10    17    1
    17    17    18    2
    18    17    19    1
    19    19    20    1
    20    19    21    2
    21    21    22    1
    22    21    23    1
    23    23    24    2
    24     8     3    1
    25    23     9    1
    26    11     3    1
    27     6     4    1
    28     1    25    1
    29     1    26    1
    30     1    27    1
    31     4    28    1
    32     5    29    1
    33     6    30    1
    34     7    31    1
    35     7    32    1
    36    11    33    1
    37    12    34    1
    38    12    35    1
    39    15    36    1
    40    15    37    1
    41    20    38    1
    42    20    39    1
    43    22    40    1
    44    22    41    1
    45    22    42    1
