@<TRIPOS>MOLECULE
*****
 56 58 0 0 0
SMALL
GASTEIGER

@<TRIPOS>ATOM
      1 C          -1.3118    2.0339   -2.4482 C.3     1  UNL1       -0.0466
      2 C          -1.4768    0.7951   -1.6411 C.3     1  UNL1        0.0418
      3 C          -2.6004    0.9676   -0.6194 C.3     1  UNL1        0.0160
      4 N          -2.9503   -0.3068   -0.1239 N.3     1  UNL1       -0.2986
      5 C          -4.1872   -0.8681   -0.4630 C.3     1  UNL1        0.0129
      6 C          -5.4016   -0.2407    0.1642 C.3     1  UNL1        0.0594
      7 C          -6.7240   -0.8571   -0.2357 C.2     1  UNL1        0.2179
      8 N          -6.7089   -1.9341   -1.1370 N.am    1  UNL1       -0.3288
      9 O          -7.7924   -0.4240    0.2190 O.2     1  UNL1       -0.2754
     10 C          -5.4349    1.1220    0.7372 C.3     1  UNL1       -0.0369
     11 C          -5.3683   -0.0556    1.6876 C.3     1  UNL1       -0.0369
     12 C          -1.8679   -1.2238    0.0548 C.3     1  UNL1        0.0134
     13 C          -0.5133   -0.5703    0.0590 C.3     1  UNL1        0.0336
     14 N          -0.2923    0.3147   -1.0323 N.3     1  UNL1       -0.1714
     15 S           0.8216    1.5135   -0.5751 S.O2    1  UNL1        0.0612
     16 O           1.0866    2.5326   -1.6471 O.2     1  UNL1       -0.1528
     17 O           0.3494    2.2155    0.6868 O.2     1  UNL1       -0.1528
     18 C           2.3615    0.7721   -0.1565 C.ar    1  UNL1        0.1055
     19 C           3.3379    0.5601   -1.1062 C.ar    1  UNL1       -0.0350
     20 C           4.5385   -0.0188   -0.7781 C.ar    1  UNL1       -0.0537
     21 C           4.8491   -0.4295    0.5340 C.ar    1  UNL1       -0.0077
     22 C           6.1674   -1.0440    0.8025 C.3     1  UNL1        0.1828
     23 C           7.1506    0.0740    1.1977 C.3     1  UNL1       -0.0233
     24 O           6.6710   -1.5339   -0.4098 O.3     1  UNL1       -0.3758
     25 C           6.2206   -2.0528    1.8826 C.3     1  UNL1        0.4221
     26 F           5.8629   -1.5383    3.1026 F       1  UNL1       -0.1673
     27 F           5.3960   -3.1563    1.6052 F       1  UNL1       -0.1673
     28 F           7.5277   -2.5490    1.9292 F       1  UNL1       -0.1673
     29 C           3.8749   -0.2159    1.4722 C.ar    1  UNL1       -0.0537
     30 C           2.6469    0.3778    1.1285 C.ar    1  UNL1       -0.0350
     31 H          -2.2820    2.2079   -3.0041 H       1  UNL1        0.0246
     32 H          -1.2037    2.9185   -1.7996 H       1  UNL1        0.0246
     33 H          -0.5289    1.9135   -3.2040 H       1  UNL1        0.0246
     34 H          -1.8494   -0.0098   -2.3293 H       1  UNL1        0.0490
     35 H          -2.3374    1.7280    0.1268 H       1  UNL1        0.0442
     36 H          -3.4484    1.3724   -1.2230 H       1  UNL1        0.0442
     37 H          -4.3092   -0.7895   -1.5913 H       1  UNL1        0.0437
     38 H          -4.2649   -1.9664   -0.2727 H       1  UNL1        0.0437
     39 H          -7.0448   -2.8964   -0.9190 H       1  UNL1        0.1449
     40 H          -6.3358   -1.7804   -2.1063 H       1  UNL1        0.1449
     41 H          -6.4070    1.7000    0.7238 H       1  UNL1        0.0276
     42 H          -4.5821    1.7887    0.7705 H       1  UNL1        0.0276
     43 H          -6.2689   -0.2230    2.2814 H       1  UNL1        0.0276
     44 H          -4.4070   -0.3142    2.1494 H       1  UNL1        0.0276
     45 H          -2.0134   -1.7993    0.9811 H       1  UNL1        0.0440
     46 H          -1.8846   -1.9443   -0.7899 H       1  UNL1        0.0440
     47 H           0.3081   -1.3275    0.1025 H       1  UNL1        0.0457
     48 H          -0.4327    0.0104    1.0017 H       1  UNL1        0.0457
     49 H           3.1049    0.8733   -2.1163 H       1  UNL1        0.0637
     50 H           5.3064   -0.1863   -1.5212 H       1  UNL1        0.0622
     51 H           7.6042    0.5400    0.2991 H       1  UNL1        0.0263
     52 H           7.9191   -0.3050    1.8874 H       1  UNL1        0.0263
     53 H           6.5434    0.8753    1.6751 H       1  UNL1        0.0263
     54 H           6.6452   -2.5177   -0.4000 H       1  UNL1        0.2110
     55 H           4.0478   -0.5068    2.5054 H       1  UNL1        0.0622
     56 H           1.8887    0.5387    1.8829 H       1  UNL1        0.0637
@<TRIPOS>BOND
     1     1     2    1
     2     2     3    1
     3     3     4    1
     4     4     5    1
     5     5     6    1
     6     6     7    1
     7     7     8   am
     8     7     9    2
     9     6    10    1
    10    10    11    1
    11     4    12    1
    12    12    13    1
    13    13    14    1
    14    14    15    1
    15    15    16    2
    16    15    17    2
    17    15    18    1
    18    18    19   ar
    19    19    20   ar
    20    20    21   ar
    21    21    22    1
    22    22    23    1
    23    22    24    1
    24    22    25    1
    25    25    26    1
    26    25    27    1
    27    25    28    1
    28    21    29   ar
    29    29    30   ar
    30    14     2    1
    31    30    18   ar
    32    11     6    1
    33     1    31    1
    34     1    32    1
    35     1    33    1
    36     2    34    1
    37     3    35    1
    38     3    36    1
    39     5    37    1
    40     5    38    1
    41     8    39    1
    42     8    40    1
    43    10    41    1
    44    10    42    1
    45    11    43    1
    46    11    44    1
    47    12    45    1
    48    12    46    1
    49    13    47    1
    50    13    48    1
    51    19    49    1
    52    20    50    1
    53    23    51    1
    54    23    52    1
    55    23    53    1
    56    24    54    1
    57    29    55    1
    58    30    56    1
