
     RDKit          3D

 56 58  0  0  0  0  0  0  0  0999 V2000
   -1.3118    2.0339   -2.4482 C   0  0  0  0  0  0  0  0  0  0  0  0
   -1.4768    0.7951   -1.6411 C   0  0  2  0  0  0  0  0  0  0  0  0
   -2.6004    0.9676   -0.6194 C   0  0  0  0  0  0  0  0  0  0  0  0
   -2.9503   -0.3068   -0.1239 N   0  0  0  0  0  0  0  0  0  0  0  0
   -4.1872   -0.8681   -0.4630 C   0  0  0  0  0  0  0  0  0  0  0  0
   -5.4016   -0.2407    0.1642 C   0  0  0  0  0  0  0  0  0  0  0  0
   -6.7240   -0.8571   -0.2357 C   0  0  0  0  0  0  0  0  0  0  0  0
   -6.7089   -1.9341   -1.1370 N   0  0  0  0  0  0  0  0  0  0  0  0
   -7.7924   -0.4240    0.2190 O   0  0  0  0  0  0  0  0  0  0  0  0
   -5.4349    1.1220    0.7372 C   0  0  0  0  0  0  0  0  0  0  0  0
   -5.3683   -0.0556    1.6876 C   0  0  0  0  0  0  0  0  0  0  0  0
   -1.8679   -1.2238    0.0548 C   0  0  0  0  0  0  0  0  0  0  0  0
   -0.5133   -0.5703    0.0590 C   0  0  0  0  0  0  0  0  0  0  0  0
   -0.2923    0.3147   -1.0323 N   0  0  0  0  0  0  0  0  0  0  0  0
    0.8216    1.5135   -0.5751 S   0  0  0  0  0  6  0  0  0  0  0  0
    1.0866    2.5326   -1.6471 O   0  0  0  0  0  0  0  0  0  0  0  0
    0.3494    2.2155    0.6868 O   0  0  0  0  0  0  0  0  0  0  0  0
    2.3615    0.7721   -0.1565 C   0  0  0  0  0  0  0  0  0  0  0  0
    3.3379    0.5601   -1.1062 C   0  0  0  0  0  0  0  0  0  0  0  0
    4.5385   -0.0188   -0.7781 C   0  0  0  0  0  0  0  0  0  0  0  0
    4.8491   -0.4295    0.5340 C   0  0  0  0  0  0  0  0  0  0  0  0
    6.1674   -1.0440    0.8025 C   0  0  0  0  0  0  0  0  0  0  0  0
    7.1506    0.0740    1.1977 C   0  0  0  0  0  0  0  0  0  0  0  0
    6.6710   -1.5339   -0.4098 O   0  0  0  0  0  0  0  0  0  0  0  0
    6.2206   -2.0528    1.8826 C   0  0  0  0  0  0  0  0  0  0  0  0
    5.8629   -1.5383    3.1026 F   0  0  0  0  0  0  0  0  0  0  0  0
    5.3960   -3.1563    1.6052 F   0  0  0  0  0  0  0  0  0  0  0  0
    7.5277   -2.5490    1.9292 F   0  0  0  0  0  0  0  0  0  0  0  0
    3.8749   -0.2159    1.4722 C   0  0  0  0  0  0  0  0  0  0  0  0
    2.6469    0.3778    1.1285 C   0  0  0  0  0  0  0  0  0  0  0  0
   -2.2820    2.2079   -3.0041 H   0  0  0  0  0  0  0  0  0  0  0  0
   -1.2037    2.9185   -1.7996 H   0  0  0  0  0  0  0  0  0  0  0  0
   -0.5289    1.9135   -3.2040 H   0  0  0  0  0  0  0  0  0  0  0  0
   -1.8494   -0.0098   -2.3293 H   0  0  0  0  0  0  0  0  0  0  0  0
   -2.3374    1.7280    0.1268 H   0  0  0  0  0  0  0  0  0  0  0  0
   -3.4484    1.3724   -1.2230 H   0  0  0  0  0  0  0  0  0  0  0  0
   -4.3092   -0.7895   -1.5913 H   0  0  0  0  0  0  0  0  0  0  0  0
   -4.2649   -1.9664   -0.2727 H   0  0  0  0  0  0  0  0  0  0  0  0
   -7.0448   -2.8964   -0.9190 H   0  0  0  0  0  0  0  0  0  0  0  0
   -6.3358   -1.7804   -2.1063 H   0  0  0  0  0  0  0  0  0  0  0  0
   -6.4070    1.7000    0.7238 H   0  0  0  0  0  0  0  0  0  0  0  0
   -4.5821    1.7887    0.7705 H   0  0  0  0  0  0  0  0  0  0  0  0
   -6.2689   -0.2230    2.2814 H   0  0  0  0  0  0  0  0  0  0  0  0
   -4.4070   -0.3142    2.1494 H   0  0  0  0  0  0  0  0  0  0  0  0
   -2.0134   -1.7993    0.9811 H   0  0  0  0  0  0  0  0  0  0  0  0
   -1.8846   -1.9443   -0.7899 H   0  0  0  0  0  0  0  0  0  0  0  0
    0.3081   -1.3275    0.1025 H   0  0  0  0  0  0  0  0  0  0  0  0
   -0.4327    0.0104    1.0017 H   0  0  0  0  0  0  0  0  0  0  0  0
    3.1049    0.8733   -2.1163 H   0  0  0  0  0  0  0  0  0  0  0  0
    5.3064   -0.1863   -1.5212 H   0  0  0  0  0  0  0  0  0  0  0  0
    7.6042    0.5400    0.2991 H   0  0  0  0  0  0  0  0  0  0  0  0
    7.9191   -0.3050    1.8874 H   0  0  0  0  0  0  0  0  0  0  0  0
    6.5434    0.8753    1.6751 H   0  0  0  0  0  0  0  0  0  0  0  0
    6.6452   -2.5177   -0.4000 H   0  0  0  0  0  0  0  0  0  0  0  0
    4.0478   -0.5068    2.5054 H   0  0  0  0  0  0  0  0  0  0  0  0
    1.8887    0.5387    1.8829 H   0  0  0  0  0  0  0  0  0  0  0  0
  1  2  1  0
  2  3  1  0
  3  4  1  0
  4  5  1  0
  5  6  1  0
  6  7  1  0
  7  8  1  0
  7  9  2  0
  6 10  1  0
 10 11  1  0
  4 12  1  0
 12 13  1  0
 13 14  1  0
 14 15  1  0
 15 16  2  0
 15 17  2  0
 15 18  1  0
 18 19  2  0
 19 20  1  0
 20 21  2  0
 21 22  1  0
 22 23  1  0
 22 24  1  0
 22 25  1  0
 25 26  1  0
 25 27  1  0
 25 28  1  0
 21 29  1  0
 29 30  2  0
 14  2  1  0
 30 18  1  0
 11  6  1  0
  1 31  1  0
  1 32  1  0
  1 33  1  0
  2 34  1  6
  3 35  1  0
  3 36  1  0
  5 37  1  0
  5 38  1  0
  8 39  1  0
  8 40  1  0
 10 41  1  0
 10 42  1  0
 11 43  1  0
 11 44  1  0
 12 45  1  0
 12 46  1  0
 13 47  1  0
 13 48  1  0
 19 49  1  0
 20 50  1  0
 23 51  1  0
 23 52  1  0
 23 53  1  0
 24 54  1  0
 29 55  1  0
 30 56  1  0
M  END
$$$$
