
     RDKit          3D

 30 30  0  0  0  0  0  0  0  0999 V2000
    3.4230    1.1512    1.3105 C   0  0  0  0  0  0  0  0  0  0  0  0
    2.3438    0.1977    0.7531 C   0  0  0  0  0  0  0  0  0  0  0  0
    3.0195   -0.8531   -0.0768 C   0  0  0  0  0  0  0  0  0  0  0  0
    2.1009   -1.8492   -0.6598 C   0  0  0  0  0  0  0  0  0  0  0  0
    1.1087   -1.4935   -1.5677 N   0  0  0  0  0  0  0  0  0  0  0  0
    0.1248   -0.6226   -1.2536 N   0  0  0  0  0  0  0  0  0  0  0  0
   -1.0802   -1.0087   -0.5714 C   0  0  0  0  0  0  0  0  0  0  0  0
   -1.1820   -2.2494   -0.2665 O   0  0  0  0  0  0  0  0  0  0  0  0
   -2.1249   -0.0652   -0.2415 C   0  0  0  0  0  0  0  0  0  0  0  0
   -2.0737    1.2684   -0.5365 C   0  0  0  0  0  0  0  0  0  0  0  0
   -3.1159    2.1412   -0.1940 C   0  0  0  0  0  0  0  0  0  0  0  0
   -4.2077    1.6253    0.4540 C   0  0  0  0  0  0  0  0  0  0  0  0
   -5.6171    2.8279    0.9128 Br  0  0  0  0  0  0  0  0  0  0  0  0
   -4.2987    0.2845    0.7704 C   0  0  0  0  0  0  0  0  0  0  0  0
   -3.2519   -0.5409    0.4159 C   0  0  0  0  0  0  0  0  0  0  0  0
    3.9046    1.6896    0.4731 H   0  0  0  0  0  0  0  0  0  0  0  0
    4.1612    0.4891    1.8095 H   0  0  0  0  0  0  0  0  0  0  0  0
    2.9662    1.8268    2.0622 H   0  0  0  0  0  0  0  0  0  0  0  0
    1.6066    0.7635    0.1939 H   0  0  0  0  0  0  0  0  0  0  0  0
    1.9310   -0.3064    1.6500 H   0  0  0  0  0  0  0  0  0  0  0  0
    3.7079   -1.4350    0.6175 H   0  0  0  0  0  0  0  0  0  0  0  0
    3.6899   -0.3662   -0.8267 H   0  0  0  0  0  0  0  0  0  0  0  0
    2.7625   -2.6262   -1.1786 H   0  0  0  0  0  0  0  0  0  0  0  0
    1.6312   -2.3878    0.2413 H   0  0  0  0  0  0  0  0  0  0  0  0
    1.0070   -2.0405   -2.4258 H   0  0  0  0  0  0  0  0  0  0  0  0
    0.1998    0.3792   -1.5275 H   0  0  0  0  0  0  0  0  0  0  0  0
   -1.2153    1.6817   -1.0473 H   0  0  0  0  0  0  0  0  0  0  0  0
   -3.0380    3.1897   -0.4447 H   0  0  0  0  0  0  0  0  0  0  0  0
   -5.1768   -0.0634    1.2780 H   0  0  0  0  0  0  0  0  0  0  0  0
   -3.3066   -1.6076    0.6588 H   0  0  0  0  0  0  0  0  0  0  0  0
  1  2  1  0
  2  3  1  0
  3  4  1  0
  4  5  1  0
  5  6  1  0
  6  7  1  0
  7  8  2  0
  7  9  1  0
  9 10  2  0
 10 11  1  0
 11 12  2  0
 12 13  1  0
 12 14  1  0
 14 15  2  0
 15  9  1  0
  1 16  1  0
  1 17  1  0
  1 18  1  0
  2 19  1  0
  2 20  1  0
  3 21  1  0
  3 22  1  0
  4 23  1  0
  4 24  1  0
  5 25  1  0
  6 26  1  0
 10 27  1  0
 11 28  1  0
 14 29  1  0
 15 30  1  0
M  END
$$$$
