@<TRIPOS>MOLECULE
*****
 30 30 0 0 0
SMALL
GASTEIGER

@<TRIPOS>ATOM
      1 C           3.4230    1.1512    1.3105 C.3     1  UNL1       -0.0652
      2 C           2.3438    0.1977    0.7531 C.3     1  UNL1       -0.0547
      3 C           3.0195   -0.8531   -0.0768 C.3     1  UNL1       -0.0391
      4 C           2.1009   -1.8492   -0.6598 C.3     1  UNL1        0.0137
      5 N           1.1087   -1.4935   -1.5677 N.3     1  UNL1       -0.2404
      6 N           0.1248   -0.6226   -1.2536 N.am    1  UNL1       -0.2469
      7 C          -1.0802   -1.0087   -0.5714 C.2     1  UNL1        0.2576
      8 O          -1.1820   -2.2494   -0.2665 O.2     1  UNL1       -0.2689
      9 C          -2.1249   -0.0652   -0.2415 C.ar    1  UNL1        0.0380
     10 C          -2.0737    1.2684   -0.5365 C.ar    1  UNL1       -0.0485
     11 C          -3.1159    2.1412   -0.1940 C.ar    1  UNL1       -0.0470
     12 C          -4.2077    1.6253    0.4540 C.ar    1  UNL1        0.0179
     13 BR         -5.6171    2.8279    0.9128 Br      1  UNL1       -0.0503
     14 C          -4.2987    0.2845    0.7704 C.ar    1  UNL1       -0.0470
     15 C          -3.2519   -0.5409    0.4159 C.ar    1  UNL1       -0.0485
     16 H           3.9046    1.6896    0.4731 H       1  UNL1        0.0230
     17 H           4.1612    0.4891    1.8095 H       1  UNL1        0.0230
     18 H           2.9662    1.8268    2.0622 H       1  UNL1        0.0230
     19 H           1.6066    0.7635    0.1939 H       1  UNL1        0.0263
     20 H           1.9310   -0.3064    1.6500 H       1  UNL1        0.0263
     21 H           3.7079   -1.4350    0.6175 H       1  UNL1        0.0278
     22 H           3.6899   -0.3662   -0.8267 H       1  UNL1        0.0278
     23 H           2.7625   -2.6262   -1.1786 H       1  UNL1        0.0441
     24 H           1.6312   -2.3878    0.2413 H       1  UNL1        0.0441
     25 H           1.0070   -2.0405   -2.4258 H       1  UNL1        0.1442
     26 H           0.1998    0.3792   -1.5275 H       1  UNL1        0.1693
     27 H          -1.2153    1.6817   -1.0473 H       1  UNL1        0.0625
     28 H          -3.0380    3.1897   -0.4447 H       1  UNL1        0.0629
     29 H          -5.1768   -0.0634    1.2780 H       1  UNL1        0.0629
     30 H          -3.3066   -1.6076    0.6588 H       1  UNL1        0.0625
@<TRIPOS>BOND
     1     1     2    1
     2     2     3    1
     3     3     4    1
     4     4     5    1
     5     5     6    1
     6     6     7   am
     7     7     8    2
     8     7     9    1
     9     9    10   ar
    10    10    11   ar
    11    11    12   ar
    12    12    13    1
    13    12    14   ar
    14    14    15   ar
    15    15     9   ar
    16     1    16    1
    17     1    17    1
    18     1    18    1
    19     2    19    1
    20     2    20    1
    21     3    21    1
    22     3    22    1
    23     4    23    1
    24     4    24    1
    25     5    25    1
    26     6    26    1
    27    10    27    1
    28    11    28    1
    29    14    29    1
    30    15    30    1
