@<TRIPOS>MOLECULE
*****
 54 58 0 0 0
SMALL
GASTEIGER

@<TRIPOS>ATOM
      1 C           4.7333    0.0092    1.2836 C.3     1  UNL1       -0.0377
      2 C           4.4457   -1.1159    0.3603 C.ar    1  UNL1       -0.0249
      3 C           5.2661   -2.2247    0.4014 C.ar    1  UNL1       -0.0568
      4 C           5.0510   -3.3074   -0.4339 C.ar    1  UNL1       -0.0614
      5 C           3.9939   -3.2703   -1.3224 C.ar    1  UNL1       -0.0597
      6 C           3.1636   -2.1606   -1.3714 C.ar    1  UNL1       -0.0359
      7 C           3.3978   -1.0991   -0.5324 C.ar    1  UNL1        0.0721
      8 N           2.5299    0.0480   -0.5915 N.ar    1  UNL1       -0.1960
      9 N           1.2562   -0.0528   -0.3000 N.ar    1  UNL1       -0.1631
     10 C           0.3814    0.9961   -0.3370 C.ar    1  UNL1        0.0974
     11 C          -1.0066    0.8062    0.0015 C.ar    1  UNL1        0.0690
     12 C          -2.0592    1.6736    0.0400 C.ar    1  UNL1        0.1038
     13 C          -2.0722    3.0954   -0.2727 C.ar    1  UNL1        0.0030
     14 C          -2.3114    3.5170   -1.5531 C.ar    1  UNL1       -0.0498
     15 C          -2.3375    4.8870   -1.8040 C.ar    1  UNL1       -0.0258
     16 C          -2.1271    5.7996   -0.7856 C.ar    1  UNL1        0.1234
     17 F          -2.1541    7.1438   -1.0389 F       1  UNL1       -0.2055
     18 C          -1.8877    5.3503    0.4979 C.ar    1  UNL1       -0.0258
     19 C          -1.8632    3.9999    0.7388 C.ar    1  UNL1       -0.0498
     20 N          -3.1881    1.0208    0.4239 N.ar    1  UNL1       -0.1689
     21 N          -2.8594   -0.2261    0.6230 N.ar    1  UNL1       -0.2492
     22 C          -1.5578   -0.4270    0.3865 C.ar    1  UNL1        0.1269
     23 N          -1.0057   -1.7059    0.5395 N.pl3   1  UNL1       -0.3283
     24 C          -1.8029   -2.9220    0.3412 C.3     1  UNL1        0.0170
     25 C          -3.2665   -2.5481    0.1691 C.3     1  UNL1        0.0173
     26 C          -4.1709   -3.7132    0.5205 C.3     1  UNL1        0.0501
     27 O          -3.9195   -4.8179   -0.2911 O.3     1  UNL1       -0.3946
     28 C          -3.6474   -1.3921    1.0504 C.3     1  UNL1        0.0499
     29 C           0.9285    2.1884   -0.7057 C.ar    1  UNL1       -0.0287
     30 C           2.2860    2.3303   -1.0237 C.ar    1  UNL1        0.0068
     31 C           3.0762    1.2160   -0.9550 C.ar    1  UNL1        0.2719
     32 O           4.3312    1.2839   -1.2356 O.2     1  UNL1       -0.2658
     33 H           4.9360   -0.4580    2.2920 H       1  UNL1        0.0278
     34 H           3.9002    0.6990    1.4171 H       1  UNL1        0.0278
     35 H           5.7001    0.5156    1.0232 H       1  UNL1        0.0278
     36 H           6.1161   -2.2953    1.0913 H       1  UNL1        0.0621
     37 H           5.6952   -4.1819   -0.4040 H       1  UNL1        0.0618
     38 H           3.8270   -4.1299   -1.9822 H       1  UNL1        0.0618
     39 H           2.3424   -2.1811   -2.0912 H       1  UNL1        0.0639
     40 H          -2.4808    2.8659   -2.3794 H       1  UNL1        0.0625
     41 H          -2.5250    5.2442   -2.8095 H       1  UNL1        0.0646
     42 H          -1.7246    6.0986    1.2834 H       1  UNL1        0.0646
     43 H          -1.6763    3.6548    1.7403 H       1  UNL1        0.0625
     44 H          -0.0128   -1.8366    0.7984 H       1  UNL1        0.1475
     45 H          -1.6326   -3.6582    1.1421 H       1  UNL1        0.0466
     46 H          -1.4633   -3.3620   -0.6143 H       1  UNL1        0.0466
     47 H          -3.4678   -2.2846   -0.8975 H       1  UNL1        0.0356
     48 H          -5.2135   -3.3626    0.3040 H       1  UNL1        0.0561
     49 H          -4.1277   -3.9512    1.5886 H       1  UNL1        0.0561
     50 H          -4.7652   -5.2069   -0.5892 H       1  UNL1        0.2094
     51 H          -3.3507   -1.6783    2.0973 H       1  UNL1        0.0513
     52 H          -4.7221   -1.2243    0.9516 H       1  UNL1        0.0513
     53 H           0.3330    3.0687   -0.7637 H       1  UNL1        0.0641
     54 H           2.7086    3.2817   -1.3151 H       1  UNL1        0.0673
@<TRIPOS>BOND
     1     1     2    1
     2     2     3   ar
     3     3     4   ar
     4     4     5   ar
     5     5     6   ar
     6     6     7   ar
     7     7     8    1
     8     8     9   ar
     9     9    10   ar
    10    10    11    1
    11    11    12   ar
    12    12    13    1
    13    13    14   ar
    14    14    15   ar
    15    15    16   ar
    16    16    17    1
    17    16    18   ar
    18    18    19   ar
    19    12    20   ar
    20    20    21   ar
    21    21    22   ar
    22    22    23    1
    23    23    24    1
    24    24    25    1
    25    25    26    1
    26    26    27    1
    27    25    28    1
    28    10    29   ar
    29    29    30   ar
    30    30    31   ar
    31    31    32    2
    32     7     2   ar
    33    31     8   ar
    34    22    11   ar
    35    19    13   ar
    36    28    21    1
    37     1    33    1
    38     1    34    1
    39     1    35    1
    40     3    36    1
    41     4    37    1
    42     5    38    1
    43     6    39    1
    44    14    40    1
    45    15    41    1
    46    18    42    1
    47    19    43    1
    48    23    44    1
    49    24    45    1
    50    24    46    1
    51    25    47    1
    52    26    48    1
    53    26    49    1
    54    27    50    1
    55    28    51    1
    56    28    52    1
    57    29    53    1
    58    30    54    1
