
     RDKit          3D

 54 58  0  0  0  0  0  0  0  0999 V2000
    4.7333    0.0092    1.2836 C   0  0  0  0  0  0  0  0  0  0  0  0
    4.4457   -1.1159    0.3603 C   0  0  0  0  0  0  0  0  0  0  0  0
    5.2661   -2.2247    0.4014 C   0  0  0  0  0  0  0  0  0  0  0  0
    5.0510   -3.3074   -0.4339 C   0  0  0  0  0  0  0  0  0  0  0  0
    3.9939   -3.2703   -1.3224 C   0  0  0  0  0  0  0  0  0  0  0  0
    3.1636   -2.1606   -1.3714 C   0  0  0  0  0  0  0  0  0  0  0  0
    3.3978   -1.0991   -0.5324 C   0  0  0  0  0  0  0  0  0  0  0  0
    2.5299    0.0480   -0.5915 N   0  0  0  0  0  0  0  0  0  0  0  0
    1.2562   -0.0528   -0.3000 N   0  0  0  0  0  0  0  0  0  0  0  0
    0.3814    0.9961   -0.3370 C   0  0  0  0  0  0  0  0  0  0  0  0
   -1.0066    0.8062    0.0015 C   0  0  0  0  0  0  0  0  0  0  0  0
   -2.0592    1.6736    0.0400 C   0  0  0  0  0  0  0  0  0  0  0  0
   -2.0722    3.0954   -0.2727 C   0  0  0  0  0  0  0  0  0  0  0  0
   -2.3114    3.5170   -1.5531 C   0  0  0  0  0  0  0  0  0  0  0  0
   -2.3375    4.8870   -1.8040 C   0  0  0  0  0  0  0  0  0  0  0  0
   -2.1271    5.7996   -0.7856 C   0  0  0  0  0  0  0  0  0  0  0  0
   -2.1541    7.1438   -1.0389 F   0  0  0  0  0  0  0  0  0  0  0  0
   -1.8877    5.3503    0.4979 C   0  0  0  0  0  0  0  0  0  0  0  0
   -1.8632    3.9999    0.7388 C   0  0  0  0  0  0  0  0  0  0  0  0
   -3.1881    1.0208    0.4239 N   0  0  0  0  0  0  0  0  0  0  0  0
   -2.8594   -0.2261    0.6230 N   0  0  0  0  0  0  0  0  0  0  0  0
   -1.5578   -0.4270    0.3865 C   0  0  0  0  0  0  0  0  0  0  0  0
   -1.0057   -1.7059    0.5395 N   0  0  0  0  0  0  0  0  0  0  0  0
   -1.8029   -2.9220    0.3412 C   0  0  0  0  0  0  0  0  0  0  0  0
   -3.2665   -2.5481    0.1691 C   0  0  1  0  0  0  0  0  0  0  0  0
   -4.1709   -3.7132    0.5205 C   0  0  0  0  0  0  0  0  0  0  0  0
   -3.9195   -4.8179   -0.2911 O   0  0  0  0  0  0  0  0  0  0  0  0
   -3.6474   -1.3921    1.0504 C   0  0  0  0  0  0  0  0  0  0  0  0
    0.9285    2.1884   -0.7057 C   0  0  0  0  0  0  0  0  0  0  0  0
    2.2860    2.3303   -1.0237 C   0  0  0  0  0  0  0  0  0  0  0  0
    3.0762    1.2160   -0.9550 C   0  0  0  0  0  0  0  0  0  0  0  0
    4.3312    1.2839   -1.2356 O   0  0  0  0  0  0  0  0  0  0  0  0
    4.9360   -0.4580    2.2920 H   0  0  0  0  0  0  0  0  0  0  0  0
    3.9002    0.6990    1.4171 H   0  0  0  0  0  0  0  0  0  0  0  0
    5.7001    0.5156    1.0232 H   0  0  0  0  0  0  0  0  0  0  0  0
    6.1161   -2.2953    1.0913 H   0  0  0  0  0  0  0  0  0  0  0  0
    5.6952   -4.1819   -0.4040 H   0  0  0  0  0  0  0  0  0  0  0  0
    3.8270   -4.1299   -1.9822 H   0  0  0  0  0  0  0  0  0  0  0  0
    2.3424   -2.1811   -2.0912 H   0  0  0  0  0  0  0  0  0  0  0  0
   -2.4808    2.8659   -2.3794 H   0  0  0  0  0  0  0  0  0  0  0  0
   -2.5250    5.2442   -2.8095 H   0  0  0  0  0  0  0  0  0  0  0  0
   -1.7246    6.0986    1.2834 H   0  0  0  0  0  0  0  0  0  0  0  0
   -1.6763    3.6548    1.7403 H   0  0  0  0  0  0  0  0  0  0  0  0
   -0.0128   -1.8366    0.7984 H   0  0  0  0  0  0  0  0  0  0  0  0
   -1.6326   -3.6582    1.1421 H   0  0  0  0  0  0  0  0  0  0  0  0
   -1.4633   -3.3620   -0.6143 H   0  0  0  0  0  0  0  0  0  0  0  0
   -3.4678   -2.2846   -0.8975 H   0  0  0  0  0  0  0  0  0  0  0  0
   -5.2135   -3.3626    0.3040 H   0  0  0  0  0  0  0  0  0  0  0  0
   -4.1277   -3.9512    1.5886 H   0  0  0  0  0  0  0  0  0  0  0  0
   -4.7652   -5.2069   -0.5892 H   0  0  0  0  0  0  0  0  0  0  0  0
   -3.3507   -1.6783    2.0973 H   0  0  0  0  0  0  0  0  0  0  0  0
   -4.7221   -1.2243    0.9516 H   0  0  0  0  0  0  0  0  0  0  0  0
    0.3330    3.0687   -0.7637 H   0  0  0  0  0  0  0  0  0  0  0  0
    2.7086    3.2817   -1.3151 H   0  0  0  0  0  0  0  0  0  0  0  0
  1  2  1  0
  2  3  2  0
  3  4  1  0
  4  5  2  0
  5  6  1  0
  6  7  2  0
  7  8  1  0
  8  9  1  0
  9 10  2  0
 10 11  1  0
 11 12  1  0
 12 13  1  0
 13 14  2  0
 14 15  1  0
 15 16  2  0
 16 17  1  0
 16 18  1  0
 18 19  2  0
 12 20  2  0
 20 21  1  0
 21 22  1  0
 22 23  1  0
 23 24  1  0
 24 25  1  0
 25 26  1  0
 26 27  1  0
 25 28  1  0
 10 29  1  0
 29 30  2  0
 30 31  1  0
 31 32  2  0
  7  2  1  0
 31  8  1  0
 22 11  2  0
 19 13  1  0
 28 21  1  0
  1 33  1  0
  1 34  1  0
  1 35  1  0
  3 36  1  0
  4 37  1  0
  5 38  1  0
  6 39  1  0
 14 40  1  0
 15 41  1  0
 18 42  1  0
 19 43  1  0
 23 44  1  0
 24 45  1  0
 24 46  1  0
 25 47  1  6
 26 48  1  0
 26 49  1  0
 27 50  1  0
 28 51  1  0
 28 52  1  0
 29 53  1  0
 30 54  1  0
M  END
$$$$
