@<TRIPOS>MOLECULE
*****
 68 72 0 0 0
SMALL
GASTEIGER

@<TRIPOS>ATOM
      1 C           9.4967    1.3709    1.6371 C.3     1  UNL1        0.0365
      2 O           9.6588    1.2921    0.2876 O.3     1  UNL1       -0.3817
      3 C           8.5959    0.6984   -0.3438 C.3     1  UNL1        0.0600
      4 C           7.3145    1.4702   -0.1388 C.3     1  UNL1        0.0223
      5 N           6.2408    0.7924   -0.8347 N.3     1  UNL1       -0.3001
      6 C           5.8465   -0.4531   -0.3146 C.3     1  UNL1       -0.0005
      7 C           4.3843   -0.7903   -0.4184 C.3     1  UNL1       -0.0333
      8 C           3.6083    0.4662   -0.0932 C.3     1  UNL1       -0.0135
      9 C           2.1508    0.2281   -0.0209 C.ar    1  UNL1       -0.0419
     10 C           1.4719    0.6040    1.1355 C.ar    1  UNL1       -0.0532
     11 C           0.1204    0.4152    1.2742 C.ar    1  UNL1       -0.0227
     12 C          -0.5731    0.8184    2.4990 C.3     1  UNL1       -0.0376
     13 C          -0.5847   -0.1705    0.2223 C.ar    1  UNL1        0.0924
     14 N          -1.8630   -0.4903    0.0271 N.ar    1  UNL1       -0.2272
     15 C          -2.1155   -1.0504   -1.1587 C.ar    1  UNL1        0.1463
     16 C          -3.3727   -1.5237   -1.7224 C.ar    1  UNL1        0.1022
     17 C          -4.5644   -1.4467   -1.0412 C.ar    1  UNL1        0.0446
     18 N          -4.6132   -0.9485    0.2732 N.pl3   1  UNL1       -0.3414
     19 C          -5.9083   -0.8382    0.9586 C.3     1  UNL1        0.0287
     20 C          -6.7244    0.3208    0.4840 C.3     1  UNL1        0.0570
     21 N          -7.9767    0.3085    1.2065 N.ar    1  UNL1       -0.2685
     22 C          -8.1709    0.9444    2.3706 C.ar    1  UNL1        0.0439
     23 C          -9.4694    0.7332    2.7928 C.ar    1  UNL1        0.0783
     24 CL        -10.1882    1.3767    4.2784 Cl      1  UNL1       -0.0804
     25 C         -10.0554   -0.0570    1.8376 C.ar    1  UNL1        0.0677
     26 N          -9.1159   -0.2854    0.9036 N.ar    1  UNL1       -0.1781
     27 C          -5.7523   -1.9036   -1.6272 C.ar    1  UNL1       -0.0239
     28 C          -5.7103   -2.4304   -2.8967 C.ar    1  UNL1        0.0067
     29 N          -4.5680   -2.5144   -3.5728 N.ar    1  UNL1       -0.3284
     30 C          -3.4190   -2.0661   -2.9887 C.ar    1  UNL1        0.2612
     31 O          -2.3796   -2.1704   -3.6702 O.2     1  UNL1       -0.2671
     32 N          -0.8963   -1.0871   -1.7611 N.ar    1  UNL1       -0.3377
     33 C           0.0536   -0.5532   -0.9326 C.ar    1  UNL1        0.0670
     34 C           1.4092   -0.3455   -1.0295 C.ar    1  UNL1       -0.0328
     35 C           3.8780    1.4394   -1.2195 C.3     1  UNL1       -0.0333
     36 C           5.3249    1.5978   -1.5231 C.3     1  UNL1       -0.0005
     37 H           9.3518    0.3775    2.1200 H       1  UNL1        0.0523
     38 H           8.7001    2.0373    1.9792 H       1  UNL1        0.0523
     39 H          10.4702    1.7744    2.0582 H       1  UNL1        0.0523
     40 H           8.3983   -0.3341    0.0359 H       1  UNL1        0.0572
     41 H           8.8662    0.6606   -1.4398 H       1  UNL1        0.0572
     42 H           7.0886    1.5820    0.9423 H       1  UNL1        0.0449
     43 H           7.4398    2.4611   -0.5908 H       1  UNL1        0.0449
     44 H           6.1239   -0.5340    0.7777 H       1  UNL1        0.0427
     45 H           6.3882   -1.3087   -0.8183 H       1  UNL1        0.0427
     46 H           4.1014   -1.2151   -1.3892 H       1  UNL1        0.0283
     47 H           4.1645   -1.5817    0.3528 H       1  UNL1        0.0283
     48 H           3.9719    0.9034    0.8371 H       1  UNL1        0.0350
     49 H           2.0568    1.0592    1.9375 H       1  UNL1        0.0624
     50 H          -1.0172    1.8485    2.4034 H       1  UNL1        0.0278
     51 H          -1.4421    0.1459    2.7199 H       1  UNL1        0.0278
     52 H           0.0714    0.7690    3.4119 H       1  UNL1        0.0278
     53 H          -3.7820   -0.6385    0.8403 H       1  UNL1        0.1461
     54 H          -5.7140   -0.7542    2.0790 H       1  UNL1        0.0479
     55 H          -6.4492   -1.7906    0.8407 H       1  UNL1        0.0479
     56 H          -6.1803    1.2857    0.7264 H       1  UNL1        0.0524
     57 H          -6.8265    0.3196   -0.6002 H       1  UNL1        0.0524
     58 H          -7.4428    1.5470    2.9310 H       1  UNL1        0.0841
     59 H         -11.0870   -0.4031    1.8782 H       1  UNL1        0.0863
     60 H          -6.6781   -1.8585   -1.0846 H       1  UNL1        0.0651
     61 H          -6.6669   -2.7727   -3.3098 H       1  UNL1        0.0808
     62 H          -4.5321   -2.9182   -4.5466 H       1  UNL1        0.1683
     63 H          -0.6200   -1.4340   -2.6793 H       1  UNL1        0.1674
     64 H           1.9203   -0.6428   -1.9346 H       1  UNL1        0.0642
     65 H           3.3477    2.4150   -1.0162 H       1  UNL1        0.0283
     66 H           3.3705    1.0334   -2.1226 H       1  UNL1        0.0283
     67 H           5.5736    2.6800   -1.2985 H       1  UNL1        0.0427
     68 H           5.5002    1.5351   -2.6401 H       1  UNL1        0.0427
@<TRIPOS>BOND
     1     1     2    1
     2     2     3    1
     3     3     4    1
     4     4     5    1
     5     5     6    1
     6     6     7    1
     7     7     8    1
     8     8     9    1
     9     9    10   ar
    10    10    11   ar
    11    11    12    1
    12    11    13   ar
    13    13    14   ar
    14    14    15   ar
    15    15    16    1
    16    16    17   ar
    17    17    18    1
    18    18    19    1
    19    19    20    1
    20    20    21    1
    21    21    22   ar
    22    22    23   ar
    23    23    24    1
    24    23    25   ar
    25    25    26   ar
    26    17    27   ar
    27    27    28   ar
    28    28    29   ar
    29    29    30   ar
    30    30    31    2
    31    15    32   ar
    32    32    33   ar
    33    33    34   ar
    34     8    35    1
    35    35    36    1
    36    36     5    1
    37    34     9   ar
    38    33    13   ar
    39    30    16   ar
    40    26    21   ar
    41     1    37    1
    42     1    38    1
    43     1    39    1
    44     3    40    1
    45     3    41    1
    46     4    42    1
    47     4    43    1
    48     6    44    1
    49     6    45    1
    50     7    46    1
    51     7    47    1
    52     8    48    1
    53    10    49    1
    54    12    50    1
    55    12    51    1
    56    12    52    1
    57    18    53    1
    58    19    54    1
    59    19    55    1
    60    20    56    1
    61    20    57    1
    62    22    58    1
    63    25    59    1
    64    27    60    1
    65    28    61    1
    66    29    62    1
    67    32    63    1
    68    34    64    1
    69    35    65    1
    70    35    66    1
    71    36    67    1
    72    36    68    1
