@<TRIPOS>MOLECULE
*****
 49 53 0 0 0
SMALL
GASTEIGER

@<TRIPOS>ATOM
      1 C           6.9495    2.1443    0.7311 C.3     1  UNL1       -0.0222
      2 C           6.2849    0.9009    0.3118 C.ar    1  UNL1        0.0421
      3 C           6.9657   -0.2151   -0.1332 C.ar    1  UNL1       -0.0224
      4 C           6.2538   -1.3362   -0.5052 C.ar    1  UNL1        0.0331
      5 N           4.9092   -1.3691   -0.4450 N.ar    1  UNL1       -0.2211
      6 N           3.9757   -2.2604   -0.7210 N.ar    1  UNL1       -0.1683
      7 C           2.7590   -1.7860   -0.4820 C.ar    1  UNL1        0.0839
      8 C           2.9253   -0.5012   -0.0208 C.ar    1  UNL1        0.0349
      9 C           4.2823   -0.2704   -0.0092 C.ar    1  UNL1        0.1603
     10 N           4.9421    0.8434    0.3629 N.ar    1  UNL1       -0.2326
     11 C           1.5799    0.0501    0.2530 C.3     1  UNL1        0.0301
     12 N           0.6301   -0.8284   -0.3609 N.3     1  UNL1       -0.2871
     13 C          -0.5077   -0.9662    0.5579 C.3     1  UNL1        0.0360
     14 C          -1.5376   -1.8606    0.0135 C.3     1  UNL1        0.0641
     15 O          -2.7522   -1.3444   -0.2943 O.3     1  UNL1       -0.3688
     16 C          -3.1771   -0.2667    0.4143 C.3     1  UNL1        0.1015
     17 C          -4.5346    0.1226    0.0183 C.ar    1  UNL1        0.0207
     18 C          -5.0014   -0.1122   -1.2556 C.ar    1  UNL1       -0.0152
     19 C          -6.2850    0.2506   -1.6463 C.ar    1  UNL1        0.1589
     20 F          -6.7525    0.0235   -2.8975 F       1  UNL1       -0.2025
     21 C          -7.1261    0.8699   -0.7243 C.ar    1  UNL1        0.1611
     22 F          -8.3908    1.2356   -1.0837 F       1  UNL1       -0.2024
     23 C          -6.6757    1.1131    0.5564 C.ar    1  UNL1        0.0120
     24 C          -5.3954    0.7392    0.9090 C.ar    1  UNL1        0.1320
     25 F          -4.9822    0.9919    2.1752 F       1  UNL1       -0.2050
     26 C          -2.1580    0.8529    0.1578 C.3     1  UNL1        0.0371
     27 N          -2.6388    2.1253    0.5776 N.3     1  UNL1       -0.3248
     28 C          -0.9354    0.4047    0.9438 C.3     1  UNL1       -0.0172
     29 C           1.2917   -2.1104   -0.5219 C.3     1  UNL1        0.0440
     30 H           6.9771    2.2700    1.8423 H       1  UNL1        0.0293
     31 H           6.3852    3.0148    0.3360 H       1  UNL1        0.0293
     32 H           7.9847    2.1901    0.3210 H       1  UNL1        0.0293
     33 H           8.0453   -0.1639   -0.1724 H       1  UNL1        0.0650
     34 H           6.7630   -2.2230   -0.8570 H       1  UNL1        0.0831
     35 H           1.4807    0.0868    1.3679 H       1  UNL1        0.0478
     36 H           1.5484    1.0689   -0.2026 H       1  UNL1        0.0478
     37 H          -0.0564   -1.4403    1.4804 H       1  UNL1        0.0486
     38 H          -1.1312   -2.3363   -0.9298 H       1  UNL1        0.0576
     39 H          -1.7102   -2.7505    0.6906 H       1  UNL1        0.0576
     40 H          -3.1609   -0.5018    1.5150 H       1  UNL1        0.0663
     41 H          -4.3742   -0.5832   -1.9716 H       1  UNL1        0.0651
     42 H          -7.3560    1.5976    1.2514 H       1  UNL1        0.0676
     43 H          -1.8850    0.7969   -0.9147 H       1  UNL1        0.0488
     44 H          -3.1512    2.5650   -0.2227 H       1  UNL1        0.1186
     45 H          -1.9168    2.7606    0.9530 H       1  UNL1        0.1186
     46 H          -1.2752    0.3830    2.0211 H       1  UNL1        0.0297
     47 H          -0.1711    1.1783    0.8855 H       1  UNL1        0.0297
     48 H           1.0124   -2.8028    0.2970 H       1  UNL1        0.0492
     49 H           1.0929   -2.5508   -1.5263 H       1  UNL1        0.0492
@<TRIPOS>BOND
     1     1     2    1
     2     2     3   ar
     3     3     4   ar
     4     4     5   ar
     5     5     6   ar
     6     6     7   ar
     7     7     8   ar
     8     8     9   ar
     9     9    10   ar
    10     8    11    1
    11    11    12    1
    12    12    13    1
    13    13    14    1
    14    14    15    1
    15    15    16    1
    16    16    17    1
    17    17    18   ar
    18    18    19   ar
    19    19    20    1
    20    19    21   ar
    21    21    22    1
    22    21    23   ar
    23    23    24   ar
    24    24    25    1
    25    16    26    1
    26    26    27    1
    27    26    28    1
    28    12    29    1
    29    10     2   ar
    30    28    13    1
    31     9     5   ar
    32    24    17   ar
    33    29     7    1
    34     1    30    1
    35     1    31    1
    36     1    32    1
    37     3    33    1
    38     4    34    1
    39    11    35    1
    40    11    36    1
    41    13    37    1
    42    14    38    1
    43    14    39    1
    44    16    40    1
    45    18    41    1
    46    23    42    1
    47    26    43    1
    48    27    44    1
    49    27    45    1
    50    28    46    1
    51    28    47    1
    52    29    48    1
    53    29    49    1
