
     RDKit          3D

 49 53  0  0  0  0  0  0  0  0999 V2000
    6.9495    2.1443    0.7311 C   0  0  0  0  0  0  0  0  0  0  0  0
    6.2849    0.9009    0.3118 C   0  0  0  0  0  0  0  0  0  0  0  0
    6.9657   -0.2151   -0.1332 C   0  0  0  0  0  0  0  0  0  0  0  0
    6.2538   -1.3362   -0.5052 C   0  0  0  0  0  0  0  0  0  0  0  0
    4.9092   -1.3691   -0.4450 N   0  0  0  0  0  0  0  0  0  0  0  0
    3.9757   -2.2604   -0.7210 N   0  0  0  0  0  0  0  0  0  0  0  0
    2.7590   -1.7860   -0.4820 C   0  0  0  0  0  0  0  0  0  0  0  0
    2.9253   -0.5012   -0.0208 C   0  0  0  0  0  0  0  0  0  0  0  0
    4.2823   -0.2704   -0.0092 C   0  0  0  0  0  0  0  0  0  0  0  0
    4.9421    0.8434    0.3629 N   0  0  0  0  0  0  0  0  0  0  0  0
    1.5799    0.0501    0.2530 C   0  0  0  0  0  0  0  0  0  0  0  0
    0.6301   -0.8284   -0.3609 N   0  0  0  0  0  0  0  0  0  0  0  0
   -0.5077   -0.9662    0.5579 C   0  0  2  0  0  0  0  0  0  0  0  0
   -1.5376   -1.8606    0.0135 C   0  0  0  0  0  0  0  0  0  0  0  0
   -2.7522   -1.3444   -0.2943 O   0  0  0  0  0  0  0  0  0  0  0  0
   -3.1771   -0.2667    0.4143 C   0  0  2  0  0  0  0  0  0  0  0  0
   -4.5346    0.1226    0.0183 C   0  0  0  0  0  0  0  0  0  0  0  0
   -5.0014   -0.1122   -1.2556 C   0  0  0  0  0  0  0  0  0  0  0  0
   -6.2850    0.2506   -1.6463 C   0  0  0  0  0  0  0  0  0  0  0  0
   -6.7525    0.0235   -2.8975 F   0  0  0  0  0  0  0  0  0  0  0  0
   -7.1261    0.8699   -0.7243 C   0  0  0  0  0  0  0  0  0  0  0  0
   -8.3908    1.2356   -1.0837 F   0  0  0  0  0  0  0  0  0  0  0  0
   -6.6757    1.1131    0.5564 C   0  0  0  0  0  0  0  0  0  0  0  0
   -5.3954    0.7392    0.9090 C   0  0  0  0  0  0  0  0  0  0  0  0
   -4.9822    0.9919    2.1752 F   0  0  0  0  0  0  0  0  0  0  0  0
   -2.1580    0.8529    0.1578 C   0  0  1  0  0  0  0  0  0  0  0  0
   -2.6388    2.1253    0.5776 N   0  0  0  0  0  0  0  0  0  0  0  0
   -0.9354    0.4047    0.9438 C   0  0  0  0  0  0  0  0  0  0  0  0
    1.2917   -2.1104   -0.5219 C   0  0  0  0  0  0  0  0  0  0  0  0
    6.9771    2.2700    1.8423 H   0  0  0  0  0  0  0  0  0  0  0  0
    6.3852    3.0148    0.3360 H   0  0  0  0  0  0  0  0  0  0  0  0
    7.9847    2.1901    0.3210 H   0  0  0  0  0  0  0  0  0  0  0  0
    8.0453   -0.1639   -0.1724 H   0  0  0  0  0  0  0  0  0  0  0  0
    6.7630   -2.2230   -0.8570 H   0  0  0  0  0  0  0  0  0  0  0  0
    1.4807    0.0868    1.3679 H   0  0  0  0  0  0  0  0  0  0  0  0
    1.5484    1.0689   -0.2026 H   0  0  0  0  0  0  0  0  0  0  0  0
   -0.0564   -1.4403    1.4804 H   0  0  0  0  0  0  0  0  0  0  0  0
   -1.1312   -2.3363   -0.9298 H   0  0  0  0  0  0  0  0  0  0  0  0
   -1.7102   -2.7505    0.6906 H   0  0  0  0  0  0  0  0  0  0  0  0
   -3.1609   -0.5018    1.5150 H   0  0  0  0  0  0  0  0  0  0  0  0
   -4.3742   -0.5832   -1.9716 H   0  0  0  0  0  0  0  0  0  0  0  0
   -7.3560    1.5976    1.2514 H   0  0  0  0  0  0  0  0  0  0  0  0
   -1.8850    0.7969   -0.9147 H   0  0  0  0  0  0  0  0  0  0  0  0
   -3.1512    2.5650   -0.2227 H   0  0  0  0  0  0  0  0  0  0  0  0
   -1.9168    2.7606    0.9530 H   0  0  0  0  0  0  0  0  0  0  0  0
   -1.2752    0.3830    2.0211 H   0  0  0  0  0  0  0  0  0  0  0  0
   -0.1711    1.1783    0.8855 H   0  0  0  0  0  0  0  0  0  0  0  0
    1.0124   -2.8028    0.2970 H   0  0  0  0  0  0  0  0  0  0  0  0
    1.0929   -2.5508   -1.5263 H   0  0  0  0  0  0  0  0  0  0  0  0
  1  2  1  0
  2  3  1  0
  3  4  2  0
  4  5  1  0
  5  6  1  0
  6  7  2  0
  7  8  1  0
  8  9  2  0
  9 10  1  0
  8 11  1  0
 11 12  1  0
 12 13  1  0
 13 14  1  0
 14 15  1  0
 15 16  1  0
 16 17  1  0
 17 18  2  0
 18 19  1  0
 19 20  1  0
 19 21  2  0
 21 22  1  0
 21 23  1  0
 23 24  2  0
 24 25  1  0
 16 26  1  0
 26 27  1  0
 26 28  1  0
 12 29  1  0
 10  2  2  0
 28 13  1  0
  9  5  1  0
 24 17  1  0
 29  7  1  0
  1 30  1  0
  1 31  1  0
  1 32  1  0
  3 33  1  0
  4 34  1  0
 11 35  1  0
 11 36  1  0
 13 37  1  1
 14 38  1  0
 14 39  1  0
 16 40  1  1
 18 41  1  0
 23 42  1  0
 26 43  1  6
 27 44  1  0
 27 45  1  0
 28 46  1  0
 28 47  1  0
 29 48  1  0
 29 49  1  0
M  END
$$$$
