
     RDKit          3D

117118  0  0  0  0  0  0  0  0999 V2000
   -3.9376    4.9024   -0.6968 C   0  0  0  0  0  0  0  0  0  0  0  0
   -3.2009    4.1737    0.3682 C   0  0  0  0  0  0  0  0  0  0  0  0
   -4.1691    3.4436    1.2376 N   0  0  0  0  0  0  0  0  0  0  0  0
   -4.9183    4.3961    2.0042 C   0  0  0  0  0  0  0  0  0  0  0  0
   -5.7201    3.8670    3.1381 C   0  0  0  0  0  0  0  0  0  0  0  0
   -4.9696    2.7118    0.2488 C   0  0  0  0  0  0  0  0  0  0  0  0
   -5.9450    1.8150    0.9353 C   0  0  0  0  0  0  0  0  0  0  0  0
   -6.7901    1.0318   -0.0522 C   0  0  0  0  0  0  0  0  0  0  0  0
   -6.0426    0.1373   -0.9667 C   0  0  0  0  0  0  0  0  0  0  0  0
   -5.2346   -0.9544   -0.2540 C   0  0  2  0  0  0  0  0  0  0  0  0
   -4.5697   -1.7748   -1.2518 N   0  0  0  0  0  0  0  0  0  0  0  0
   -3.1598   -1.8468   -1.3253 C   0  0  0  0  0  0  0  0  0  0  0  0
   -2.5650   -1.1427   -0.4212 O   0  0  0  0  0  0  0  0  0  0  0  0
   -2.3886   -2.6116   -2.3050 C   0  0  2  0  0  0  0  0  0  0  0  0
   -2.4986   -4.0715   -2.3476 C   0  0  0  0  0  0  0  0  0  0  0  0
   -3.7926   -4.7188   -2.6282 C   0  0  0  0  0  0  0  0  0  0  0  0
   -3.5684   -6.2542   -2.6280 C   0  0  0  0  0  0  0  0  0  0  0  0
   -4.4007   -4.4091   -3.9493 C   0  0  0  0  0  0  0  0  0  0  0  0
   -0.9316   -2.3262   -2.1341 N   0  0  0  0  0  0  0  0  0  0  0  0
   -0.2256   -1.6257   -3.1272 C   0  0  0  0  0  0  0  0  0  0  0  0
   -0.8845   -1.2482   -4.1435 O   0  0  0  0  0  0  0  0  0  0  0  0
    1.2012   -1.2745   -3.1323 C   0  0  2  0  0  0  0  0  0  0  0  0
    1.7536   -1.9657   -4.4101 C   0  0  0  0  0  0  0  0  0  0  0  0
    1.9740   -1.7119   -2.0192 N   0  0  0  0  0  0  0  0  0  0  0  0
    2.9963   -0.8616   -1.5213 C   0  0  0  0  0  0  0  0  0  0  0  0
    3.2429    0.2731   -2.0274 O   0  0  0  0  0  0  0  0  0  0  0  0
    3.8446   -1.2570   -0.3733 C   0  0  2  0  0  0  0  0  0  0  0  0
    3.1343   -1.6664    0.8574 C   0  0  0  0  0  0  0  0  0  0  0  0
    4.1732   -2.0164    1.8872 C   0  0  0  0  0  0  0  0  0  0  0  0
    4.6800   -1.1257    2.7819 C   0  0  0  0  0  0  0  0  0  0  0  0
    5.6480   -1.5004    3.7172 C   0  0  0  0  0  0  0  0  0  0  0  0
    6.1241   -2.7885    3.7654 C   0  0  0  0  0  0  0  0  0  0  0  0
    5.6244   -3.7092    2.8682 C   0  0  0  0  0  0  0  0  0  0  0  0
    4.6667   -3.3181    1.9504 C   0  0  0  0  0  0  0  0  0  0  0  0
    4.8799   -0.2749   -0.1202 N   0  0  0  0  0  0  0  0  0  0  0  0
    4.6710    1.0807    0.1901 C   0  0  0  0  0  0  0  0  0  0  0  0
    3.4668    1.5061    0.2622 O   0  0  0  0  0  0  0  0  0  0  0  0
    5.7878    1.9929    0.4284 C   0  0  0  0  0  0  0  0  0  0  0  0
    7.0876    1.6447    0.2009 C   0  0  0  0  0  0  0  0  0  0  0  0
    8.1512    2.5185    0.4545 C   0  0  0  0  0  0  0  0  0  0  0  0
    7.9030    3.7844    0.9524 C   0  0  0  0  0  0  0  0  0  0  0  0
    8.9777    4.7534    1.2433 C   0  0  0  0  0  0  0  0  0  0  0  0
   10.3357    4.1679    0.9156 C   0  0  0  0  0  0  0  0  0  0  0  0
    8.8187    6.0640    0.5278 C   0  0  0  0  0  0  0  0  0  0  0  0
    9.0131    5.0752    2.7396 C   0  0  0  0  0  0  0  0  0  0  0  0
    6.5924    4.1415    1.1833 C   0  0  0  0  0  0  0  0  0  0  0  0
    5.5598    3.2711    0.9288 C   0  0  0  0  0  0  0  0  0  0  0  0
   -6.1940   -1.7329    0.5145 C   0  0  0  0  0  0  0  0  0  0  0  0
   -6.7694   -1.2576    1.5553 O   0  0  0  0  0  0  0  0  0  0  0  0
   -6.5560   -3.0478    0.1693 N   0  0  0  0  0  0  0  0  0  0  0  0
   -7.5109   -3.8383    0.9426 C   0  0  0  0  0  0  0  0  0  0  0  0
   -6.9995   -4.0482    2.3451 C   0  0  0  0  0  0  0  0  0  0  0  0
   -7.9720   -4.8166    3.0250 O   0  0  0  0  0  0  0  0  0  0  0  0
   -4.1651    4.1922   -1.5493 H   0  0  0  0  0  0  0  0  0  0  0  0
   -3.2032    5.6426   -1.1356 H   0  0  0  0  0  0  0  0  0  0  0  0
   -4.8565    5.3941   -0.4046 H   0  0  0  0  0  0  0  0  0  0  0  0
   -2.5873    3.3533   -0.0889 H   0  0  0  0  0  0  0  0  0  0  0  0
   -2.5577    4.8113    0.9909 H   0  0  0  0  0  0  0  0  0  0  0  0
   -4.2139    5.2170    2.3271 H   0  0  0  0  0  0  0  0  0  0  0  0
   -5.6348    4.9567    1.3207 H   0  0  0  0  0  0  0  0  0  0  0  0
   -5.5333    2.8324    3.4368 H   0  0  0  0  0  0  0  0  0  0  0  0
   -6.8099    4.1309    3.0244 H   0  0  0  0  0  0  0  0  0  0  0  0
   -5.4050    4.4749    4.0601 H   0  0  0  0  0  0  0  0  0  0  0  0
   -4.2631    2.1688   -0.4149 H   0  0  0  0  0  0  0  0  0  0  0  0
   -5.5823    3.4470   -0.3551 H   0  0  0  0  0  0  0  0  0  0  0  0
   -5.4415    1.1894    1.6616 H   0  0  0  0  0  0  0  0  0  0  0  0
   -6.7009    2.4888    1.4350 H   0  0  0  0  0  0  0  0  0  0  0  0
   -7.6607    0.5638    0.4491 H   0  0  0  0  0  0  0  0  0  0  0  0
   -7.2601    1.8299   -0.7041 H   0  0  0  0  0  0  0  0  0  0  0  0
   -5.2838    0.7604   -1.5014 H   0  0  0  0  0  0  0  0  0  0  0  0
   -6.7613   -0.3082   -1.6750 H   0  0  0  0  0  0  0  0  0  0  0  0
   -4.4818   -0.4736    0.4128 H   0  0  0  0  0  0  0  0  0  0  0  0
   -5.1387   -2.3164   -1.9327 H   0  0  0  0  0  0  0  0  0  0  0  0
   -2.6856   -2.2199   -3.3232 H   0  0  0  0  0  0  0  0  0  0  0  0
   -2.1181   -4.4599   -1.3448 H   0  0  0  0  0  0  0  0  0  0  0  0
   -1.7208   -4.5153   -3.0550 H   0  0  0  0  0  0  0  0  0  0  0  0
   -4.5546   -4.5959   -1.8375 H   0  0  0  0  0  0  0  0  0  0  0  0
   -2.9601   -6.4679   -1.7386 H   0  0  0  0  0  0  0  0  0  0  0  0
   -4.5406   -6.7586   -2.6487 H   0  0  0  0  0  0  0  0  0  0  0  0
   -2.9947   -6.4505   -3.5594 H   0  0  0  0  0  0  0  0  0  0  0  0
   -4.1171   -3.3844   -4.3301 H   0  0  0  0  0  0  0  0  0  0  0  0
   -5.5026   -4.3745   -3.8395 H   0  0  0  0  0  0  0  0  0  0  0  0
   -4.1917   -5.1860   -4.7246 H   0  0  0  0  0  0  0  0  0  0  0  0
   -0.4119   -2.6328   -1.2928 H   0  0  0  0  0  0  0  0  0  0  0  0
    1.3586   -0.1832   -3.3473 H   0  0  0  0  0  0  0  0  0  0  0  0
    1.0370   -1.7415   -5.2528 H   0  0  0  0  0  0  0  0  0  0  0  0
    2.7379   -1.5933   -4.6793 H   0  0  0  0  0  0  0  0  0  0  0  0
    1.6872   -3.0539   -4.2331 H   0  0  0  0  0  0  0  0  0  0  0  0
    1.8573   -2.6193   -1.5244 H   0  0  0  0  0  0  0  0  0  0  0  0
    4.3908   -2.1786   -0.7610 H   0  0  0  0  0  0  0  0  0  0  0  0
    2.5304   -2.5826    0.7244 H   0  0  0  0  0  0  0  0  0  0  0  0
    2.4421   -0.9036    1.2658 H   0  0  0  0  0  0  0  0  0  0  0  0
    4.3439   -0.1148    2.7892 H   0  0  0  0  0  0  0  0  0  0  0  0
    6.0422   -0.8038    4.4172 H   0  0  0  0  0  0  0  0  0  0  0  0
    6.8814   -3.0902    4.4947 H   0  0  0  0  0  0  0  0  0  0  0  0
    5.9966   -4.7304    2.9027 H   0  0  0  0  0  0  0  0  0  0  0  0
    4.3132   -4.0768    1.2726 H   0  0  0  0  0  0  0  0  0  0  0  0
    5.8987   -0.5963   -0.1639 H   0  0  0  0  0  0  0  0  0  0  0  0
    7.3647    0.6775   -0.1900 H   0  0  0  0  0  0  0  0  0  0  0  0
    9.1773    2.2448    0.2771 H   0  0  0  0  0  0  0  0  0  0  0  0
   10.3361    3.8544   -0.1315 H   0  0  0  0  0  0  0  0  0  0  0  0
   11.0982    4.9482    1.1059 H   0  0  0  0  0  0  0  0  0  0  0  0
   10.5699    3.3149    1.5886 H   0  0  0  0  0  0  0  0  0  0  0  0
    8.4109    6.8495    1.2252 H   0  0  0  0  0  0  0  0  0  0  0  0
    8.1127    5.9055   -0.3158 H   0  0  0  0  0  0  0  0  0  0  0  0
    9.7833    6.3777    0.1080 H   0  0  0  0  0  0  0  0  0  0  0  0
    9.8590    5.7798    2.8962 H   0  0  0  0  0  0  0  0  0  0  0  0
    9.2348    4.1221    3.2455 H   0  0  0  0  0  0  0  0  0  0  0  0
    8.0824    5.5493    3.0925 H   0  0  0  0  0  0  0  0  0  0  0  0
    6.4084    5.1530    1.5806 H   0  0  0  0  0  0  0  0  0  0  0  0
    4.5390    3.5543    1.1102 H   0  0  0  0  0  0  0  0  0  0  0  0
   -6.1733   -3.5434   -0.6717 H   0  0  0  0  0  0  0  0  0  0  0  0
   -8.5137   -3.3557    0.9375 H   0  0  0  0  0  0  0  0  0  0  0  0
   -7.6509   -4.8312    0.4921 H   0  0  0  0  0  0  0  0  0  0  0  0
   -6.0492   -4.6535    2.2834 H   0  0  0  0  0  0  0  0  0  0  0  0
   -6.8394   -3.1011    2.8758 H   0  0  0  0  0  0  0  0  0  0  0  0
   -8.3219   -5.4439    2.3467 H   0  0  0  0  0  0  0  0  0  0  0  0
  1  2  1  0
  2  3  1  0
  3  4  1  0
  4  5  1  0
  3  6  1  0
  6  7  1  0
  7  8  1  0
  8  9  1  0
  9 10  1  0
 10 11  1  0
 11 12  1  0
 12 13  2  0
 12 14  1  0
 14 15  1  0
 15 16  1  0
 16 17  1  0
 16 18  1  0
 14 19  1  0
 19 20  1  0
 20 21  2  0
 20 22  1  0
 22 23  1  0
 22 24  1  0
 24 25  1  0
 25 26  2  0
 25 27  1  0
 27 28  1  0
 28 29  1  0
 29 30  2  0
 30 31  1  0
 31 32  2  0
 32 33  1  0
 33 34  2  0
 27 35  1  0
 35 36  1  0
 36 37  2  0
 36 38  1  0
 38 39  2  0
 39 40  1  0
 40 41  2  0
 41 42  1  0
 42 43  1  0
 42 44  1  0
 42 45  1  0
 41 46  1  0
 46 47  2  0
 10 48  1  0
 48 49  2  0
 48 50  1  0
 50 51  1  0
 51 52  1  0
 52 53  1  0
 34 29  1  0
 47 38  1  0
  1 54  1  0
  1 55  1  0
  1 56  1  0
  2 57  1  0
  2 58  1  0
  4 59  1  0
  4 60  1  0
  5 61  1  0
  5 62  1  0
  5 63  1  0
  6 64  1  0
  6 65  1  0
  7 66  1  0
  7 67  1  0
  8 68  1  0
  8 69  1  0
  9 70  1  0
  9 71  1  0
 10 72  1  1
 11 73  1  0
 14 74  1  6
 15 75  1  0
 15 76  1  0
 16 77  1  0
 17 78  1  0
 17 79  1  0
 17 80  1  0
 18 81  1  0
 18 82  1  0
 18 83  1  0
 19 84  1  0
 22 85  1  6
 23 86  1  0
 23 87  1  0
 23 88  1  0
 24 89  1  0
 27 90  1  6
 28 91  1  0
 28 92  1  0
 30 93  1  0
 31 94  1  0
 32 95  1  0
 33 96  1  0
 34 97  1  0
 35 98  1  0
 39 99  1  0
 40100  1  0
 43101  1  0
 43102  1  0
 43103  1  0
 44104  1  0
 44105  1  0
 44106  1  0
 45107  1  0
 45108  1  0
 45109  1  0
 46110  1  0
 47111  1  0
 50112  1  0
 51113  1  0
 51114  1  0
 52115  1  0
 52116  1  0
 53117  1  0
M  END
$$$$
