@<TRIPOS>MOLECULE
*****
 117 118 0 0 0
SMALL
GASTEIGER

@<TRIPOS>ATOM
      1 C          -3.9376    4.9024   -0.6968 C.3     1  UNK1       -0.0524
      2 C          -3.2009    4.1737    0.3682 C.3     1  UNK1       -0.0040
      3 N          -4.1691    3.4436    1.2376 N.3     1  UNK1       -0.3028
      4 C          -4.9183    4.3961    2.0042 C.3     1  UNK1       -0.0040
      5 C          -5.7201    3.8670    3.1381 C.3     1  UNK1       -0.0524
      6 C          -4.9696    2.7118    0.2488 C.3     1  UNK1       -0.0011
      7 C          -5.9450    1.8150    0.9353 C.3     1  UNK1       -0.0401
      8 C          -6.7901    1.0318   -0.0522 C.3     1  UNK1       -0.0498
      9 C          -6.0426    0.1373   -0.9667 C.3     1  UNK1       -0.0259
     10 C          -5.2346   -0.9544   -0.2540 C.3     1  UNK1        0.0994
     11 N          -4.5697   -1.7748   -1.2518 N.am    1  UNK1       -0.3025
     12 C          -3.1598   -1.8468   -1.3253 C.2     1  UNK1        0.2340
     13 O          -2.5650   -1.1427   -0.4212 O.2     1  UNK1       -0.2738
     14 C          -2.3886   -2.6116   -2.3050 C.3     1  UNK1        0.0996
     15 C          -2.4986   -4.0715   -2.3476 C.3     1  UNK1       -0.0236
     16 C          -3.7926   -4.7188   -2.6282 C.3     1  UNK1       -0.0446
     17 C          -3.5684   -6.2542   -2.6280 C.3     1  UNK1       -0.0626
     18 C          -4.4007   -4.4091   -3.9493 C.3     1  UNK1       -0.0626
     19 N          -0.9316   -2.3262   -2.1341 N.am    1  UNK1       -0.3025
     20 C          -0.2256   -1.6257   -3.1272 C.2     1  UNK1        0.2337
     21 O          -0.8845   -1.2482   -4.1435 O.2     1  UNK1       -0.2738
     22 C           1.2012   -1.2745   -3.1323 C.3     1  UNK1        0.0966
     23 C           1.7536   -1.9657   -4.4101 C.3     1  UNK1       -0.0381
     24 N           1.9740   -1.7119   -2.0192 N.am    1  UNK1       -0.3027
     25 C           2.9963   -0.8616   -1.5213 C.2     1  UNK1        0.2343
     26 O           3.2429    0.2731   -2.0274 O.2     1  UNK1       -0.2738
     27 C           3.8446   -1.2570   -0.3733 C.3     1  UNK1        0.1036
     28 C           3.1343   -1.6664    0.8574 C.3     1  UNK1       -0.0006
     29 C           4.1732   -2.0164    1.8872 C.ar    1  UNK1       -0.0451
     30 C           4.6800   -1.1257    2.7819 C.ar    1  UNK1       -0.0585
     31 C           5.6480   -1.5004    3.7172 C.ar    1  UNK1       -0.0615
     32 C           6.1241   -2.7885    3.7654 C.ar    1  UNK1       -0.0617
     33 C           5.6244   -3.7092    2.8682 C.ar    1  UNK1       -0.0615
     34 C           4.6667   -3.3181    1.9504 C.ar    1  UNK1       -0.0585
     35 N           4.8799   -0.2749   -0.1202 N.am    1  UNK1       -0.2997
     36 C           4.6710    1.0807    0.1901 C.2     0  UNK0        0.2447
     37 O           3.4668    1.5061    0.2622 O.2     0  UNK0       -0.2702
     38 C           5.7878    1.9929    0.4284 C.ar    0  UNK0        0.0367
     39 C           7.0876    1.6447    0.2009 C.ar    0  UNK0       -0.0494
     40 C           8.1512    2.5185    0.4545 C.ar    0  UNK0       -0.0574
     41 C           7.9030    3.7844    0.9524 C.ar    0  UNK0       -0.0419
     42 C           8.9777    4.7534    1.2433 C.3     0  UNK0       -0.0127
     43 C          10.3357    4.1679    0.9156 C.3     0  UNK0       -0.0560
     44 C           8.8187    6.0640    0.5278 C.3     0  UNK0       -0.0560
     45 C           9.0131    5.0752    2.7396 C.3     0  UNK0       -0.0560
     46 C           6.5924    4.1415    1.1833 C.ar    0  UNK0       -0.0574
     47 C           5.5598    3.2711    0.9288 C.ar    0  UNK0       -0.0494
     48 C          -6.1940   -1.7329    0.5145 C.2     1  UNK1        0.2334
     49 O          -6.7694   -1.2576    1.5553 O.2     1  UNK1       -0.2738
     50 N          -6.5560   -3.0478    0.1693 N.am    2  GLY2       -0.3116
     51 CA         -7.5109   -3.8383    0.9426 C.3     2  GLY2        0.0348
     52 C          -6.9995   -4.0482    2.3451 C.3     2  GLY2        0.0597
     53 O          -7.9720   -4.8166    3.0250 O.3     2  GLY2       -0.3935
     54 H          -4.1651    4.1922   -1.5493 H       1  UNK1        0.0242
     55 H          -3.2032    5.6426   -1.1356 H       1  UNK1        0.0242
     56 H          -4.8565    5.3941   -0.4046 H       1  UNK1        0.0242
     57 H          -2.5873    3.3533   -0.0889 H       1  UNK1        0.0424
     58 H          -2.5577    4.8113    0.9909 H       1  UNK1        0.0424
     59 H          -4.2139    5.2170    2.3271 H       1  UNK1        0.0424
     60 H          -5.6348    4.9567    1.3207 H       1  UNK1        0.0424
     61 H          -5.5333    2.8324    3.4368 H       1  UNK1        0.0242
     62 H          -6.8099    4.1309    3.0244 H       1  UNK1        0.0242
     63 H          -5.4050    4.4749    4.0601 H       1  UNK1        0.0242
     64 H          -4.2631    2.1688   -0.4149 H       1  UNK1        0.0426
     65 H          -5.5823    3.4470   -0.3551 H       1  UNK1        0.0426
     66 H          -5.4415    1.1894    1.6616 H       1  UNK1        0.0278
     67 H          -6.7009    2.4888    1.4350 H       1  UNK1        0.0278
     68 H          -7.6607    0.5638    0.4491 H       1  UNK1        0.0266
     69 H          -7.2601    1.8299   -0.7041 H       1  UNK1        0.0266
     70 H          -5.2838    0.7604   -1.5014 H       1  UNK1        0.0288
     71 H          -6.7613   -0.3082   -1.6750 H       1  UNK1        0.0288
     72 H          -4.4818   -0.4736    0.4128 H       1  UNK1        0.0594
     73 H          -5.1387   -2.3164   -1.9327 H       1  UNK1        0.1495
     74 H          -2.6856   -2.2199   -3.3232 H       1  UNK1        0.0594
     75 H          -2.1181   -4.4599   -1.3448 H       1  UNK1        0.0290
     76 H          -1.7208   -4.5153   -3.0550 H       1  UNK1        0.0290
     77 H          -4.5546   -4.5959   -1.8375 H       1  UNK1        0.0296
     78 H          -2.9601   -6.4679   -1.7386 H       1  UNK1        0.0232
     79 H          -4.5406   -6.7586   -2.6487 H       1  UNK1        0.0232
     80 H          -2.9947   -6.4505   -3.5594 H       1  UNK1        0.0232
     81 H          -4.1171   -3.3844   -4.3301 H       1  UNK1        0.0232
     82 H          -5.5026   -4.3745   -3.8395 H       1  UNK1        0.0232
     83 H          -4.1917   -5.1860   -4.7246 H       1  UNK1        0.0232
     84 H          -0.4119   -2.6328   -1.2928 H       1  UNK1        0.1495
     85 H           1.3586   -0.1832   -3.3473 H       1  UNK1        0.0592
     86 H           1.0370   -1.7415   -5.2528 H       1  UNK1        0.0252
     87 H           2.7379   -1.5933   -4.6793 H       1  UNK1        0.0252
     88 H           1.6872   -3.0539   -4.2331 H       1  UNK1        0.0252
     89 H           1.8573   -2.6193   -1.5244 H       1  UNK1        0.1495
     90 H           4.3908   -2.1786   -0.7610 H       1  UNK1        0.0598
     91 H           2.5304   -2.5826    0.7244 H       1  UNK1        0.0336
     92 H           2.4421   -0.9036    1.2658 H       1  UNK1        0.0336
     93 H           4.3439   -0.1148    2.7892 H       1  UNK1        0.0620
     94 H           6.0422   -0.8038    4.4172 H       1  UNK1        0.0618
     95 H           6.8814   -3.0902    4.4947 H       1  UNK1        0.0618
     96 H           5.9966   -4.7304    2.9027 H       1  UNK1        0.0618
     97 H           4.3132   -4.0768    1.2726 H       1  UNK1        0.0620
     98 H           5.8987   -0.5963   -0.1639 H       1  UNK1        0.1498
     99 H           7.3647    0.6775   -0.1900 H       0  UNK0        0.0625
    100 H           9.1773    2.2448    0.2771 H       0  UNK0        0.0621
    101 H          10.3361    3.8544   -0.1315 H       0  UNK0        0.0238
    102 H          11.0982    4.9482    1.1059 H       0  UNK0        0.0238
    103 H          10.5699    3.3149    1.5886 H       0  UNK0        0.0238
    104 H           8.4109    6.8495    1.2252 H       0  UNK0        0.0238
    105 H           8.1127    5.9055   -0.3158 H       0  UNK0        0.0238
    106 H           9.7833    6.3777    0.1080 H       0  UNK0        0.0238
    107 H           9.8590    5.7798    2.8962 H       0  UNK0        0.0238
    108 H           9.2348    4.1221    3.2455 H       0  UNK0        0.0238
    109 H           8.0824    5.5493    3.0925 H       0  UNK0        0.0238
    110 H           6.4084    5.1530    1.5806 H       0  UNK0        0.0621
    111 H           4.5390    3.5543    1.1102 H       0  UNK0        0.0625
    112 H          -6.1733   -3.5434   -0.6717 H       2  GLY2        0.1488
    113 HA1        -8.5137   -3.3557    0.9375 H       2  GLY2        0.0484
    114 HA2        -7.6509   -4.8312    0.4921 H       2  GLY2        0.0484
    115 H1         -6.0492   -4.6535    2.2834 H       2  GLY2        0.0573
    116 H2         -6.8394   -3.1011    2.8758 H       2  GLY2        0.0573
    117 H          -8.3219   -5.4439    2.3467 H       2  GLY2        0.2095
@<TRIPOS>BOND
     1     1     2    1
     2     2     3    1
     3     3     4    1
     4     4     5    1
     5     3     6    1
     6     6     7    1
     7     7     8    1
     8     8     9    1
     9     9    10    1
    10    10    11    1
    11    11    12   am
    12    12    13    2
    13    12    14    1
    14    14    15    1
    15    15    16    1
    16    16    17    1
    17    16    18    1
    18    14    19    1
    19    19    20   am
    20    20    21    2
    21    20    22    1
    22    22    23    1
    23    22    24    1
    24    24    25   am
    25    25    26    2
    26    25    27    1
    27    27    28    1
    28    28    29    1
    29    29    30   ar
    30    30    31   ar
    31    31    32   ar
    32    32    33   ar
    33    33    34   ar
    34    27    35    1
    35    35    36   am
    36    36    37    2
    37    36    38    1
    38    38    39   ar
    39    39    40   ar
    40    40    41   ar
    41    41    42    1
    42    42    43    1
    43    42    44    1
    44    42    45    1
    45    41    46   ar
    46    46    47   ar
    47    10    48    1
    48    48    49    2
    49    48    50   am
    50    50    51    1
    51    51    52    1
    52    52    53    1
    53    34    29   ar
    54    47    38   ar
    55     1    54    1
    56     1    55    1
    57     1    56    1
    58     2    57    1
    59     2    58    1
    60     4    59    1
    61     4    60    1
    62     5    61    1
    63     5    62    1
    64     5    63    1
    65     6    64    1
    66     6    65    1
    67     7    66    1
    68     7    67    1
    69     8    68    1
    70     8    69    1
    71     9    70    1
    72     9    71    1
    73    10    72    1
    74    11    73    1
    75    14    74    1
    76    15    75    1
    77    15    76    1
    78    16    77    1
    79    17    78    1
    80    17    79    1
    81    17    80    1
    82    18    81    1
    83    18    82    1
    84    18    83    1
    85    19    84    1
    86    22    85    1
    87    23    86    1
    88    23    87    1
    89    23    88    1
    90    24    89    1
    91    27    90    1
    92    28    91    1
    93    28    92    1
    94    30    93    1
    95    31    94    1
    96    32    95    1
    97    33    96    1
    98    34    97    1
    99    35    98    1
   100    39    99    1
   101    40   100    1
   102    43   101    1
   103    43   102    1
   104    43   103    1
   105    44   104    1
   106    44   105    1
   107    44   106    1
   108    45   107    1
   109    45   108    1
   110    45   109    1
   111    46   110    1
   112    47   111    1
   113    50   112    1
   114    51   113    1
   115    51   114    1
   116    52   115    1
   117    52   116    1
   118    53   117    1
