@<TRIPOS>MOLECULE
*****
 68 72 0 0 0
SMALL
GASTEIGER

@<TRIPOS>ATOM
      1 C          -0.8409    4.2775    1.3549 C.3     1  UNL1       -0.0653
      2 C          -1.6859    3.4850    0.3874 C.3     1  UNL1       -0.0556
      3 C          -0.8965    3.1547   -0.8740 C.3     1  UNL1       -0.0478
      4 C          -1.7277    2.3700   -1.8392 C.3     1  UNL1       -0.0084
      5 C          -2.2093    1.0694   -1.3330 C.ar    1  UNL1        0.0677
      6 N          -3.3994    0.8520   -0.7187 N.ar    1  UNL1       -0.1703
      7 N          -3.5317   -0.3903   -0.3404 N.ar    1  UNL1       -0.2252
      8 C          -4.6408   -1.0069    0.3373 C.ar    1  UNL1        0.0663
      9 C          -5.7811   -1.4257   -0.3132 C.ar    1  UNL1       -0.0362
     10 C          -6.8387   -2.0163    0.3472 C.ar    1  UNL1       -0.0598
     11 C          -6.7885   -2.2115    1.7116 C.ar    1  UNL1       -0.0616
     12 C          -5.6534   -1.7970    2.3739 C.ar    1  UNL1       -0.0598
     13 C          -4.5892   -1.2013    1.7002 C.ar    1  UNL1       -0.0362
     14 C          -2.3921   -1.0275   -0.7143 C.ar    1  UNL1        0.1549
     15 C          -2.1246   -2.4243   -0.4843 C.2     1  UNL1        0.3581
     16 O          -3.0175   -3.1244    0.1144 O.2     1  UNL1       -0.2432
     17 O          -0.9980   -3.1308   -0.8346 O.3     1  UNL1       -0.4604
     18 C          -0.8187   -4.5091   -0.5677 C.3     1  UNL1        0.0900
     19 C          -1.9272   -5.2555   -1.2704 C.3     1  UNL1       -0.0306
     20 C          -1.5262   -0.1186   -1.3537 C.ar    1  UNL1        0.0123
     21 C          -0.2051   -0.4627   -1.9409 C.3     1  UNL1        0.0016
     22 C           0.9449   -0.0270   -1.1784 C.ar    1  UNL1       -0.0429
     23 C           1.8280    0.8976   -1.7422 C.ar    1  UNL1       -0.0577
     24 C           2.9009    1.2815   -0.9819 C.ar    1  UNL1       -0.0537
     25 C           3.1392    0.7928    0.3089 C.ar    1  UNL1       -0.0172
     26 C           4.2948    1.2970    1.0320 C.ar    1  UNL1       -0.0072
     27 C           4.0246    2.2564    2.0096 C.ar    1  UNL1       -0.0534
     28 C           5.0601    2.8297    2.7173 C.ar    1  UNL1       -0.0611
     29 C           6.3469    2.4245    2.4252 C.ar    1  UNL1       -0.0611
     30 C           6.5776    1.4878    1.4685 C.ar    1  UNL1       -0.0504
     31 C           5.5568    0.8802    0.7279 C.ar    1  UNL1        0.0282
     32 C           5.9180   -0.1495   -0.2324 C.ar    1  UNL1        0.1799
     33 N           7.1839   -0.3933   -0.6151 N.ar    1  UNL1       -0.1084
     34 N           7.1590   -1.3580   -1.5002 N.ar    1  UNL1       -0.0229
     35 N           5.9405   -1.7600   -1.7179 N.ar    1  UNL1       -0.0464
     36 N           5.1626   -0.9982   -0.9184 N.ar    1  UNL1       -0.2388
     37 C           2.2438   -0.1178    0.8283 C.ar    1  UNL1       -0.0537
     38 C           1.1587   -0.5239    0.0944 C.ar    1  UNL1       -0.0577
     39 H           0.1554    4.5295    0.9550 H       1  UNL1        0.0230
     40 H          -0.7644    3.7232    2.3335 H       1  UNL1        0.0230
     41 H          -1.3478    5.2477    1.6332 H       1  UNL1        0.0230
     42 H          -1.9962    2.5158    0.8282 H       1  UNL1        0.0263
     43 H          -2.5470    4.0975    0.0618 H       1  UNL1        0.0263
     44 H          -0.6428    4.1137   -1.3753 H       1  UNL1        0.0269
     45 H           0.0221    2.6534   -0.6276 H       1  UNL1        0.0269
     46 H          -2.5761    2.9955   -2.2340 H       1  UNL1        0.0329
     47 H          -1.0819    2.2032   -2.7492 H       1  UNL1        0.0329
     48 H          -5.8275   -1.2763   -1.3781 H       1  UNL1        0.0639
     49 H          -7.7364   -2.3461   -0.1657 H       1  UNL1        0.0618
     50 H          -7.6198   -2.6770    2.2410 H       1  UNL1        0.0618
     51 H          -5.5993   -1.9422    3.4344 H       1  UNL1        0.0618
     52 H          -3.6945   -0.8732    2.2136 H       1  UNL1        0.0639
     53 H           0.1783   -4.8126   -0.9231 H       1  UNL1        0.0695
     54 H          -0.9033   -4.6392    0.5492 H       1  UNL1        0.0695
     55 H          -1.5292   -6.2860   -1.4676 H       1  UNL1        0.0262
     56 H          -2.8428   -5.3288   -0.6788 H       1  UNL1        0.0262
     57 H          -2.1706   -4.8156   -2.2453 H       1  UNL1        0.0262
     58 H          -0.1294   -0.0072   -2.9811 H       1  UNL1        0.0363
     59 H          -0.1175   -1.5640   -2.1622 H       1  UNL1        0.0363
     60 H           1.6473    1.2787   -2.7417 H       1  UNL1        0.0621
     61 H           3.5902    2.0017   -1.4192 H       1  UNL1        0.0624
     62 H           3.0142    2.5288    2.1914 H       1  UNL1        0.0624
     63 H           4.8967    3.5761    3.4824 H       1  UNL1        0.0618
     64 H           7.1793    2.8681    2.9757 H       1  UNL1        0.0618
     65 H           7.5878    1.2005    1.2715 H       1  UNL1        0.0625
     66 H           4.1487   -1.1589   -0.9202 H       1  UNL1        0.1923
     67 H           2.4139   -0.4995    1.8138 H       1  UNL1        0.0624
     68 H           0.4446   -1.2335    0.4824 H       1  UNL1        0.0621
@<TRIPOS>BOND
     1     1     2    1
     2     2     3    1
     3     3     4    1
     4     4     5    1
     5     5     6   ar
     6     6     7   ar
     7     7     8    1
     8     8     9   ar
     9     9    10   ar
    10    10    11   ar
    11    11    12   ar
    12    12    13   ar
    13     7    14   ar
    14    14    15    1
    15    15    16    2
    16    15    17    1
    17    17    18    1
    18    18    19    1
    19    14    20   ar
    20    20    21    1
    21    21    22    1
    22    22    23   ar
    23    23    24   ar
    24    24    25   ar
    25    25    26    1
    26    26    27   ar
    27    27    28   ar
    28    28    29   ar
    29    29    30   ar
    30    30    31   ar
    31    31    32    1
    32    32    33   ar
    33    33    34   ar
    34    34    35   ar
    35    35    36   ar
    36    25    37   ar
    37    37    38   ar
    38    20     5   ar
    39    38    22   ar
    40    13     8   ar
    41    31    26   ar
    42    36    32   ar
    43     1    39    1
    44     1    40    1
    45     1    41    1
    46     2    42    1
    47     2    43    1
    48     3    44    1
    49     3    45    1
    50     4    46    1
    51     4    47    1
    52     9    48    1
    53    10    49    1
    54    11    50    1
    55    12    51    1
    56    13    52    1
    57    18    53    1
    58    18    54    1
    59    19    55    1
    60    19    56    1
    61    19    57    1
    62    21    58    1
    63    21    59    1
    64    23    60    1
    65    24    61    1
    66    27    62    1
    67    28    63    1
    68    29    64    1
    69    30    65    1
    70    36    66    1
    71    37    67    1
    72    38    68    1
