@<TRIPOS>MOLECULE
*****
 52 51 0 0 0
SMALL
GASTEIGER

@<TRIPOS>ATOM
      1 C          -8.6568    0.6438   -0.7906 C.3     1  UNL1       -0.0618
      2 C          -7.5866    1.3888    0.0367 C.3     1  UNL1       -0.0376
      3 C          -6.5433    1.7521   -0.9349 C.2     1  UNL1       -0.0879
      4 C          -5.3847    1.2216   -0.6262 C.2     1  UNL1       -0.0842
      5 C          -4.7139    0.3373    0.4112 C.3     1  UNL1       -0.0165
      6 C          -3.6226    1.0518    1.0602 C.2     1  UNL1       -0.0839
      7 C          -2.3561    0.7626    1.0613 C.2     1  UNL1       -0.0839
      8 C          -2.0374   -0.4779    0.2802 C.3     1  UNL1       -0.0165
      9 C          -1.2159   -0.0532   -0.8635 C.2     1  UNL1       -0.0839
     10 C          -0.1488   -0.0633   -1.5931 C.2     1  UNL1       -0.0839
     11 C           0.8764   -0.9591   -1.1139 C.3     1  UNL1       -0.0165
     12 C           0.6508   -1.8009    0.0423 C.2     1  UNL1       -0.0839
     13 C           1.3675   -1.7072    1.1436 C.2     1  UNL1       -0.0839
     14 C           2.4808   -0.9766    1.7785 C.3     1  UNL1       -0.0165
     15 C           3.0919    0.1018    1.0011 C.2     1  UNL1       -0.0842
     16 C           4.3778    0.1733    0.5971 C.2     1  UNL1       -0.0876
     17 C           5.4459   -0.8031    0.8420 C.3     1  UNL1       -0.0343
     18 C           6.0285   -1.3629   -0.4368 C.3     1  UNL1       -0.0395
     19 C           6.6267   -0.2903   -1.3072 C.3     1  UNL1        0.0451
     20 C           7.7190    0.4310   -0.6508 C.2     1  UNL1        0.3047
     21 O           8.7327    1.3457   -0.4704 O.3     1  UNL1       -0.4806
     22 O           8.3042    0.3732    0.4775 O.2     1  UNL1       -0.2510
     23 H          -9.0085    1.3079   -1.6225 H       1  UNL1        0.0233
     24 H          -9.5276    0.3697   -0.1892 H       1  UNL1        0.0233
     25 H          -8.1737   -0.2228   -1.2682 H       1  UNL1        0.0233
     26 H          -8.1245    2.3164    0.3993 H       1  UNL1        0.0305
     27 H          -7.3046    0.7869    0.8835 H       1  UNL1        0.0305
     28 H          -6.6190    2.3600   -1.8064 H       1  UNL1        0.0569
     29 H          -4.5263    1.4310   -1.2975 H       1  UNL1        0.0572
     30 H          -5.5335    0.1170    1.1768 H       1  UNL1        0.0350
     31 H          -4.5479   -0.6244   -0.0603 H       1  UNL1        0.0350
     32 H          -3.9834    1.9421    1.6032 H       1  UNL1        0.0572
     33 H          -1.5861    1.3344    1.5621 H       1  UNL1        0.0572
     34 H          -1.4309   -1.0910    1.0473 H       1  UNL1        0.0350
     35 H          -2.8991   -1.0504    0.0509 H       1  UNL1        0.0350
     36 H          -1.9410    0.6494   -1.3515 H       1  UNL1        0.0572
     37 H           0.0588    0.4992   -2.4867 H       1  UNL1        0.0572
     38 H           1.0876   -1.6896   -1.9744 H       1  UNL1        0.0350
     39 H           1.8777   -0.4633   -1.0136 H       1  UNL1        0.0350
     40 H          -0.1428   -2.5179   -0.1199 H       1  UNL1        0.0572
     41 H           1.0068   -2.4560    1.8826 H       1  UNL1        0.0572
     42 H           2.0490   -0.4803    2.6989 H       1  UNL1        0.0350
     43 H           3.2291   -1.6974    2.1774 H       1  UNL1        0.0350
     44 H           2.4939    0.9664    0.7084 H       1  UNL1        0.0572
     45 H           4.7338    1.0354    0.0138 H       1  UNL1        0.0569
     46 H           5.1669   -1.6051    1.5539 H       1  UNL1        0.0307
     47 H           6.2551   -0.2471    1.3591 H       1  UNL1        0.0307
     48 H           5.2223   -1.8370   -1.0320 H       1  UNL1        0.0273
     49 H           6.8551   -2.0763   -0.2193 H       1  UNL1        0.0273
     50 H           5.8615    0.4902   -1.5896 H       1  UNL1        0.0378
     51 H           7.0056   -0.6787   -2.2634 H       1  UNL1        0.0378
     52 H           9.0099    2.0427   -1.1716 H       1  UNL1        0.2951
@<TRIPOS>BOND
     1     1     2    1
     2     2     3    1
     3     3     4    2
     4     4     5    1
     5     5     6    1
     6     6     7    2
     7     7     8    1
     8     8     9    1
     9     9    10    2
    10    10    11    1
    11    11    12    1
    12    12    13    2
    13    13    14    1
    14    14    15    1
    15    15    16    2
    16    16    17    1
    17    17    18    1
    18    18    19    1
    19    19    20    1
    20    20    21    1
    21    20    22    2
    22     1    23    1
    23     1    24    1
    24     1    25    1
    25     2    26    1
    26     2    27    1
    27     3    28    1
    28     4    29    1
    29     5    30    1
    30     5    31    1
    31     6    32    1
    32     7    33    1
    33     8    34    1
    34     8    35    1
    35     9    36    1
    36    10    37    1
    37    11    38    1
    38    11    39    1
    39    12    40    1
    40    13    41    1
    41    14    42    1
    42    14    43    1
    43    15    44    1
    44    16    45    1
    45    17    46    1
    46    17    47    1
    47    18    48    1
    48    18    49    1
    49    19    50    1
    50    19    51    1
    51    21    52    1
