
     RDKit          3D

 52 51  0  0  0  0  0  0  0  0999 V2000
   -8.6568    0.6438   -0.7906 C   0  0  0  0  0  0  0  0  0  0  0  0
   -7.5866    1.3888    0.0367 C   0  0  0  0  0  0  0  0  0  0  0  0
   -6.5433    1.7521   -0.9349 C   0  0  0  0  0  0  0  0  0  0  0  0
   -5.3847    1.2216   -0.6262 C   0  0  0  0  0  0  0  0  0  0  0  0
   -4.7139    0.3373    0.4112 C   0  0  0  0  0  0  0  0  0  0  0  0
   -3.6226    1.0518    1.0602 C   0  0  0  0  0  0  0  0  0  0  0  0
   -2.3561    0.7626    1.0613 C   0  0  0  0  0  0  0  0  0  0  0  0
   -2.0374   -0.4779    0.2802 C   0  0  0  0  0  0  0  0  0  0  0  0
   -1.2159   -0.0532   -0.8635 C   0  0  0  0  0  0  0  0  0  0  0  0
   -0.1488   -0.0633   -1.5931 C   0  0  0  0  0  0  0  0  0  0  0  0
    0.8764   -0.9591   -1.1139 C   0  0  0  0  0  0  0  0  0  0  0  0
    0.6508   -1.8009    0.0423 C   0  0  0  0  0  0  0  0  0  0  0  0
    1.3675   -1.7072    1.1436 C   0  0  0  0  0  0  0  0  0  0  0  0
    2.4808   -0.9766    1.7785 C   0  0  0  0  0  0  0  0  0  0  0  0
    3.0919    0.1018    1.0011 C   0  0  0  0  0  0  0  0  0  0  0  0
    4.3778    0.1733    0.5971 C   0  0  0  0  0  0  0  0  0  0  0  0
    5.4459   -0.8031    0.8420 C   0  0  0  0  0  0  0  0  0  0  0  0
    6.0285   -1.3629   -0.4368 C   0  0  0  0  0  0  0  0  0  0  0  0
    6.6267   -0.2903   -1.3072 C   0  0  0  0  0  0  0  0  0  0  0  0
    7.7190    0.4310   -0.6508 C   0  0  0  0  0  0  0  0  0  0  0  0
    8.7327    1.3457   -0.4704 O   0  0  0  0  0  0  0  0  0  0  0  0
    8.3042    0.3732    0.4775 O   0  0  0  0  0  0  0  0  0  0  0  0
   -9.0085    1.3079   -1.6225 H   0  0  0  0  0  0  0  0  0  0  0  0
   -9.5276    0.3697   -0.1892 H   0  0  0  0  0  0  0  0  0  0  0  0
   -8.1737   -0.2228   -1.2682 H   0  0  0  0  0  0  0  0  0  0  0  0
   -8.1245    2.3164    0.3993 H   0  0  0  0  0  0  0  0  0  0  0  0
   -7.3046    0.7869    0.8835 H   0  0  0  0  0  0  0  0  0  0  0  0
   -6.6190    2.3600   -1.8064 H   0  0  0  0  0  0  0  0  0  0  0  0
   -4.5263    1.4310   -1.2975 H   0  0  0  0  0  0  0  0  0  0  0  0
   -5.5335    0.1170    1.1768 H   0  0  0  0  0  0  0  0  0  0  0  0
   -4.5479   -0.6244   -0.0603 H   0  0  0  0  0  0  0  0  0  0  0  0
   -3.9834    1.9421    1.6032 H   0  0  0  0  0  0  0  0  0  0  0  0
   -1.5861    1.3344    1.5621 H   0  0  0  0  0  0  0  0  0  0  0  0
   -1.4309   -1.0910    1.0473 H   0  0  0  0  0  0  0  0  0  0  0  0
   -2.8991   -1.0504    0.0509 H   0  0  0  0  0  0  0  0  0  0  0  0
   -1.9410    0.6494   -1.3515 H   0  0  0  0  0  0  0  0  0  0  0  0
    0.0588    0.4992   -2.4867 H   0  0  0  0  0  0  0  0  0  0  0  0
    1.0876   -1.6896   -1.9744 H   0  0  0  0  0  0  0  0  0  0  0  0
    1.8777   -0.4633   -1.0136 H   0  0  0  0  0  0  0  0  0  0  0  0
   -0.1428   -2.5179   -0.1199 H   0  0  0  0  0  0  0  0  0  0  0  0
    1.0068   -2.4560    1.8826 H   0  0  0  0  0  0  0  0  0  0  0  0
    2.0490   -0.4803    2.6989 H   0  0  0  0  0  0  0  0  0  0  0  0
    3.2291   -1.6974    2.1774 H   0  0  0  0  0  0  0  0  0  0  0  0
    2.4939    0.9664    0.7084 H   0  0  0  0  0  0  0  0  0  0  0  0
    4.7338    1.0354    0.0138 H   0  0  0  0  0  0  0  0  0  0  0  0
    5.1669   -1.6051    1.5539 H   0  0  0  0  0  0  0  0  0  0  0  0
    6.2551   -0.2471    1.3591 H   0  0  0  0  0  0  0  0  0  0  0  0
    5.2223   -1.8370   -1.0320 H   0  0  0  0  0  0  0  0  0  0  0  0
    6.8551   -2.0763   -0.2193 H   0  0  0  0  0  0  0  0  0  0  0  0
    5.8615    0.4902   -1.5896 H   0  0  0  0  0  0  0  0  0  0  0  0
    7.0056   -0.6787   -2.2634 H   0  0  0  0  0  0  0  0  0  0  0  0
    9.0099    2.0427   -1.1716 H   0  0  0  0  0  0  0  0  0  0  0  0
  1  2  1  0
  2  3  1  0
  3  4  2  0
  4  5  1  0
  5  6  1  0
  6  7  2  0
  7  8  1  0
  8  9  1  0
  9 10  2  0
 10 11  1  0
 11 12  1  0
 12 13  2  0
 13 14  1  0
 14 15  1  0
 15 16  2  0
 16 17  1  0
 17 18  1  0
 18 19  1  0
 19 20  1  0
 20 21  1  0
 20 22  2  0
  1 23  1  0
  1 24  1  0
  1 25  1  0
  2 26  1  0
  2 27  1  0
  3 28  1  0
  4 29  1  0
  5 30  1  0
  5 31  1  0
  6 32  1  0
  7 33  1  0
  8 34  1  0
  8 35  1  0
  9 36  1  0
 10 37  1  0
 11 38  1  0
 11 39  1  0
 12 40  1  0
 13 41  1  0
 14 42  1  0
 14 43  1  0
 15 44  1  0
 16 45  1  0
 17 46  1  0
 17 47  1  0
 18 48  1  0
 18 49  1  0
 19 50  1  0
 19 51  1  0
 21 52  1  0
M  END
$$$$
