@<TRIPOS>MOLECULE
*****
 67 69 0 0 0
SMALL
GASTEIGER

@<TRIPOS>ATOM
      1 C          -4.2860   -6.2654   -1.8114 C.3     1  UNL1        0.0788
      2 O          -3.2351   -5.3363   -1.9217 O.3     1  UNL1       -0.4950
      3 C          -3.0414   -4.3293   -0.9827 C.ar    1  UNL1        0.1241
      4 C          -3.8916   -4.2257    0.0889 C.ar    1  UNL1        0.0218
      5 C          -3.7101   -3.2254    1.0343 C.ar    1  UNL1        0.1241
      6 O          -4.5348   -3.0788    2.1265 O.3     1  UNL1       -0.4950
      7 C          -4.2938   -2.0411    3.0482 C.3     1  UNL1        0.0788
      8 C          -2.6615   -2.3657    0.8469 C.ar    1  UNL1       -0.0119
      9 C          -1.8101   -2.4529   -0.2080 C.ar    1  UNL1       -0.0077
     10 C          -0.7195   -1.5221   -0.3841 C.ar    1  UNL1        0.0232
     11 C           0.5882   -2.0251   -0.5126 C.ar    1  UNL1       -0.0401
     12 C           1.5983   -1.0917   -0.6434 C.ar    1  UNL1        0.0193
     13 C           2.9185   -1.4954   -0.7753 C.ar    1  UNL1        0.0389
     14 N           3.8733   -0.5660   -0.8997 N.ar    1  UNL1       -0.2398
     15 C           3.6609    0.7621   -0.9086 C.ar    1  UNL1        0.1207
     16 N           4.7332    1.6930   -1.0457 N.pl3   1  UNL1       -0.3290
     17 C           6.0905    1.2134   -1.1482 C.3     1  UNL1        0.0105
     18 C           6.4626    0.5157    0.1190 C.3     1  UNL1       -0.0354
     19 C           7.8806   -0.0125    0.0730 C.3     1  UNL1       -0.0283
     20 C           8.8965    1.0886   -0.1328 C.3     1  UNL1        0.0443
     21 O          10.1541    0.4442   -0.1507 O.3     1  UNL1       -0.3950
     22 C           2.3586    1.2082   -0.7796 C.ar    1  UNL1        0.0041
     23 C           1.3550    0.2735   -0.6499 C.ar    1  UNL1        0.0778
     24 N           0.0664    0.6710   -0.5216 N.ar    1  UNL1       -0.2310
     25 C          -0.9673   -0.1781   -0.3908 C.ar    1  UNL1        0.1345
     26 N          -2.2836    0.3333   -0.2834 N.am    1  UNL1       -0.2537
     27 C          -2.5263    1.7581   -0.2634 C.2     1  UNL1        0.3053
     28 O          -1.5171    2.4983   -0.3327 O.2     1  UNL1       -0.2525
     29 N          -3.8341    2.3060   -0.1704 N.am    1  UNL1       -0.2944
     30 C          -3.9729    3.7363   -0.1575 C.3     1  UNL1        0.0276
     31 C          -3.4300    4.3956   -1.3901 C.3     1  UNL1       -0.0442
     32 C          -3.2697    4.3580    1.0459 C.3     1  UNL1       -0.0442
     33 C          -5.4405    4.0722   -0.0155 C.3     1  UNL1       -0.0442
     34 C          -1.9905   -3.4534   -1.1545 C.ar    1  UNL1       -0.0119
     35 H          -4.5251   -6.7452   -2.7906 H       1  UNL1        0.0660
     36 H          -4.0478   -7.0656   -1.1034 H       1  UNL1        0.0660
     37 H          -5.2393   -5.7722   -1.4984 H       1  UNL1        0.0660
     38 H          -4.7274   -4.8892    0.2638 H       1  UNL1        0.0691
     39 H          -4.3653   -1.0391    2.5797 H       1  UNL1        0.0660
     40 H          -3.2391   -2.1211    3.4398 H       1  UNL1        0.0660
     41 H          -4.9700   -2.0861    3.9183 H       1  UNL1        0.0660
     42 H          -2.5233   -1.5927    1.5988 H       1  UNL1        0.0660
     43 H           0.7967   -3.0643   -0.5102 H       1  UNL1        0.0632
     44 H           3.1098   -2.5515   -0.7707 H       1  UNL1        0.0837
     45 H           4.5055    2.7075   -1.0687 H       1  UNL1        0.1474
     46 H           6.0578    0.4126   -1.9469 H       1  UNL1        0.0462
     47 H           6.8011    1.9984   -1.4401 H       1  UNL1        0.0462
     48 H           5.8087   -0.3251    0.3970 H       1  UNL1        0.0281
     49 H           6.4328    1.2107    1.0088 H       1  UNL1        0.0281
     50 H           8.1146   -0.4654    1.0691 H       1  UNL1        0.0288
     51 H           7.9830   -0.7468   -0.7519 H       1  UNL1        0.0288
     52 H           8.7617    1.5551   -1.1516 H       1  UNL1        0.0557
     53 H           8.8690    1.8336    0.6654 H       1  UNL1        0.0557
     54 H          10.8180    1.0939    0.1911 H       1  UNL1        0.2094
     55 H           2.1625    2.2696   -0.7838 H       1  UNL1        0.0673
     56 H          -3.1287   -0.2423   -0.2253 H       1  UNL1        0.1578
     57 H          -4.6727    1.6561   -0.1129 H       1  UNL1        0.1508
     58 H          -2.4664    4.9314   -1.1758 H       1  UNL1        0.0250
     59 H          -4.1348    5.2208   -1.7002 H       1  UNL1        0.0250
     60 H          -3.2383    3.7117   -2.2197 H       1  UNL1        0.0250
     61 H          -3.3223    3.6953    1.9334 H       1  UNL1        0.0250
     62 H          -2.2257    4.5841    0.7399 H       1  UNL1        0.0250
     63 H          -3.7956    5.3202    1.2496 H       1  UNL1        0.0250
     64 H          -5.8829    3.5738    0.8720 H       1  UNL1        0.0250
     65 H          -5.9878    3.6779   -0.9035 H       1  UNL1        0.0250
     66 H          -5.6093    5.1603    0.0253 H       1  UNL1        0.0250
     67 H          -1.3404   -3.5688   -2.0155 H       1  UNL1        0.0660
@<TRIPOS>BOND
     1     1     2    1
     2     2     3    1
     3     3     4   ar
     4     4     5   ar
     5     5     6    1
     6     6     7    1
     7     5     8   ar
     8     8     9   ar
     9     9    10    1
    10    10    11   ar
    11    11    12   ar
    12    12    13   ar
    13    13    14   ar
    14    14    15   ar
    15    15    16    1
    16    16    17    1
    17    17    18    1
    18    18    19    1
    19    19    20    1
    20    20    21    1
    21    15    22   ar
    22    22    23   ar
    23    23    24   ar
    24    24    25   ar
    25    25    26    1
    26    26    27   am
    27    27    28    2
    28    27    29   am
    29    29    30    1
    30    30    31    1
    31    30    32    1
    32    30    33    1
    33     9    34   ar
    34    34     3   ar
    35    25    10   ar
    36    23    12   ar
    37     1    35    1
    38     1    36    1
    39     1    37    1
    40     4    38    1
    41     7    39    1
    42     7    40    1
    43     7    41    1
    44     8    42    1
    45    11    43    1
    46    13    44    1
    47    16    45    1
    48    17    46    1
    49    17    47    1
    50    18    48    1
    51    18    49    1
    52    19    50    1
    53    19    51    1
    54    20    52    1
    55    20    53    1
    56    21    54    1
    57    22    55    1
    58    26    56    1
    59    29    57    1
    60    31    58    1
    61    31    59    1
    62    31    60    1
    63    32    61    1
    64    32    62    1
    65    32    63    1
    66    33    64    1
    67    33    65    1
    68    33    66    1
    69    34    67    1
