@<TRIPOS>MOLECULE
*****
 33 35 0 0 0
SMALL
GASTEIGER

@<TRIPOS>ATOM
      1 O          -4.8202   -2.7886   -0.2485 O.3     1  UNL1       -0.5063
      2 C          -4.0208   -1.6450   -0.1208 C.ar    1  UNL1        0.1293
      3 C          -2.6591   -1.7772   -0.1940 C.ar    1  UNL1        0.0234
      4 C          -1.8995   -0.6237   -0.0634 C.ar    1  UNL1        0.1483
      5 O          -0.6102   -0.6857   -0.1239 O.2     1  UNL1       -0.4507
      6 C           0.2119    0.3546   -0.0116 C.ar    1  UNL1        0.1770
      7 C           1.6277    0.0935   -0.1050 C.ar    1  UNL1        0.0281
      8 C           2.5497    1.0964   -0.0019 C.ar    1  UNL1       -0.0055
      9 C           3.9051    0.7522   -0.1046 C.ar    1  UNL1        0.1626
     10 O           4.8248    1.7833    0.0026 O.3     1  UNL1       -0.5032
     11 C           4.3107   -0.5467   -0.3024 C.ar    1  UNL1        0.2006
     12 O           5.6598   -0.8482   -0.3988 O.3     1  UNL1       -0.5009
     13 C           3.3926   -1.5717   -0.4088 C.ar    1  UNL1        0.1626
     14 O           3.8098   -2.8808   -0.6085 O.3     1  UNL1       -0.5032
     15 C           2.0725   -1.2301   -0.3079 C.ar    1  UNL1       -0.0055
     16 C          -0.3702    1.5672    0.1812 C.ar    1  UNL1        0.1607
     17 O           0.3668    2.7264    0.3135 O.3     1  UNL1       -0.5032
     18 C          -1.7525    1.7542    0.2629 C.ar    1  UNL1        0.0032
     19 C          -2.5624    0.6522    0.1415 C.ar    1  UNL1        0.1239
     20 C          -3.9265    0.7581    0.2111 C.ar    1  UNL1        0.3575
     21 O          -4.5061    1.8363    0.3851 O.2     1  UNL1       -0.2705
     22 C          -4.6517   -0.4375    0.0732 C.ar    1  UNL1        0.0838
     23 H          -5.7368   -2.6924   -0.6651 H       1  UNL1        0.2921
     24 H          -2.1634   -2.7426   -0.3489 H       1  UNL1        0.0691
     25 H           2.3249    2.1338    0.1521 H       1  UNL1        0.0662
     26 H           4.6001    2.6237    0.4895 H       1  UNL1        0.2923
     27 H           6.1595   -1.1070    0.4559 H       1  UNL1        0.2924
     28 H           4.3455   -3.1238   -1.4506 H       1  UNL1        0.2923
     29 H           1.3149   -2.0169   -0.3874 H       1  UNL1        0.0662
     30 H           0.2101    3.4193    1.0176 H       1  UNL1        0.2923
     31 H          -2.1651    2.7532    0.4190 H       1  UNL1        0.0665
     32 H          -4.1143    2.7383    0.4953 H       1  UNL1        0.6840
     33 H          -5.7276   -0.3247    0.1322 H       1  UNL1        0.0749
@<TRIPOS>UNITY_ATOM_ATTR
21 1
charge 1
@<TRIPOS>BOND
     1     1     2    1
     2     2     3   ar
     3     3     4   ar
     4     4     5   ar
     5     5     6   ar
     6     6     7    1
     7     7     8   ar
     8     8     9   ar
     9     9    10    1
    10     9    11   ar
    11    11    12    1
    12    11    13   ar
    13    13    14    1
    14    13    15   ar
    15     6    16   ar
    16    16    17    1
    17    16    18   ar
    18    18    19   ar
    19    19    20   ar
    20    20    21    2
    21    20    22   ar
    22    22     2   ar
    23    19     4    1
    24    15     7   ar
    25     1    23    1
    26     3    24    1
    27     8    25    1
    28    10    26    1
    29    12    27    1
    30    14    28    1
    31    15    29    1
    32    17    30    1
    33    18    31    1
    34    21    32    1
    35    22    33    1
