@<TRIPOS>MOLECULE
*****
 69 73 0 0 0
SMALL
GASTEIGER

@<TRIPOS>ATOM
      1 N          -2.8130   -0.5914    2.0188 N.3     1  UNL1       -0.3173
      2 C          -2.0050   -0.1987    0.8697 C.3     1  UNL1        0.0965
      3 C          -0.5853    0.0290    1.2851 C.2     1  UNL1        0.2336
      4 O          -0.2816   -0.1375    2.5038 O.2     1  UNL1       -0.2738
      5 N           0.3604    0.4177    0.3188 N.am    1  UNL1       -0.3069
      6 C           1.7429    0.6493    0.6719 C.3     1  UNL1        0.0496
      7 C           2.6489   -0.2815   -0.1110 C.3     1  UNL1       -0.0175
      8 C           4.0653    0.0247    0.3148 C.3     1  UNL1        0.0009
      9 N           5.0120   -0.8212   -0.3835 N.3     1  UNL1       -0.3022
     10 C           6.3600   -0.5835   -0.0296 C.3     1  UNL1       -0.0011
     11 C           7.2299   -1.3275   -1.0515 C.3     1  UNL1       -0.0402
     12 C           7.0370   -2.7928   -0.6879 C.3     1  UNL1       -0.0507
     13 C           5.6141   -3.1960   -0.7363 C.3     1  UNL1       -0.0402
     14 C           4.6003   -2.1734   -0.4864 C.3     1  UNL1       -0.0011
     15 C           2.1151    2.0702    0.4280 C.ar    1  UNL1       -0.0271
     16 C           2.8385    2.7895    1.3663 C.ar    1  UNL1       -0.0554
     17 C           3.1845    4.0894    1.1532 C.ar    1  UNL1       -0.0431
     18 C           2.8274    4.7381   -0.0052 C.ar    1  UNL1        0.0410
     19 CL          3.2704    6.4220   -0.2914 Cl      1  UNL1       -0.0835
     20 C           2.1103    4.0219   -0.9334 C.ar    1  UNL1       -0.0431
     21 C           1.7491    2.6994   -0.7347 C.ar    1  UNL1       -0.0554
     22 C          -2.5829    1.0858    0.3238 C.3     1  UNL1       -0.0104
     23 C          -3.9308    0.8299   -0.2801 C.3     1  UNL1        0.0156
     24 N          -4.4206   -0.5082   -0.0338 N.pl3   1  UNL1       -0.3144
     25 C          -5.7513   -0.6786    0.4878 C.ar    1  UNL1        0.1337
     26 N          -5.9133   -1.2910    1.6539 N.ar    1  UNL1       -0.2200
     27 C          -7.1308   -1.4805    2.1937 C.ar    1  UNL1        0.1204
     28 N          -8.1837   -1.0234    1.5033 N.ar    1  UNL1       -0.2178
     29 C          -8.0800   -0.3954    0.3172 C.ar    1  UNL1        0.1432
     30 N          -8.9514    0.1404   -0.5479 N.ar    1  UNL1       -0.3457
     31 C          -8.3212    0.6616   -1.6158 C.ar    1  UNL1        0.0042
     32 C          -6.9811    0.4529   -1.4322 C.ar    1  UNL1       -0.0318
     33 C          -6.8190   -0.2054   -0.2303 C.ar    1  UNL1        0.0585
     34 C          -3.5800   -1.6461   -0.3101 C.3     1  UNL1        0.0156
     35 C          -2.1209   -1.2627   -0.1736 C.3     1  UNL1       -0.0104
     36 H          -2.4434   -0.1852    2.9072 H       1  UNL1        0.1192
     37 H          -2.7993   -1.6460    2.0418 H       1  UNL1        0.1192
     38 H           0.0774    0.5462   -0.6768 H       1  UNL1        0.1493
     39 H           1.8555    0.4662    1.7557 H       1  UNL1        0.0549
     40 H           2.3719   -1.3383    0.0567 H       1  UNL1        0.0299
     41 H           2.4806   -0.0615   -1.1774 H       1  UNL1        0.0299
     42 H           4.2058   -0.0045    1.3936 H       1  UNL1        0.0427
     43 H           4.2793    1.0701   -0.0206 H       1  UNL1        0.0427
     44 H           6.5516   -0.9742    1.0021 H       1  UNL1        0.0426
     45 H           6.5548    0.5036   -0.0673 H       1  UNL1        0.0426
     46 H           8.2741   -1.0299   -1.0064 H       1  UNL1        0.0278
     47 H           6.7601   -1.1942   -2.0585 H       1  UNL1        0.0278
     48 H           7.4298   -2.8889    0.3671 H       1  UNL1        0.0266
     49 H           7.7104   -3.3928   -1.3136 H       1  UNL1        0.0266
     50 H           5.4927   -4.0754   -0.0349 H       1  UNL1        0.0278
     51 H           5.4354   -3.6610   -1.7525 H       1  UNL1        0.0278
     52 H           3.7818   -2.2129   -1.2660 H       1  UNL1        0.0426
     53 H           4.0486   -2.4236    0.4701 H       1  UNL1        0.0426
     54 H           3.1203    2.2776    2.2810 H       1  UNL1        0.0621
     55 H           3.7407    4.6220    1.8888 H       1  UNL1        0.0632
     56 H           1.8234    4.5349   -1.8585 H       1  UNL1        0.0632
     57 H           1.1845    2.1784   -1.4951 H       1  UNL1        0.0621
     58 H          -2.6713    1.8121    1.1712 H       1  UNL1        0.0303
     59 H          -1.8727    1.4867   -0.4384 H       1  UNL1        0.0303
     60 H          -4.6590    1.5821    0.1155 H       1  UNL1        0.0465
     61 H          -3.9103    1.0159   -1.3871 H       1  UNL1        0.0465
     62 H          -7.2349   -1.9896    3.1582 H       1  UNL1        0.1048
     63 H          -9.9817    0.1391   -0.3876 H       1  UNL1        0.1668
     64 H          -8.7703    1.1588   -2.4732 H       1  UNL1        0.0807
     65 H          -6.1877    0.7426   -2.0939 H       1  UNL1        0.0640
     66 H          -3.7960   -2.0797   -1.3206 H       1  UNL1        0.0465
     67 H          -3.8341   -2.4360    0.4290 H       1  UNL1        0.0465
     68 H          -1.5458   -2.1656    0.1304 H       1  UNL1        0.0303
     69 H          -1.7862   -0.9043   -1.1710 H       1  UNL1        0.0303
@<TRIPOS>BOND
     1     1     2    1
     2     2     3    1
     3     3     4    2
     4     3     5   am
     5     5     6    1
     6     6     7    1
     7     7     8    1
     8     8     9    1
     9     9    10    1
    10    10    11    1
    11    11    12    1
    12    12    13    1
    13    13    14    1
    14     6    15    1
    15    15    16   ar
    16    16    17   ar
    17    17    18   ar
    18    18    19    1
    19    18    20   ar
    20    20    21   ar
    21     2    22    1
    22    22    23    1
    23    23    24    1
    24    24    25    1
    25    25    26   ar
    26    26    27   ar
    27    27    28   ar
    28    28    29   ar
    29    29    30   ar
    30    30    31   ar
    31    31    32   ar
    32    32    33   ar
    33    24    34    1
    34    34    35    1
    35    35     2    1
    36    14     9    1
    37    21    15   ar
    38    33    25   ar
    39    33    29   ar
    40     1    36    1
    41     1    37    1
    42     5    38    1
    43     6    39    1
    44     7    40    1
    45     7    41    1
    46     8    42    1
    47     8    43    1
    48    10    44    1
    49    10    45    1
    50    11    46    1
    51    11    47    1
    52    12    48    1
    53    12    49    1
    54    13    50    1
    55    13    51    1
    56    14    52    1
    57    14    53    1
    58    16    54    1
    59    17    55    1
    60    20    56    1
    61    21    57    1
    62    22    58    1
    63    22    59    1
    64    23    60    1
    65    23    61    1
    66    27    62    1
    67    30    63    1
    68    31    64    1
    69    32    65    1
    70    34    66    1
    71    34    67    1
    72    35    68    1
    73    35    69    1
