
     RDKit          3D

 69 73  0  0  0  0  0  0  0  0999 V2000
   -2.8130   -0.5914    2.0188 N   0  0  0  0  0  0  0  0  0  0  0  0
   -2.0050   -0.1987    0.8697 C   0  0  0  0  0  0  0  0  0  0  0  0
   -0.5853    0.0290    1.2851 C   0  0  0  0  0  0  0  0  0  0  0  0
   -0.2816   -0.1375    2.5038 O   0  0  0  0  0  0  0  0  0  0  0  0
    0.3604    0.4177    0.3188 N   0  0  0  0  0  0  0  0  0  0  0  0
    1.7429    0.6493    0.6719 C   0  0  1  0  0  0  0  0  0  0  0  0
    2.6489   -0.2815   -0.1110 C   0  0  0  0  0  0  0  0  0  0  0  0
    4.0653    0.0247    0.3148 C   0  0  0  0  0  0  0  0  0  0  0  0
    5.0120   -0.8212   -0.3835 N   0  0  0  0  0  0  0  0  0  0  0  0
    6.3600   -0.5835   -0.0296 C   0  0  0  0  0  0  0  0  0  0  0  0
    7.2299   -1.3275   -1.0515 C   0  0  0  0  0  0  0  0  0  0  0  0
    7.0370   -2.7928   -0.6879 C   0  0  0  0  0  0  0  0  0  0  0  0
    5.6141   -3.1960   -0.7363 C   0  0  0  0  0  0  0  0  0  0  0  0
    4.6003   -2.1734   -0.4864 C   0  0  0  0  0  0  0  0  0  0  0  0
    2.1151    2.0702    0.4280 C   0  0  0  0  0  0  0  0  0  0  0  0
    2.8385    2.7895    1.3663 C   0  0  0  0  0  0  0  0  0  0  0  0
    3.1845    4.0894    1.1532 C   0  0  0  0  0  0  0  0  0  0  0  0
    2.8274    4.7381   -0.0052 C   0  0  0  0  0  0  0  0  0  0  0  0
    3.2704    6.4220   -0.2914 Cl  0  0  0  0  0  0  0  0  0  0  0  0
    2.1103    4.0219   -0.9334 C   0  0  0  0  0  0  0  0  0  0  0  0
    1.7491    2.6994   -0.7347 C   0  0  0  0  0  0  0  0  0  0  0  0
   -2.5829    1.0858    0.3238 C   0  0  0  0  0  0  0  0  0  0  0  0
   -3.9308    0.8299   -0.2801 C   0  0  0  0  0  0  0  0  0  0  0  0
   -4.4206   -0.5082   -0.0338 N   0  0  0  0  0  0  0  0  0  0  0  0
   -5.7513   -0.6786    0.4878 C   0  0  0  0  0  0  0  0  0  0  0  0
   -5.9133   -1.2910    1.6539 N   0  0  0  0  0  0  0  0  0  0  0  0
   -7.1308   -1.4805    2.1937 C   0  0  0  0  0  0  0  0  0  0  0  0
   -8.1837   -1.0234    1.5033 N   0  0  0  0  0  0  0  0  0  0  0  0
   -8.0800   -0.3954    0.3172 C   0  0  0  0  0  0  0  0  0  0  0  0
   -8.9514    0.1404   -0.5479 N   0  0  0  0  0  0  0  0  0  0  0  0
   -8.3212    0.6616   -1.6158 C   0  0  0  0  0  0  0  0  0  0  0  0
   -6.9811    0.4529   -1.4322 C   0  0  0  0  0  0  0  0  0  0  0  0
   -6.8190   -0.2054   -0.2303 C   0  0  0  0  0  0  0  0  0  0  0  0
   -3.5800   -1.6461   -0.3101 C   0  0  0  0  0  0  0  0  0  0  0  0
   -2.1209   -1.2627   -0.1736 C   0  0  0  0  0  0  0  0  0  0  0  0
   -2.4434   -0.1852    2.9072 H   0  0  0  0  0  0  0  0  0  0  0  0
   -2.7993   -1.6460    2.0418 H   0  0  0  0  0  0  0  0  0  0  0  0
    0.0774    0.5462   -0.6768 H   0  0  0  0  0  0  0  0  0  0  0  0
    1.8555    0.4662    1.7557 H   0  0  0  0  0  0  0  0  0  0  0  0
    2.3719   -1.3383    0.0567 H   0  0  0  0  0  0  0  0  0  0  0  0
    2.4806   -0.0615   -1.1774 H   0  0  0  0  0  0  0  0  0  0  0  0
    4.2058   -0.0045    1.3936 H   0  0  0  0  0  0  0  0  0  0  0  0
    4.2793    1.0701   -0.0206 H   0  0  0  0  0  0  0  0  0  0  0  0
    6.5516   -0.9742    1.0021 H   0  0  0  0  0  0  0  0  0  0  0  0
    6.5548    0.5036   -0.0673 H   0  0  0  0  0  0  0  0  0  0  0  0
    8.2741   -1.0299   -1.0064 H   0  0  0  0  0  0  0  0  0  0  0  0
    6.7601   -1.1942   -2.0585 H   0  0  0  0  0  0  0  0  0  0  0  0
    7.4298   -2.8889    0.3671 H   0  0  0  0  0  0  0  0  0  0  0  0
    7.7104   -3.3928   -1.3136 H   0  0  0  0  0  0  0  0  0  0  0  0
    5.4927   -4.0754   -0.0349 H   0  0  0  0  0  0  0  0  0  0  0  0
    5.4354   -3.6610   -1.7525 H   0  0  0  0  0  0  0  0  0  0  0  0
    3.7818   -2.2129   -1.2660 H   0  0  0  0  0  0  0  0  0  0  0  0
    4.0486   -2.4236    0.4701 H   0  0  0  0  0  0  0  0  0  0  0  0
    3.1203    2.2776    2.2810 H   0  0  0  0  0  0  0  0  0  0  0  0
    3.7407    4.6220    1.8888 H   0  0  0  0  0  0  0  0  0  0  0  0
    1.8234    4.5349   -1.8585 H   0  0  0  0  0  0  0  0  0  0  0  0
    1.1845    2.1784   -1.4951 H   0  0  0  0  0  0  0  0  0  0  0  0
   -2.6713    1.8121    1.1712 H   0  0  0  0  0  0  0  0  0  0  0  0
   -1.8727    1.4867   -0.4384 H   0  0  0  0  0  0  0  0  0  0  0  0
   -4.6590    1.5821    0.1155 H   0  0  0  0  0  0  0  0  0  0  0  0
   -3.9103    1.0159   -1.3871 H   0  0  0  0  0  0  0  0  0  0  0  0
   -7.2349   -1.9896    3.1582 H   0  0  0  0  0  0  0  0  0  0  0  0
   -9.9817    0.1391   -0.3876 H   0  0  0  0  0  0  0  0  0  0  0  0
   -8.7703    1.1588   -2.4732 H   0  0  0  0  0  0  0  0  0  0  0  0
   -6.1877    0.7426   -2.0939 H   0  0  0  0  0  0  0  0  0  0  0  0
   -3.7960   -2.0797   -1.3206 H   0  0  0  0  0  0  0  0  0  0  0  0
   -3.8341   -2.4360    0.4290 H   0  0  0  0  0  0  0  0  0  0  0  0
   -1.5458   -2.1656    0.1304 H   0  0  0  0  0  0  0  0  0  0  0  0
   -1.7862   -0.9043   -1.1710 H   0  0  0  0  0  0  0  0  0  0  0  0
  1  2  1  0
  2  3  1  0
  3  4  2  0
  3  5  1  0
  5  6  1  0
  6  7  1  0
  7  8  1  0
  8  9  1  0
  9 10  1  0
 10 11  1  0
 11 12  1  0
 12 13  1  0
 13 14  1  0
  6 15  1  0
 15 16  2  0
 16 17  1  0
 17 18  2  0
 18 19  1  0
 18 20  1  0
 20 21  2  0
  2 22  1  0
 22 23  1  0
 23 24  1  0
 24 25  1  0
 25 26  2  0
 26 27  1  0
 27 28  2  0
 28 29  1  0
 29 30  1  0
 30 31  1  0
 31 32  2  0
 32 33  1  0
 24 34  1  0
 34 35  1  0
 35  2  1  0
 14  9  1  0
 21 15  1  0
 33 25  1  0
 33 29  2  0
  1 36  1  0
  1 37  1  0
  5 38  1  0
  6 39  1  1
  7 40  1  0
  7 41  1  0
  8 42  1  0
  8 43  1  0
 10 44  1  0
 10 45  1  0
 11 46  1  0
 11 47  1  0
 12 48  1  0
 12 49  1  0
 13 50  1  0
 13 51  1  0
 14 52  1  0
 14 53  1  0
 16 54  1  0
 17 55  1  0
 20 56  1  0
 21 57  1  0
 22 58  1  0
 22 59  1  0
 23 60  1  0
 23 61  1  0
 27 62  1  0
 30 63  1  0
 31 64  1  0
 32 65  1  0
 34 66  1  0
 34 67  1  0
 35 68  1  0
 35 69  1  0
M  END
$$$$
