@<TRIPOS>MOLECULE
*****
 54 56 0 0 0
SMALL
GASTEIGER

@<TRIPOS>ATOM
      1 C          -2.8910   -0.0516    5.6102 C.3     1  UNL1        0.0788
      2 O          -2.2873    0.7073    4.5858 O.3     1  UNL1       -0.4950
      3 C          -1.5367    0.2229    3.5476 C.ar    1  UNL1        0.1241
      4 C          -1.2998   -1.1256    3.4079 C.ar    1  UNL1        0.0218
      5 C          -0.5457   -1.6394    2.3686 C.ar    1  UNL1        0.1241
      6 O          -0.2811   -2.9845    2.1861 O.3     1  UNL1       -0.4950
      7 C          -0.7668   -3.9685    3.0633 C.3     1  UNL1        0.0788
      8 C          -0.0182   -0.7287    1.4423 C.ar    1  UNL1       -0.0119
      9 C          -0.2561    0.5975    1.5867 C.ar    1  UNL1       -0.0077
     10 C           0.2727    1.5754    0.6318 C.ar    1  UNL1        0.0232
     11 C           1.0229    2.5880    1.2329 C.ar    1  UNL1       -0.0401
     12 C           1.5485    3.5534    0.3951 C.ar    1  UNL1        0.0193
     13 C           2.3054    4.5838    0.8964 C.ar    1  UNL1        0.0389
     14 N           2.8333    5.5307    0.1138 N.ar    1  UNL1       -0.2400
     15 C           2.6476    5.5226   -1.2299 C.ar    1  UNL1        0.1182
     16 N           3.2023    6.5146   -2.0641 N.pl3   1  UNL1       -0.3431
     17 C           1.8916    4.4967   -1.7417 C.ar    1  UNL1        0.0039
     18 C           1.3286    3.5001   -0.9680 C.ar    1  UNL1        0.0778
     19 N           0.5940    2.4937   -1.4780 N.ar    1  UNL1       -0.2310
     20 C           0.0573    1.5219   -0.7042 C.ar    1  UNL1        0.1345
     21 N          -0.7238    0.5214   -1.3112 N.am    1  UNL1       -0.2537
     22 C          -0.1156   -0.6040   -1.9731 C.2     1  UNL1        0.3053
     23 O           1.1279   -0.6987   -2.0265 O.2     1  UNL1       -0.2525
     24 N          -0.8826   -1.6278   -2.5781 N.am    1  UNL1       -0.2944
     25 C          -0.2927   -2.7559   -3.2591 C.3     1  UNL1        0.0276
     26 C           0.5274   -2.2190   -4.4283 C.3     1  UNL1       -0.0442
     27 C           0.6110   -3.5776   -2.3596 C.3     1  UNL1       -0.0442
     28 C          -1.3785   -3.6746   -3.7555 C.3     1  UNL1       -0.0442
     29 C          -1.0184    1.1126    2.6380 C.ar    1  UNL1       -0.0119
     30 H          -2.1171   -0.2936    6.3950 H       1  UNL1        0.0660
     31 H          -3.6963    0.4890    6.1065 H       1  UNL1        0.0660
     32 H          -3.2437   -1.0320    5.2295 H       1  UNL1        0.0660
     33 H          -1.6958   -1.8519    4.1169 H       1  UNL1        0.0691
     34 H          -1.7951   -3.7236    3.3976 H       1  UNL1        0.0660
     35 H          -0.8242   -4.9380    2.4834 H       1  UNL1        0.0660
     36 H          -0.1188   -4.0961    3.9583 H       1  UNL1        0.0660
     37 H           0.5666   -1.1444    0.6651 H       1  UNL1        0.0660
     38 H           1.1908    2.6249    2.2970 H       1  UNL1        0.0632
     39 H           2.4579    4.5934    1.9860 H       1  UNL1        0.0837
     40 H           2.8370    6.6778   -3.0259 H       1  UNL1        0.1437
     41 H           3.9916    7.1084   -1.7404 H       1  UNL1        0.1437
     42 H           1.7447    4.4949   -2.8258 H       1  UNL1        0.0673
     43 H          -1.7714    0.5758   -1.2837 H       1  UNL1        0.1578
     44 H          -1.9152   -1.5626   -2.5301 H       1  UNL1        0.1508
     45 H           1.6104   -2.4191   -4.2301 H       1  UNL1        0.0250
     46 H           0.3833   -1.1245   -4.5308 H       1  UNL1        0.0250
     47 H           0.2203   -2.7078   -5.3735 H       1  UNL1        0.0250
     48 H           1.5674   -3.0512   -2.1734 H       1  UNL1        0.0250
     49 H           0.1276   -3.9306   -1.4497 H       1  UNL1        0.0250
     50 H           0.8879   -4.4910   -2.9596 H       1  UNL1        0.0250
     51 H          -2.1355   -3.8346   -2.9588 H       1  UNL1        0.0250
     52 H          -0.8820   -4.6470   -3.9742 H       1  UNL1        0.0250
     53 H          -1.8892   -3.2875   -4.6451 H       1  UNL1        0.0250
     54 H          -1.1771    2.1849    2.7077 H       1  UNL1        0.0660
@<TRIPOS>BOND
     1     1     2    1
     2     2     3    1
     3     3     4   ar
     4     4     5   ar
     5     5     6    1
     6     6     7    1
     7     5     8   ar
     8     8     9   ar
     9     9    10    1
    10    10    11   ar
    11    11    12   ar
    12    12    13   ar
    13    13    14   ar
    14    14    15   ar
    15    15    16    1
    16    15    17   ar
    17    17    18   ar
    18    18    19   ar
    19    19    20   ar
    20    20    21    1
    21    21    22   am
    22    22    23    2
    23    22    24   am
    24    24    25    1
    25    25    26    1
    26    25    27    1
    27    25    28    1
    28     9    29   ar
    29    29     3   ar
    30    20    10   ar
    31    18    12   ar
    32     1    30    1
    33     1    31    1
    34     1    32    1
    35     4    33    1
    36     7    34    1
    37     7    35    1
    38     7    36    1
    39     8    37    1
    40    11    38    1
    41    13    39    1
    42    16    40    1
    43    16    41    1
    44    17    42    1
    45    21    43    1
    46    24    44    1
    47    26    45    1
    48    26    46    1
    49    26    47    1
    50    27    48    1
    51    27    49    1
    52    27    50    1
    53    28    51    1
    54    28    52    1
    55    28    53    1
    56    29    54    1
