
     RDKit          3D

 49 51  0  0  0  0  0  0  0  0999 V2000
    6.9904    0.7168    2.3057 C   0  0  0  0  0  0  0  0  0  0  0  0
    6.7941   -0.1944    1.2374 O   0  0  0  0  0  0  0  0  0  0  0  0
    5.7299    0.0127    0.3758 C   0  0  0  0  0  0  0  0  0  0  0  0
    4.8707    1.0763    0.5374 C   0  0  0  0  0  0  0  0  0  0  0  0
    3.8031    1.2655   -0.3444 C   0  0  0  0  0  0  0  0  0  0  0  0
    3.5476    0.4311   -1.3953 C   0  0  0  0  0  0  0  0  0  0  0  0
    2.4130    0.5830   -2.3500 C   0  0  0  0  0  0  0  0  0  0  0  0
    1.3253   -0.1642   -2.2014 O   0  0  0  0  0  0  0  0  0  0  0  0
    0.3661   -0.3310   -1.2750 C   0  0  0  0  0  0  0  0  0  0  0  0
    0.3224    0.3933   -0.1075 C   0  0  0  0  0  0  0  0  0  0  0  0
   -0.6802    0.2122    0.8565 C   0  0  0  0  0  0  0  0  0  0  0  0
   -1.6588   -0.7213    0.6325 C   0  0  0  0  0  0  0  0  0  0  0  0
   -2.7256   -0.9139    1.6346 C   0  0  0  0  0  0  0  0  0  0  0  0
   -3.9741   -0.2183    1.3074 C   0  0  0  0  0  0  0  0  0  0  0  0
   -5.0424   -0.9629    0.7872 C   0  0  0  0  0  0  0  0  0  0  0  0
   -6.2069   -0.3726    0.4652 N   0  0  0  0  0  0  0  0  0  0  0  0
   -6.4055    0.9482    0.6235 C   0  0  0  0  0  0  0  0  0  0  0  0
   -7.6409    1.5655    0.2801 N   0  0  0  0  0  0  0  0  0  0  0  0
   -5.3887    1.6663    1.1202 N   0  0  0  0  0  0  0  0  0  0  0  0
   -4.1864    1.1285    1.4654 C   0  0  0  0  0  0  0  0  0  0  0  0
   -3.1437    1.9391    1.9932 N   0  0  0  0  0  0  0  0  0  0  0  0
   -1.6137   -1.4549   -0.5518 C   0  0  0  0  0  0  0  0  0  0  0  0
   -0.6501   -1.2884   -1.4891 C   0  0  0  0  0  0  0  0  0  0  0  0
   -0.5802   -1.9999   -2.6702 O   0  0  0  0  0  0  0  0  0  0  0  0
   -1.5735   -2.9746   -2.9385 C   0  0  0  0  0  0  0  0  0  0  0  0
    4.4324   -0.6499   -1.5488 C   0  0  0  0  0  0  0  0  0  0  0  0
    5.4850   -0.8383   -0.6816 C   0  0  0  0  0  0  0  0  0  0  0  0
    6.0467    0.7887    2.9227 H   0  0  0  0  0  0  0  0  0  0  0  0
    7.1687    1.7411    1.9196 H   0  0  0  0  0  0  0  0  0  0  0  0
    7.8374    0.4283    2.9491 H   0  0  0  0  0  0  0  0  0  0  0  0
    5.0302    1.7628    1.3519 H   0  0  0  0  0  0  0  0  0  0  0  0
    3.1496    2.1305   -0.1905 H   0  0  0  0  0  0  0  0  0  0  0  0
    2.8179    0.4319   -3.4140 H   0  0  0  0  0  0  0  0  0  0  0  0
    2.2238    1.7080   -2.3660 H   0  0  0  0  0  0  0  0  0  0  0  0
    1.0595    1.1505    0.1139 H   0  0  0  0  0  0  0  0  0  0  0  0
   -0.6308    0.8327    1.7656 H   0  0  0  0  0  0  0  0  0  0  0  0
   -2.3139   -0.6140    2.6293 H   0  0  0  0  0  0  0  0  0  0  0  0
   -2.8855   -2.0177    1.7161 H   0  0  0  0  0  0  0  0  0  0  0  0
   -4.8782   -2.0345    0.6602 H   0  0  0  0  0  0  0  0  0  0  0  0
   -7.8108    2.0947   -0.5894 H   0  0  0  0  0  0  0  0  0  0  0  0
   -8.4593    1.4883    0.9518 H   0  0  0  0  0  0  0  0  0  0  0  0
   -2.4508    2.4530    1.4075 H   0  0  0  0  0  0  0  0  0  0  0  0
   -3.0550    2.0336    3.0222 H   0  0  0  0  0  0  0  0  0  0  0  0
   -2.4161   -2.1947   -0.6961 H   0  0  0  0  0  0  0  0  0  0  0  0
   -2.5549   -2.4459   -2.8947 H   0  0  0  0  0  0  0  0  0  0  0  0
   -1.3812   -3.3995   -3.9459 H   0  0  0  0  0  0  0  0  0  0  0  0
   -1.5321   -3.8199   -2.2233 H   0  0  0  0  0  0  0  0  0  0  0  0
    4.2509   -1.3150   -2.3655 H   0  0  0  0  0  0  0  0  0  0  0  0
    6.1746   -1.6721   -0.7928 H   0  0  0  0  0  0  0  0  0  0  0  0
  1  2  1  0
  2  3  1  0
  3  4  2  0
  4  5  1  0
  5  6  2  0
  6  7  1  0
  7  8  1  0
  8  9  1  0
  9 10  2  0
 10 11  1  0
 11 12  2  0
 12 13  1  0
 13 14  1  0
 14 15  2  0
 15 16  1  0
 16 17  2  0
 17 18  1  0
 17 19  1  0
 19 20  2  0
 20 21  1  0
 12 22  1  0
 22 23  2  0
 23 24  1  0
 24 25  1  0
  6 26  1  0
 26 27  2  0
 27  3  1  0
 23  9  1  0
 20 14  1  0
  1 28  1  0
  1 29  1  0
  1 30  1  0
  4 31  1  0
  5 32  1  0
  7 33  1  0
  7 34  1  0
 10 35  1  0
 11 36  1  0
 13 37  1  0
 13 38  1  0
 15 39  1  0
 18 40  1  0
 18 41  1  0
 21 42  1  0
 21 43  1  0
 22 44  1  0
 25 45  1  0
 25 46  1  0
 25 47  1  0
 26 48  1  0
 27 49  1  0
M  END
$$$$
