@<TRIPOS>MOLECULE
*****
 49 51 0 0 0
SMALL
GASTEIGER

@<TRIPOS>ATOM
      1 C           6.9904    0.7168    2.3057 C.3     1  UNL1        0.0788
      2 O           6.7941   -0.1944    1.2374 O.3     1  UNL1       -0.4951
      3 C           5.7299    0.0127    0.3758 C.ar    1  UNL1        0.1201
      4 C           4.8707    1.0763    0.5374 C.ar    1  UNL1       -0.0196
      5 C           3.8031    1.2655   -0.3444 C.ar    1  UNL1       -0.0519
      6 C           3.5476    0.4311   -1.3953 C.ar    1  UNL1       -0.0102
      7 C           2.4130    0.5830   -2.3500 C.3     1  UNL1        0.1148
      8 O           1.3253   -0.1642   -2.2014 O.3     1  UNL1       -0.4837
      9 C           0.3661   -0.3310   -1.2750 C.ar    1  UNL1        0.1624
     10 C           0.3224    0.3933   -0.1075 C.ar    1  UNL1       -0.0160
     11 C          -0.6802    0.2122    0.8565 C.ar    1  UNL1       -0.0546
     12 C          -1.6588   -0.7213    0.6325 C.ar    1  UNL1       -0.0392
     13 C          -2.7256   -0.9139    1.6346 C.3     1  UNL1        0.0024
     14 C          -3.9741   -0.2183    1.3074 C.ar    1  UNL1        0.0146
     15 C          -5.0424   -0.9629    0.7872 C.ar    1  UNL1        0.0379
     16 N          -6.2069   -0.3726    0.4652 N.ar    1  UNL1       -0.2227
     17 C          -6.4055    0.9482    0.6235 C.ar    1  UNL1        0.2142
     18 N          -7.6409    1.5655    0.2801 N.pl3   1  UNL1       -0.3274
     19 N          -5.3887    1.6663    1.1202 N.ar    1  UNL1       -0.1999
     20 C          -4.1864    1.1285    1.4654 C.ar    1  UNL1        0.1247
     21 N          -3.1437    1.9391    1.9932 N.pl3   1  UNL1       -0.3428
     22 C          -1.6137   -1.4549   -0.5518 C.ar    1  UNL1       -0.0128
     23 C          -0.6501   -1.2884   -1.4891 C.ar    1  UNL1        0.1618
     24 O          -0.5802   -1.9999   -2.6702 O.3     1  UNL1       -0.4914
     25 C          -1.5735   -2.9746   -2.9385 C.3     1  UNL1        0.0790
     26 C           4.4324   -0.6499   -1.5488 C.ar    1  UNL1       -0.0519
     27 C           5.4850   -0.8383   -0.6816 C.ar    1  UNL1       -0.0196
     28 H           6.0467    0.7887    2.9227 H       1  UNL1        0.0660
     29 H           7.1687    1.7411    1.9196 H       1  UNL1        0.0660
     30 H           7.8374    0.4283    2.9491 H       1  UNL1        0.0660
     31 H           5.0302    1.7628    1.3519 H       1  UNL1        0.0654
     32 H           3.1496    2.1305   -0.1905 H       1  UNL1        0.0622
     33 H           2.8179    0.4319   -3.4140 H       1  UNL1        0.0748
     34 H           2.2238    1.7080   -2.3660 H       1  UNL1        0.0748
     35 H           1.0595    1.1505    0.1139 H       1  UNL1        0.0655
     36 H          -0.6308    0.8327    1.7656 H       1  UNL1        0.0622
     37 H          -2.3139   -0.6140    2.6293 H       1  UNL1        0.0363
     38 H          -2.8855   -2.0177    1.7161 H       1  UNL1        0.0363
     39 H          -4.8782   -2.0345    0.6602 H       1  UNL1        0.0834
     40 H          -7.8108    2.0947   -0.5894 H       1  UNL1        0.1452
     41 H          -8.4593    1.4883    0.9518 H       1  UNL1        0.1452
     42 H          -2.4508    2.4530    1.4075 H       1  UNL1        0.1437
     43 H          -3.0550    2.0336    3.0222 H       1  UNL1        0.1437
     44 H          -2.4161   -2.1947   -0.6961 H       1  UNL1        0.0658
     45 H          -2.5549   -2.4459   -2.8947 H       1  UNL1        0.0660
     46 H          -1.3812   -3.3995   -3.9459 H       1  UNL1        0.0660
     47 H          -1.5321   -3.8199   -2.2233 H       1  UNL1        0.0660
     48 H           4.2509   -1.3150   -2.3655 H       1  UNL1        0.0622
     49 H           6.1746   -1.6721   -0.7928 H       1  UNL1        0.0654
@<TRIPOS>BOND
     1     1     2    1
     2     2     3    1
     3     3     4   ar
     4     4     5   ar
     5     5     6   ar
     6     6     7    1
     7     7     8    1
     8     8     9    1
     9     9    10   ar
    10    10    11   ar
    11    11    12   ar
    12    12    13    1
    13    13    14    1
    14    14    15   ar
    15    15    16   ar
    16    16    17   ar
    17    17    18    1
    18    17    19   ar
    19    19    20   ar
    20    20    21    1
    21    12    22   ar
    22    22    23   ar
    23    23    24    1
    24    24    25    1
    25     6    26   ar
    26    26    27   ar
    27    27     3   ar
    28    23     9   ar
    29    20    14   ar
    30     1    28    1
    31     1    29    1
    32     1    30    1
    33     4    31    1
    34     5    32    1
    35     7    33    1
    36     7    34    1
    37    10    35    1
    38    11    36    1
    39    13    37    1
    40    13    38    1
    41    15    39    1
    42    18    40    1
    43    18    41    1
    44    21    42    1
    45    21    43    1
    46    22    44    1
    47    25    45    1
    48    25    46    1
    49    25    47    1
    50    26    48    1
    51    27    49    1
