
     RDKit          3D

 41 40  0  0  0  0  0  0  0  0999 V2000
    4.1431    1.0257    1.3372 N   0  0  0  0  0  0  0  0  0  0  0  0
    3.9283    0.9420   -0.0910 C   0  0  1  0  0  0  0  0  0  0  0  0
    2.8312    1.8929   -0.4491 C   0  0  0  0  0  0  0  0  0  0  0  0
    1.5822    1.4935    0.2976 C   0  0  0  0  0  0  0  0  0  0  0  0
    1.1517    0.1192   -0.0646 C   0  0  0  0  0  0  0  0  0  0  0  0
    1.4624   -0.8595   -0.7896 O   0  0  0  0  0  0  0  0  0  0  0  0
   -0.0260   -0.2097    0.6616 N   0  0  0  0  0  0  0  0  0  0  0  0
   -0.7433   -1.5026    0.5562 C   0  0  1  0  0  0  0  0  0  0  0  0
   -1.0462   -2.0382    1.9031 C   0  0  0  0  0  0  0  0  0  0  0  0
   -1.8047   -3.6327    1.9027 S   0  0  0  0  0  0  0  0  0  0  0  0
   -3.4191   -3.6959    1.1786 C   0  0  0  0  0  0  0  0  0  0  0  0
   -4.0627   -4.9410    1.4629 O   0  0  0  0  0  0  0  0  0  0  0  0
   -2.0316   -1.0992   -0.1543 C   0  0  0  0  0  0  0  0  0  0  0  0
   -3.1842   -1.3313   -0.6822 O   0  0  0  0  0  0  0  0  0  0  0  0
   -2.2323    0.3062   -0.5090 N   0  0  0  0  0  0  0  0  0  0  0  0
   -3.4390    0.7726   -1.1915 C   0  0  0  0  0  0  0  0  0  0  0  0
   -3.3856    2.2299   -1.4278 C   0  0  0  0  0  0  0  0  0  0  0  0
   -2.7978    3.4837   -1.3619 O   0  0  0  0  0  0  0  0  0  0  0  0
   -4.4684    2.5521   -2.0246 O   0  0  0  0  0  0  0  0  0  0  0  0
    5.1685    1.2730   -0.8450 C   0  0  0  0  0  0  0  0  0  0  0  0
    5.3170    1.2761   -2.2048 O   0  0  0  0  0  0  0  0  0  0  0  0
    6.2016    1.5857   -0.1811 O   0  0  0  0  0  0  0  0  0  0  0  0
    4.1733    2.0308    1.6555 H   0  0  0  0  0  0  0  0  0  0  0  0
    5.0317    0.5246    1.5686 H   0  0  0  0  0  0  0  0  0  0  0  0
    3.5963   -0.0854   -0.3198 H   0  0  0  0  0  0  0  0  0  0  0  0
    2.6003    1.7097   -1.5299 H   0  0  0  0  0  0  0  0  0  0  0  0
    3.0919    2.9474   -0.3168 H   0  0  0  0  0  0  0  0  0  0  0  0
    1.7617    1.5884    1.3940 H   0  0  0  0  0  0  0  0  0  0  0  0
    0.7656    2.2185    0.0782 H   0  0  0  0  0  0  0  0  0  0  0  0
   -0.5643    0.3734    1.3637 H   0  0  0  0  0  0  0  0  0  0  0  0
   -0.1991   -2.1391   -0.1358 H   0  0  0  0  0  0  0  0  0  0  0  0
   -0.1670   -1.9647    2.6055 H   0  0  0  0  0  0  0  0  0  0  0  0
   -1.7917   -1.3272    2.4104 H   0  0  0  0  0  0  0  0  0  0  0  0
   -3.3724   -3.7667    0.0352 H   0  0  0  0  0  0  0  0  0  0  0  0
   -4.1136   -2.8979    1.4154 H   0  0  0  0  0  0  0  0  0  0  0  0
   -3.6153   -5.6709    0.9594 H   0  0  0  0  0  0  0  0  0  0  0  0
   -1.5078    1.0769   -0.2905 H   0  0  0  0  0  0  0  0  0  0  0  0
   -3.4664    0.2441   -2.1777 H   0  0  0  0  0  0  0  0  0  0  0  0
   -4.3144    0.5411   -0.5528 H   0  0  0  0  0  0  0  0  0  0  0  0
   -3.1414    4.2032   -0.7186 H   0  0  0  0  0  0  0  0  0  0  0  0
    6.0873    0.7513   -2.6370 H   0  0  0  0  0  0  0  0  0  0  0  0
  1  2  1  0
  2  3  1  0
  3  4  1  0
  4  5  1  0
  5  6  2  0
  5  7  1  0
  7  8  1  0
  8  9  1  0
  9 10  1  0
 10 11  1  0
 11 12  1  0
  8 13  1  0
 13 14  2  0
 13 15  1  0
 15 16  1  0
 16 17  1  0
 17 18  1  0
 17 19  2  0
  2 20  1  0
 20 21  1  0
 20 22  2  0
  1 23  1  0
  1 24  1  0
  2 25  1  1
  3 26  1  0
  3 27  1  0
  4 28  1  0
  4 29  1  0
  7 30  1  0
  8 31  1  6
  9 32  1  0
  9 33  1  0
 11 34  1  0
 11 35  1  0
 12 36  1  0
 15 37  1  0
 16 38  1  0
 16 39  1  0
 18 40  1  0
 21 41  1  0
M  END
$$$$
