@<TRIPOS>MOLECULE
*****
 41 40 0 0 0
SMALL
GASTEIGER

@<TRIPOS>ATOM
      1 N           4.1431    1.0257    1.3372 N.3     1  UNK1       -0.3184
      2 C           3.9283    0.9420   -0.0910 C.3     1  UNK1        0.1037
      3 C           2.8312    1.8929   -0.4491 C.3     1  UNK1       -0.0191
      4 C           1.5822    1.4935    0.2976 C.3     1  UNK1        0.0259
      5 C           1.1517    0.1192   -0.0646 C.2     1  UNK1        0.2137
      6 O           1.4624   -0.8595   -0.7896 O.2     1  UNK1       -0.2758
      7 N          -0.0260   -0.2097    0.6616 N.am    1  UNK1       -0.3033
      8 C          -0.7433   -1.5026    0.5562 C.3     1  UNK1        0.1084
      9 C          -1.0462   -2.0382    1.9031 C.3     1  UNK1        0.0228
     10 S          -1.8047   -3.6327    1.9027 S.3     1  UNK1       -0.1308
     11 C          -3.4191   -3.6959    1.1786 C.3     1  UNK1        0.0899
     12 O          -4.0627   -4.9410    1.4629 O.3     1  UNK1       -0.3845
     13 C          -2.0316   -1.0992   -0.1543 C.2     1  UNK1        0.2346
     14 O          -3.1842   -1.3313   -0.6822 O.2     1  UNK1       -0.2737
     15 N          -2.2323    0.3062   -0.5090 N.am    2  GLY2       -0.3033
     16 CA         -3.4390    0.7726   -1.1915 C.3     2  GLY2        0.1089
     17 C          -3.3856    2.2299   -1.4278 C.2     2  GLY2        0.3221
     18 O          -2.7978    3.4837   -1.3619 O.3     2  GLY2       -0.4795
     19 OXT        -4.4684    2.5521   -2.0246 O.2     2  GLY2       -0.2492
     20 C           5.1685    1.2730   -0.8450 C.2     1  UNK1        0.3217
     21 O           5.3170    1.2761   -2.2048 O.3     1  UNK1       -0.4795
     22 O           6.2016    1.5857   -0.1811 O.2     1  UNK1       -0.2493
     23 H           4.1733    2.0308    1.6555 H       1  UNK1        0.1190
     24 H           5.0317    0.5246    1.5686 H       1  UNK1        0.1190
     25 H           3.5963   -0.0854   -0.3198 H       1  UNK1        0.0574
     26 H           2.6003    1.7097   -1.5299 H       1  UNK1        0.0290
     27 H           3.0919    2.9474   -0.3168 H       1  UNK1        0.0290
     28 H           1.7617    1.5884    1.3940 H       1  UNK1        0.0359
     29 H           0.7656    2.2185    0.0782 H       1  UNK1        0.0359
     30 H          -0.5643    0.3734    1.3637 H       1  UNK1        0.1495
     31 H          -0.1991   -2.1391   -0.1358 H       1  UNK1        0.0603
     32 H          -0.1670   -1.9647    2.6055 H       1  UNK1        0.0400
     33 H          -1.7917   -1.3272    2.4104 H       1  UNK1        0.0400
     34 H          -3.3724   -3.7667    0.0352 H       1  UNK1        0.0673
     35 H          -4.1136   -2.8979    1.4154 H       1  UNK1        0.0673
     36 H          -3.6153   -5.6709    0.9594 H       1  UNK1        0.2105
     37 H          -1.5078    1.0769   -0.2905 H       2  GLY2        0.1493
     38 HA1        -3.4664    0.2441   -2.1777 H       2  GLY2        0.0577
     39 HA2        -4.3144    0.5411   -0.5528 H       2  GLY2        0.0577
     40 H          -3.1414    4.2032   -0.7186 H       2  GLY2        0.2951
     41 H           6.0873    0.7513   -2.6370 H       1  UNK1        0.2951
@<TRIPOS>BOND
     1     1     2    1
     2     2     3    1
     3     3     4    1
     4     4     5    1
     5     5     6    2
     6     5     7   am
     7     7     8    1
     8     8     9    1
     9     9    10    1
    10    10    11    1
    11    11    12    1
    12     8    13    1
    13    13    14    2
    14    13    15   am
    15    15    16    1
    16    16    17    1
    17    17    18    1
    18    17    19    2
    19     2    20    1
    20    20    21    1
    21    20    22    2
    22     1    23    1
    23     1    24    1
    24     2    25    1
    25     3    26    1
    26     3    27    1
    27     4    28    1
    28     4    29    1
    29     7    30    1
    30     8    31    1
    31     9    32    1
    32     9    33    1
    33    11    34    1
    34    11    35    1
    35    12    36    1
    36    15    37    1
    37    16    38    1
    38    16    39    1
    39    18    40    1
    40    21    41    1
