@<TRIPOS>MOLECULE
*****
 54 58 0 0 0
SMALL
GASTEIGER

@<TRIPOS>ATOM
      1 C          -6.8964   -0.0144   -1.3338 C.3     1  UNL1        0.0707
      2 S          -5.7559    0.6317   -0.1278 S.O2    1  UNL1        0.0296
      3 O          -5.6825   -0.4146    0.9775 O.2     1  UNL1       -0.1583
      4 O          -6.2530    1.9002    0.4490 O.2     1  UNL1       -0.1583
      5 N          -4.1924    0.7628   -0.8005 N.3     1  UNL1       -0.1697
      6 C          -3.6126   -0.4427   -1.2274 C.3     1  UNL1        0.0476
      7 C          -2.8225   -0.9984   -0.0616 C.ar    1  UNL1       -0.0064
      8 C          -3.1960   -2.2008    0.4066 C.ar    1  UNL1       -0.0370
      9 C          -2.5372   -2.7176    1.5291 C.ar    1  UNL1        0.0414
     10 CL         -2.9892   -4.2707    2.1647 Cl      1  UNL1       -0.0835
     11 C          -1.5147   -1.9933    2.1465 C.ar    1  UNL1       -0.0414
     12 C          -1.1227   -0.7391    1.6617 C.ar    1  UNL1       -0.0361
     13 C          -1.8042   -0.3067    0.5687 C.ar    1  UNL1        0.0540
     14 N          -1.2909    0.9625    0.1293 N.ar    1  UNL1       -0.2814
     15 C          -2.0619    1.9686   -0.3765 C.ar    1  UNL1        0.1538
     16 N          -1.2108    2.9641   -0.6487 N.ar    1  UNL1       -0.1326
     17 N          -0.0003    2.5703   -0.3254 N.ar    1  UNL1       -0.1337
     18 C          -0.0049    1.2760    0.1813 C.ar    1  UNL1        0.1412
     19 C           1.1362    0.4781    0.5864 C.3     1  UNL1        0.0223
     20 C           1.3168   -0.9328    0.1402 C.3     1  UNL1       -0.0274
     21 C           2.7070   -1.1309   -0.5180 C.3     1  UNL1        0.0141
     22 N           3.5959   -0.2911    0.2705 N.pl3   1  UNL1       -0.3151
     23 C           4.8432    0.0204   -0.3610 C.ar    1  UNL1        0.1212
     24 C           5.2155   -0.4616   -1.5908 C.ar    1  UNL1       -0.0217
     25 C           6.4396   -0.1175   -2.1458 C.ar    1  UNL1       -0.0571
     26 C           7.2970    0.7178   -1.4597 C.ar    1  UNL1       -0.0435
     27 C           6.8884    1.1822   -0.2268 C.ar    1  UNL1        0.0297
     28 N           5.7042    0.8402    0.2936 N.ar    1  UNL1       -0.2403
     29 C           3.3163    0.2101    1.5687 C.3     1  UNL1        0.0141
     30 C           1.9874    0.9230    1.7341 C.3     1  UNL1       -0.0274
     31 C          -3.5189    1.9538   -0.6167 C.3     1  UNL1        0.0807
     32 H          -6.9247    0.6220   -2.2513 H       1  UNL1        0.0479
     33 H          -6.5922   -1.0201   -1.6550 H       1  UNL1        0.0479
     34 H          -7.9221   -0.0413   -0.9062 H       1  UNL1        0.0479
     35 H          -4.3844   -1.1490   -1.5279 H       1  UNL1        0.0494
     36 H          -2.8703   -0.2170   -2.0422 H       1  UNL1        0.0494
     37 H          -3.9827   -2.7326   -0.0849 H       1  UNL1        0.0636
     38 H          -0.9834   -2.3571    3.0141 H       1  UNL1        0.0633
     39 H          -0.3993   -0.1725    2.1630 H       1  UNL1        0.0639
     40 H           1.8877    0.9434   -0.1992 H       1  UNL1        0.0381
     41 H           0.5355   -1.2161   -0.5820 H       1  UNL1        0.0287
     42 H           1.4446   -1.6801    0.9812 H       1  UNL1        0.0287
     43 H           2.9975   -2.1700   -0.5703 H       1  UNL1        0.0464
     44 H           2.6440   -0.6211   -1.5248 H       1  UNL1        0.0464
     45 H           4.5210   -1.1171   -2.1053 H       1  UNL1        0.0652
     46 H           6.6934   -0.5199   -3.1177 H       1  UNL1        0.0619
     47 H           8.2522    0.9779   -1.9080 H       1  UNL1        0.0633
     48 H           7.5427    1.8428    0.3389 H       1  UNL1        0.0830
     49 H           4.0882    0.9830    1.8199 H       1  UNL1        0.0464
     50 H           3.4550   -0.5722    2.3558 H       1  UNL1        0.0464
     51 H           2.0954    2.0451    1.6792 H       1  UNL1        0.0287
     52 H           1.6596    0.7197    2.7404 H       1  UNL1        0.0287
     53 H          -3.9576    2.4552    0.3117 H       1  UNL1        0.0525
     54 H          -3.7805    2.6679   -1.4438 H       1  UNL1        0.0525
@<TRIPOS>BOND
     1     1     2    1
     2     2     3    2
     3     2     4    2
     4     2     5    1
     5     5     6    1
     6     6     7    1
     7     7     8   ar
     8     8     9   ar
     9     9    10    1
    10     9    11   ar
    11    11    12   ar
    12    12    13   ar
    13    13    14    1
    14    14    15   ar
    15    15    16   ar
    16    16    17   ar
    17    17    18   ar
    18    18    19    1
    19    19    20    1
    20    20    21    1
    21    21    22    1
    22    22    23    1
    23    23    24   ar
    24    24    25   ar
    25    25    26   ar
    26    26    27   ar
    27    27    28   ar
    28    22    29    1
    29    29    30    1
    30    15    31    1
    31    31     5    1
    32    13     7   ar
    33    18    14   ar
    34    30    19    1
    35    28    23   ar
    36     1    32    1
    37     1    33    1
    38     1    34    1
    39     6    35    1
    40     6    36    1
    41     8    37    1
    42    11    38    1
    43    12    39    1
    44    19    40    1
    45    20    41    1
    46    20    42    1
    47    21    43    1
    48    21    44    1
    49    24    45    1
    50    25    46    1
    51    26    47    1
    52    27    48    1
    53    29    49    1
    54    29    50    1
    55    30    51    1
    56    30    52    1
    57    31    53    1
    58    31    54    1
