
     RDKit          3D

 54 58  0  0  0  0  0  0  0  0999 V2000
   -6.8964   -0.0144   -1.3338 C   0  0  0  0  0  0  0  0  0  0  0  0
   -5.7559    0.6317   -0.1278 S   0  0  0  0  0  6  0  0  0  0  0  0
   -5.6825   -0.4146    0.9775 O   0  0  0  0  0  0  0  0  0  0  0  0
   -6.2530    1.9002    0.4490 O   0  0  0  0  0  0  0  0  0  0  0  0
   -4.1924    0.7628   -0.8005 N   0  0  0  0  0  0  0  0  0  0  0  0
   -3.6126   -0.4427   -1.2274 C   0  0  0  0  0  0  0  0  0  0  0  0
   -2.8225   -0.9984   -0.0616 C   0  0  0  0  0  0  0  0  0  0  0  0
   -3.1960   -2.2008    0.4066 C   0  0  0  0  0  0  0  0  0  0  0  0
   -2.5372   -2.7176    1.5291 C   0  0  0  0  0  0  0  0  0  0  0  0
   -2.9892   -4.2707    2.1647 Cl  0  0  0  0  0  0  0  0  0  0  0  0
   -1.5147   -1.9933    2.1465 C   0  0  0  0  0  0  0  0  0  0  0  0
   -1.1227   -0.7391    1.6617 C   0  0  0  0  0  0  0  0  0  0  0  0
   -1.8042   -0.3067    0.5687 C   0  0  0  0  0  0  0  0  0  0  0  0
   -1.2909    0.9625    0.1293 N   0  0  0  0  0  0  0  0  0  0  0  0
   -2.0619    1.9686   -0.3765 C   0  0  0  0  0  0  0  0  0  0  0  0
   -1.2108    2.9641   -0.6487 N   0  0  0  0  0  0  0  0  0  0  0  0
   -0.0003    2.5703   -0.3254 N   0  0  0  0  0  0  0  0  0  0  0  0
   -0.0049    1.2760    0.1813 C   0  0  0  0  0  0  0  0  0  0  0  0
    1.1362    0.4781    0.5864 C   0  0  0  0  0  0  0  0  0  0  0  0
    1.3168   -0.9328    0.1402 C   0  0  0  0  0  0  0  0  0  0  0  0
    2.7070   -1.1309   -0.5180 C   0  0  0  0  0  0  0  0  0  0  0  0
    3.5959   -0.2911    0.2705 N   0  0  0  0  0  0  0  0  0  0  0  0
    4.8432    0.0204   -0.3610 C   0  0  0  0  0  0  0  0  0  0  0  0
    5.2155   -0.4616   -1.5908 C   0  0  0  0  0  0  0  0  0  0  0  0
    6.4396   -0.1175   -2.1458 C   0  0  0  0  0  0  0  0  0  0  0  0
    7.2970    0.7178   -1.4597 C   0  0  0  0  0  0  0  0  0  0  0  0
    6.8884    1.1822   -0.2268 C   0  0  0  0  0  0  0  0  0  0  0  0
    5.7042    0.8402    0.2936 N   0  0  0  0  0  0  0  0  0  0  0  0
    3.3163    0.2101    1.5687 C   0  0  0  0  0  0  0  0  0  0  0  0
    1.9874    0.9230    1.7341 C   0  0  0  0  0  0  0  0  0  0  0  0
   -3.5189    1.9538   -0.6167 C   0  0  0  0  0  0  0  0  0  0  0  0
   -6.9247    0.6220   -2.2513 H   0  0  0  0  0  0  0  0  0  0  0  0
   -6.5922   -1.0201   -1.6550 H   0  0  0  0  0  0  0  0  0  0  0  0
   -7.9221   -0.0413   -0.9062 H   0  0  0  0  0  0  0  0  0  0  0  0
   -4.3844   -1.1490   -1.5279 H   0  0  0  0  0  0  0  0  0  0  0  0
   -2.8703   -0.2170   -2.0422 H   0  0  0  0  0  0  0  0  0  0  0  0
   -3.9827   -2.7326   -0.0849 H   0  0  0  0  0  0  0  0  0  0  0  0
   -0.9834   -2.3571    3.0141 H   0  0  0  0  0  0  0  0  0  0  0  0
   -0.3993   -0.1725    2.1630 H   0  0  0  0  0  0  0  0  0  0  0  0
    1.8877    0.9434   -0.1992 H   0  0  0  0  0  0  0  0  0  0  0  0
    0.5355   -1.2161   -0.5820 H   0  0  0  0  0  0  0  0  0  0  0  0
    1.4446   -1.6801    0.9812 H   0  0  0  0  0  0  0  0  0  0  0  0
    2.9975   -2.1700   -0.5703 H   0  0  0  0  0  0  0  0  0  0  0  0
    2.6440   -0.6211   -1.5248 H   0  0  0  0  0  0  0  0  0  0  0  0
    4.5210   -1.1171   -2.1053 H   0  0  0  0  0  0  0  0  0  0  0  0
    6.6934   -0.5199   -3.1177 H   0  0  0  0  0  0  0  0  0  0  0  0
    8.2522    0.9779   -1.9080 H   0  0  0  0  0  0  0  0  0  0  0  0
    7.5427    1.8428    0.3389 H   0  0  0  0  0  0  0  0  0  0  0  0
    4.0882    0.9830    1.8199 H   0  0  0  0  0  0  0  0  0  0  0  0
    3.4550   -0.5722    2.3558 H   0  0  0  0  0  0  0  0  0  0  0  0
    2.0954    2.0451    1.6792 H   0  0  0  0  0  0  0  0  0  0  0  0
    1.6596    0.7197    2.7404 H   0  0  0  0  0  0  0  0  0  0  0  0
   -3.9576    2.4552    0.3117 H   0  0  0  0  0  0  0  0  0  0  0  0
   -3.7805    2.6679   -1.4438 H   0  0  0  0  0  0  0  0  0  0  0  0
  1  2  1  0
  2  3  2  0
  2  4  2  0
  2  5  1  0
  5  6  1  0
  6  7  1  0
  7  8  2  0
  8  9  1  0
  9 10  1  0
  9 11  2  0
 11 12  1  0
 12 13  2  0
 13 14  1  0
 14 15  1  0
 15 16  2  0
 16 17  1  0
 17 18  2  0
 18 19  1  0
 19 20  1  0
 20 21  1  0
 21 22  1  0
 22 23  1  0
 23 24  2  0
 24 25  1  0
 25 26  2  0
 26 27  1  0
 27 28  2  0
 22 29  1  0
 29 30  1  0
 15 31  1  0
 31  5  1  0
 13  7  1  0
 18 14  1  0
 30 19  1  0
 28 23  1  0
  1 32  1  0
  1 33  1  0
  1 34  1  0
  6 35  1  0
  6 36  1  0
  8 37  1  0
 11 38  1  0
 12 39  1  0
 19 40  1  0
 20 41  1  0
 20 42  1  0
 21 43  1  0
 21 44  1  0
 24 45  1  0
 25 46  1  0
 26 47  1  0
 27 48  1  0
 29 49  1  0
 29 50  1  0
 30 51  1  0
 30 52  1  0
 31 53  1  0
 31 54  1  0
M  END
$$$$
