@<TRIPOS>MOLECULE
*****
 33 34 0 0 0
SMALL
GASTEIGER

@<TRIPOS>ATOM
      1 C          -3.9505   -0.4942   -0.0583 C.3     1  UNL1       -0.0457
      2 C          -2.9791    0.1409    0.9045 C.3     1  UNL1        0.0319
      3 C          -1.9529   -0.8799    1.3347 C.3     1  UNL1       -0.0153
      4 C          -0.6542   -0.3821    0.6960 C.3     1  UNL1        0.0469
      5 N          -0.5399   -0.8489   -0.6521 N.3     1  UNL1       -0.1853
      6 S           0.9737   -1.6627   -0.8319 S.O2    1  UNL1        0.0598
      7 O           1.0309   -2.2111   -2.2337 O.2     1  UNL1       -0.1530
      8 O           1.0523   -2.8097    0.1470 O.2     1  UNL1       -0.1530
      9 C           2.2837   -0.5624   -0.5236 C.ar    1  UNL1        0.1202
     10 C           3.1905   -0.8086    0.4983 C.ar    1  UNL1       -0.0203
     11 C           4.2281    0.0768    0.7313 C.ar    1  UNL1        0.0198
     12 BR          5.4718   -0.2619    2.1336 Br      1  UNL1       -0.0502
     13 C           4.3478    1.1937   -0.0556 C.ar    1  UNL1       -0.0466
     14 C           3.4582    1.4491   -1.0691 C.ar    1  UNL1       -0.0448
     15 C           2.4280    0.5619   -1.2941 C.ar    1  UNL1        0.0442
     16 BR          1.1617    0.8716   -2.6935 Br      1  UNL1       -0.0483
     17 C          -0.8913    1.1105    0.6931 C.3     1  UNL1        0.0392
     18 N          -2.2528    1.2098    0.2449 N.pl3   1  UNL1       -0.2651
     19 C          -2.7885    2.1362   -0.6423 C.1     1  UNL1        0.1693
     20 N          -3.2241    2.8997   -1.3964 N.1     1  UNL1       -0.1741
     21 H          -3.9162   -1.6044    0.0607 H       1  UNL1        0.0248
     22 H          -4.9813   -0.1647    0.2089 H       1  UNL1        0.0248
     23 H          -3.7279   -0.2822   -1.1150 H       1  UNL1        0.0248
     24 H          -3.4722    0.5554    1.8077 H       1  UNL1        0.0505
     25 H          -1.7908   -0.8286    2.4365 H       1  UNL1        0.0299
     26 H          -2.1952   -1.8986    1.0090 H       1  UNL1        0.0299
     27 H           0.2289   -0.6421    1.2984 H       1  UNL1        0.0493
     28 H          -1.3193   -1.5112   -0.8561 H       1  UNL1        0.1484
     29 H           3.1206   -1.6745    1.1291 H       1  UNL1        0.0648
     30 H           5.1484    1.8915    0.1126 H       1  UNL1        0.0629
     31 H           3.5187    2.3167   -1.7099 H       1  UNL1        0.0629
     32 H          -0.1753    1.6620    0.0566 H       1  UNL1        0.0487
     33 H          -0.8317    1.4518    1.7609 H       1  UNL1        0.0487
@<TRIPOS>BOND
     1     1     2    1
     2     2     3    1
     3     3     4    1
     4     4     5    1
     5     5     6    1
     6     6     7    2
     7     6     8    2
     8     6     9    1
     9     9    10   ar
    10    10    11   ar
    11    11    12    1
    12    11    13   ar
    13    13    14   ar
    14    14    15   ar
    15    15    16    1
    16     4    17    1
    17    17    18    1
    18    18    19    1
    19    19    20    3
    20    18     2    1
    21    15     9   ar
    22     1    21    1
    23     1    22    1
    24     1    23    1
    25     2    24    1
    26     3    25    1
    27     3    26    1
    28     4    27    1
    29     5    28    1
    30    10    29    1
    31    13    30    1
    32    14    31    1
    33    17    32    1
    34    17    33    1
