@<TRIPOS>MOLECULE
*****
 42 45 0 0 0
SMALL
GASTEIGER

@<TRIPOS>ATOM
      1 C          -3.0939   -2.3906   -0.7935 C.3     1  UNL1       -0.0379
      2 C          -3.6884   -1.1295   -0.2638 C.ar    1  UNL1       -0.0290
      3 C          -4.8671   -1.0376    0.4677 C.ar    1  UNL1       -0.0571
      4 C          -5.3265    0.1826    0.9095 C.ar    1  UNL1       -0.0611
      5 C          -4.6363    1.3511    0.6428 C.ar    1  UNL1       -0.0571
      6 C          -3.4503    1.2720   -0.0915 C.ar    1  UNL1       -0.0290
      7 C          -2.7599    2.5599   -0.3425 C.3     1  UNL1       -0.0379
      8 C          -2.9699    0.0380   -0.5479 C.ar    1  UNL1        0.0383
      9 N          -1.7740    0.1192   -1.2674 N.pl3   1  UNL1       -0.2973
     10 C          -0.4207    0.0659   -0.9151 C.ar    1  UNL1        0.1486
     11 N           0.5107    0.1773   -1.8770 N.ar    1  UNL1       -0.2359
     12 C           1.8137    0.1270   -1.5455 C.ar    1  UNL1        0.0542
     13 C           2.2357   -0.0364   -0.2421 C.ar    1  UNL1        0.0733
     14 N           1.2767   -0.1444    0.6945 N.ar    1  UNL1       -0.2941
     15 C           1.4702   -0.3074    2.0157 C.ar    1  UNL1        0.1010
     16 N           0.2295   -0.3655    2.5650 N.ar    1  UNL1       -0.2430
     17 C          -0.6931   -0.2391    1.5882 C.ar    1  UNL1        0.0565
     18 C          -0.0279   -0.0981    0.3958 C.ar    1  UNL1        0.1063
     19 C           3.6710   -0.0668   -0.0762 C.ar    1  UNL1        0.0003
     20 C           4.3899    0.9144   -0.7693 C.ar    1  UNL1       -0.0526
     21 C           5.7703    1.0082   -0.7070 C.ar    1  UNL1       -0.0611
     22 C           6.4789    0.1235    0.0509 C.ar    1  UNL1       -0.0617
     23 C           5.7960   -0.8537    0.7444 C.ar    1  UNL1       -0.0611
     24 C           4.4285   -0.9419    0.6790 C.ar    1  UNL1       -0.0526
     25 H          -2.7379   -2.2699   -1.8403 H       1  UNL1        0.0278
     26 H          -2.2250   -2.6435   -0.1279 H       1  UNL1        0.0278
     27 H          -3.8387   -3.2044   -0.8060 H       1  UNL1        0.0278
     28 H          -5.3781   -1.9741    0.6557 H       1  UNL1        0.0621
     29 H          -6.2616    0.2221    1.4854 H       1  UNL1        0.0618
     30 H          -5.0130    2.2943    0.9975 H       1  UNL1        0.0621
     31 H          -2.4299    3.0782    0.5662 H       1  UNL1        0.0278
     32 H          -1.9542    2.3625   -1.0838 H       1  UNL1        0.0278
     33 H          -3.5209    3.2133   -0.8467 H       1  UNL1        0.0278
     34 H          -2.0873    0.2443   -2.2546 H       1  UNL1        0.1536
     35 H           2.5027    0.2259   -2.3911 H       1  UNL1        0.0851
     36 H           2.3831   -0.3798    2.5554 H       1  UNL1        0.1032
     37 H          -1.7581   -0.2458    1.7080 H       1  UNL1        0.0852
     38 H           3.9223    1.6764   -1.4082 H       1  UNL1        0.0624
     39 H           6.3177    1.7696   -1.2459 H       1  UNL1        0.0618
     40 H           7.5673    0.1397    0.1450 H       1  UNL1        0.0618
     41 H           6.2833   -1.6015    1.3741 H       1  UNL1        0.0618
     42 H           3.8654   -1.6872    1.2027 H       1  UNL1        0.0624
@<TRIPOS>BOND
     1     1     2    1
     2     2     3   ar
     3     3     4   ar
     4     4     5   ar
     5     5     6   ar
     6     6     7    1
     7     6     8   ar
     8     8     9    1
     9     9    10    1
    10    10    11   ar
    11    11    12   ar
    12    12    13   ar
    13    13    14   ar
    14    14    15   ar
    15    15    16   ar
    16    16    17   ar
    17    17    18   ar
    18    13    19    1
    19    19    20   ar
    20    20    21   ar
    21    21    22   ar
    22    22    23   ar
    23    23    24   ar
    24     8     2   ar
    25    18    10   ar
    26    24    19   ar
    27    18    14   ar
    28     1    25    1
    29     1    26    1
    30     1    27    1
    31     3    28    1
    32     4    29    1
    33     5    30    1
    34     7    31    1
    35     7    32    1
    36     7    33    1
    37     9    34    1
    38    12    35    1
    39    15    36    1
    40    17    37    1
    41    20    38    1
    42    21    39    1
    43    22    40    1
    44    23    41    1
    45    24    42    1
