@<TRIPOS>MOLECULE
*****
 37 39 0 0 0
SMALL
GASTEIGER

@<TRIPOS>ATOM
      1 C          -1.4638    3.7810    1.0105 C.3     1  UNL1        0.0817
      2 O          -1.5201    2.5931    0.2184 O.3     1  UNL1       -0.4677
      3 C          -0.6880    1.5122    0.4570 C.2     1  UNL1        0.3117
      4 O           0.1336    1.6020    1.4044 O.2     1  UNL1       -0.2505
      5 C          -0.7940    0.3140   -0.3954 C.3     1  UNL1        0.0773
      6 C          -2.2205   -0.2185   -0.2464 C.3     1  UNL1        0.0486
      7 C          -2.2554   -1.1835    0.8894 C.3     1  UNL1       -0.0369
      8 C          -1.7287   -2.4917    0.5407 C.3     1  UNL1       -0.0377
      9 C          -1.2505   -2.5659   -0.8747 C.3     1  UNL1        0.0357
     10 C           0.1090   -1.8773   -1.0343 C.3     1  UNL1       -0.0312
     11 C           0.2073   -0.7416   -0.0570 C.3     1  UNL1       -0.0007
     12 C           1.5698   -0.1440   -0.1242 C.ar    1  UNL1       -0.0419
     13 C           2.0354    0.4099   -1.3116 C.ar    1  UNL1       -0.0555
     14 C           3.2939    0.9698   -1.4002 C.ar    1  UNL1       -0.0247
     15 C           4.1348    0.9963   -0.3018 C.ar    1  UNL1        0.1416
     16 F           5.3589    1.5636   -0.4636 F       1  UNL1       -0.2040
     17 C           3.6928    0.4574    0.8690 C.ar    1  UNL1        0.0763
     18 CL          4.7499    0.4859    2.2653 Cl      1  UNL1       -0.0806
     19 C           2.4320   -0.1018    0.9517 C.ar    1  UNL1       -0.0371
     20 S          -2.4172   -1.3827   -1.6445 S.O     1  UNL1        0.0292
     21 O          -3.8213   -1.9977   -1.5624 O.2     1  UNL1       -0.2566
     22 H          -2.3356    3.7541    1.7043 H       1  UNL1        0.0661
     23 H          -0.5001    3.8574    1.5535 H       1  UNL1        0.0661
     24 H          -1.5849    4.6897    0.3873 H       1  UNL1        0.0661
     25 H          -0.6154    0.6179   -1.4532 H       1  UNL1        0.0431
     26 H          -2.9757    0.5513   -0.2469 H       1  UNL1        0.0445
     27 H          -3.3350   -1.2521    1.2199 H       1  UNL1        0.0277
     28 H          -1.7466   -0.7158    1.7834 H       1  UNL1        0.0277
     29 H          -0.9407   -2.8423    1.2702 H       1  UNL1        0.0277
     30 H          -2.5363   -3.2772    0.6424 H       1  UNL1        0.0277
     31 H          -1.2986   -3.5408   -1.3384 H       1  UNL1        0.0437
     32 H           0.1275   -1.4228   -2.0592 H       1  UNL1        0.0283
     33 H           0.9358   -2.5838   -0.9921 H       1  UNL1        0.0283
     34 H           0.0903   -1.1065    0.9926 H       1  UNL1        0.0357
     35 H           1.4211    0.4148   -2.1948 H       1  UNL1        0.0621
     36 H           3.6285    1.3972   -2.3509 H       1  UNL1        0.0647
     37 H           2.1076   -0.5216    1.8919 H       1  UNL1        0.0636
@<TRIPOS>BOND
     1     1     2    1
     2     2     3    1
     3     3     4    2
     4     3     5    1
     5     5     6    1
     6     6     7    1
     7     7     8    1
     8     8     9    1
     9     9    10    1
    10    10    11    1
    11    11    12    1
    12    12    13   ar
    13    13    14   ar
    14    14    15   ar
    15    15    16    1
    16    15    17   ar
    17    17    18    1
    18    17    19   ar
    19     9    20    1
    20    20    21    2
    21    11     5    1
    22    19    12   ar
    23    20     6    1
    24     1    22    1
    25     1    23    1
    26     1    24    1
    27     5    25    1
    28     6    26    1
    29     7    27    1
    30     7    28    1
    31     8    29    1
    32     8    30    1
    33     9    31    1
    34    10    32    1
    35    10    33    1
    36    11    34    1
    37    13    35    1
    38    14    36    1
    39    19    37    1
