
     RDKit          3D

 92 97  0  0  0  0  0  0  0  0999 V2000
    9.6717   -3.4322   -2.9604 C   0  0  0  0  0  0  0  0  0  0  0  0
    9.3194   -2.6974   -1.8155 O   0  0  0  0  0  0  0  0  0  0  0  0
    8.1784   -1.9104   -1.8500 C   0  0  0  0  0  0  0  0  0  0  0  0
    7.4114   -1.8593   -2.9932 C   0  0  0  0  0  0  0  0  0  0  0  0
    6.2841   -1.0683   -2.9965 C   0  0  0  0  0  0  0  0  0  0  0  0
    5.8878   -0.3212   -1.8990 C   0  0  0  0  0  0  0  0  0  0  0  0
    6.6572   -0.3761   -0.7608 C   0  0  0  0  0  0  0  0  0  0  0  0
    7.7881   -1.1646   -0.7447 C   0  0  0  0  0  0  0  0  0  0  0  0
    8.3964   -1.0511    0.5267 O   0  0  0  0  0  0  0  0  0  0  0  0
    7.3386   -0.7060    1.4433 C   0  0  1  0  0  0  0  0  0  0  0  0
    7.8644   -0.0655    2.6945 C   0  0  0  0  0  0  0  0  0  0  0  0
    8.9697    0.8901    2.3000 C   0  0  1  0  0  0  0  0  0  0  0  0
    9.9990    0.1097    1.7301 O   0  0  0  0  0  0  0  0  0  0  0  0
    8.3833    1.8179    1.2976 C   0  0  0  0  0  0  0  0  0  0  0  0
    7.3294    1.5439    0.5375 C   0  0  0  0  0  0  0  0  0  0  0  0
    6.5729    0.2636    0.5732 C   0  0  1  0  0  0  0  0  0  0  0  0
    5.1469    0.4256    1.0422 C   0  0  0  0  0  0  0  0  0  0  0  0
    4.1568   -0.1443    0.0564 C   0  0  0  0  0  0  0  0  0  0  0  0
    3.9049    0.6790   -1.0622 N   0  0  0  0  0  0  0  0  0  0  0  0
    3.7591    2.0691   -0.8038 C   0  0  0  0  0  0  0  0  0  0  0  0
    2.4775    2.3328   -0.0233 C   0  0  0  0  0  0  0  0  0  0  0  0
    1.3343    1.8454   -0.8776 C   0  0  0  0  0  0  0  0  0  0  0  0
    0.0030    2.0789   -0.2216 C   0  0  0  0  0  0  0  0  0  0  0  0
   -0.0618    1.3448    1.0782 C   0  0  0  0  0  0  0  0  0  0  0  0
   -1.3967    1.5601    1.7644 C   0  0  0  0  0  0  0  0  0  0  0  0
   -2.5751    1.0918    0.9528 C   0  0  0  0  0  0  0  0  0  0  0  0
   -2.5148   -0.3677    0.6430 C   0  0  0  0  0  0  0  0  0  0  0  0
   -3.5669   -0.8407   -0.0837 O   0  0  0  0  0  0  0  0  0  0  0  0
   -4.9006   -0.9181    0.2438 C   0  0  0  0  0  0  0  0  0  0  0  0
   -5.4539   -0.5399    1.4468 C   0  0  0  0  0  0  0  0  0  0  0  0
   -6.8283   -0.6520    1.6850 C   0  0  0  0  0  0  0  0  0  0  0  0
   -7.6904   -1.1456    0.7307 C   0  0  0  0  0  0  0  0  0  0  0  0
   -9.1229   -1.2341    1.0461 C   0  0  0  0  0  0  0  0  0  0  0  0
   -9.8824   -0.0742    0.7104 N   0  0  0  0  0  0  0  0  0  0  0  0
   -9.8857    0.2712   -0.6742 C   0  0  0  0  0  0  0  0  0  0  0  0
  -10.6975   -0.6537   -1.5363 C   0  0  0  0  0  0  0  0  0  0  0  0
  -12.0824   -0.7995   -0.9976 C   0  0  0  0  0  0  0  0  0  0  0  0
  -12.2725    0.1108    0.1900 C   0  0  0  0  0  0  0  0  0  0  0  0
  -11.2132   -0.1989    1.2141 C   0  0  0  0  0  0  0  0  0  0  0  0
   -7.1551   -1.5303   -0.4794 C   0  0  0  0  0  0  0  0  0  0  0  0
   -5.8112   -1.4184   -0.7078 C   0  0  0  0  0  0  0  0  0  0  0  0
    4.6504    0.4119   -2.2499 C   0  0  0  0  0  0  0  0  0  0  0  0
    9.9439   -2.7493   -3.8112 H   0  0  0  0  0  0  0  0  0  0  0  0
   10.5587   -4.0473   -2.7181 H   0  0  0  0  0  0  0  0  0  0  0  0
    8.8637   -4.1407   -3.2802 H   0  0  0  0  0  0  0  0  0  0  0  0
    7.6494   -2.4093   -3.8909 H   0  0  0  0  0  0  0  0  0  0  0  0
    5.6572   -1.0105   -3.8912 H   0  0  0  0  0  0  0  0  0  0  0  0
    6.7618   -1.6353    1.6388 H   0  0  0  0  0  0  0  0  0  0  0  0
    7.0127    0.5307    3.1277 H   0  0  0  0  0  0  0  0  0  0  0  0
    8.2132   -0.8239    3.4130 H   0  0  0  0  0  0  0  0  0  0  0  0
    9.3449    1.4465    3.1970 H   0  0  0  0  0  0  0  0  0  0  0  0
   10.0808   -0.7701    2.1640 H   0  0  0  0  0  0  0  0  0  0  0  0
    8.8631    2.7954    1.1861 H   0  0  0  0  0  0  0  0  0  0  0  0
    6.9830    2.3135   -0.1768 H   0  0  0  0  0  0  0  0  0  0  0  0
    5.0459   -0.1670    1.9756 H   0  0  0  0  0  0  0  0  0  0  0  0
    4.9142    1.4746    1.3147 H   0  0  0  0  0  0  0  0  0  0  0  0
    4.5169   -1.1356   -0.2333 H   0  0  0  0  0  0  0  0  0  0  0  0
    3.1927   -0.2873    0.6216 H   0  0  0  0  0  0  0  0  0  0  0  0
    3.5861    2.5662   -1.8057 H   0  0  0  0  0  0  0  0  0  0  0  0
    4.6201    2.5819   -0.3702 H   0  0  0  0  0  0  0  0  0  0  0  0
    2.3447    3.4078    0.1599 H   0  0  0  0  0  0  0  0  0  0  0  0
    2.4770    1.7648    0.9307 H   0  0  0  0  0  0  0  0  0  0  0  0
    1.4919    0.7654   -1.1199 H   0  0  0  0  0  0  0  0  0  0  0  0
    1.3561    2.3433   -1.8930 H   0  0  0  0  0  0  0  0  0  0  0  0
   -0.1808    3.1767   -0.0808 H   0  0  0  0  0  0  0  0  0  0  0  0
   -0.7835    1.7620   -0.9395 H   0  0  0  0  0  0  0  0  0  0  0  0
    0.6851    1.8207    1.7705 H   0  0  0  0  0  0  0  0  0  0  0  0
    0.2279    0.2909    1.0047 H   0  0  0  0  0  0  0  0  0  0  0  0
   -1.4397    1.0544    2.7323 H   0  0  0  0  0  0  0  0  0  0  0  0
   -1.5064    2.6658    1.9004 H   0  0  0  0  0  0  0  0  0  0  0  0
   -3.4719    1.4626    1.4551 H   0  0  0  0  0  0  0  0  0  0  0  0
   -2.5903    1.6134   -0.0550 H   0  0  0  0  0  0  0  0  0  0  0  0
   -1.5779   -0.5021    0.0126 H   0  0  0  0  0  0  0  0  0  0  0  0
   -2.3672   -0.9914    1.5627 H   0  0  0  0  0  0  0  0  0  0  0  0
   -4.8021   -0.1654    2.2400 H   0  0  0  0  0  0  0  0  0  0  0  0
   -7.1919   -0.3347    2.6526 H   0  0  0  0  0  0  0  0  0  0  0  0
   -9.5667   -2.1094    0.5274 H   0  0  0  0  0  0  0  0  0  0  0  0
   -9.2133   -1.3662    2.1617 H   0  0  0  0  0  0  0  0  0  0  0  0
   -8.8804    0.3549   -1.1199 H   0  0  0  0  0  0  0  0  0  0  0  0
  -10.3605    1.2859   -0.7691 H   0  0  0  0  0  0  0  0  0  0  0  0
  -10.1759   -1.6187   -1.6986 H   0  0  0  0  0  0  0  0  0  0  0  0
  -10.7922   -0.1602   -2.5481 H   0  0  0  0  0  0  0  0  0  0  0  0
  -12.8598   -0.6718   -1.7687 H   0  0  0  0  0  0  0  0  0  0  0  0
  -12.2158   -1.8482   -0.6069 H   0  0  0  0  0  0  0  0  0  0  0  0
  -13.2621   -0.1698    0.6516 H   0  0  0  0  0  0  0  0  0  0  0  0
  -12.3425    1.1716   -0.0562 H   0  0  0  0  0  0  0  0  0  0  0  0
  -11.3960    0.4913    2.0888 H   0  0  0  0  0  0  0  0  0  0  0  0
  -11.4457   -1.2147    1.6203 H   0  0  0  0  0  0  0  0  0  0  0  0
   -7.8397   -1.9278   -1.2493 H   0  0  0  0  0  0  0  0  0  0  0  0
   -5.3838   -1.7212   -1.6617 H   0  0  0  0  0  0  0  0  0  0  0  0
    3.9955   -0.2187   -2.9095 H   0  0  0  0  0  0  0  0  0  0  0  0
    4.8862    1.3794   -2.7434 H   0  0  0  0  0  0  0  0  0  0  0  0
  1  2  1  0
  2  3  1  0
  3  4  2  0
  4  5  1  0
  5  6  2  0
  6  7  1  0
  7  8  2  0
  8  9  1  0
  9 10  1  0
 10 11  1  0
 11 12  1  0
 12 13  1  0
 12 14  1  0
 14 15  2  0
 15 16  1  0
 16 17  1  1
 17 18  1  0
 18 19  1  0
 19 20  1  0
 20 21  1  0
 21 22  1  0
 22 23  1  0
 23 24  1  0
 24 25  1  0
 25 26  1  0
 26 27  1  0
 27 28  1  0
 28 29  1  0
 29 30  2  0
 30 31  1  0
 31 32  2  0
 32 33  1  0
 33 34  1  0
 34 35  1  0
 35 36  1  0
 36 37  1  0
 37 38  1  0
 38 39  1  0
 32 40  1  0
 40 41  2  0
 19 42  1  0
  8  3  1  0
 16 10  1  0
 41 29  1  0
 42  6  1  0
 16  7  1  0
 39 34  1  0
  1 43  1  0
  1 44  1  0
  1 45  1  0
  4 46  1  0
  5 47  1  0
 10 48  1  1
 11 49  1  0
 11 50  1  0
 12 51  1  1
 13 52  1  0
 14 53  1  0
 15 54  1  0
 17 55  1  0
 17 56  1  0
 18 57  1  0
 18 58  1  0
 20 59  1  0
 20 60  1  0
 21 61  1  0
 21 62  1  0
 22 63  1  0
 22 64  1  0
 23 65  1  0
 23 66  1  0
 24 67  1  0
 24 68  1  0
 25 69  1  0
 25 70  1  0
 26 71  1  0
 26 72  1  0
 27 73  1  0
 27 74  1  0
 30 75  1  0
 31 76  1  0
 33 77  1  0
 33 78  1  0
 35 79  1  0
 35 80  1  0
 36 81  1  0
 36 82  1  0
 37 83  1  0
 37 84  1  0
 38 85  1  0
 38 86  1  0
 39 87  1  0
 39 88  1  0
 40 89  1  0
 41 90  1  0
 42 91  1  0
 42 92  1  0
M  END
$$$$
