@<TRIPOS>MOLECULE
*****
 92 97 0 0 0
SMALL
GASTEIGER

@<TRIPOS>ATOM
      1 C           9.6717   -3.4322   -2.9604 C.3     1  UNL1        0.0790
      2 O           9.3194   -2.6974   -1.8155 O.3     1  UNL1       -0.4914
      3 C           8.1784   -1.9104   -1.8500 C.ar    1  UNL1        0.1618
      4 C           7.4114   -1.8593   -2.9932 C.ar    1  UNL1       -0.0160
      5 C           6.2841   -1.0683   -2.9965 C.ar    1  UNL1       -0.0534
      6 C           5.8878   -0.3212   -1.8990 C.ar    1  UNL1       -0.0255
      7 C           6.6572   -0.3761   -0.7608 C.ar    1  UNL1        0.0158
      8 C           7.7881   -1.1646   -0.7447 C.ar    1  UNL1        0.1667
      9 O           8.3964   -1.0511    0.5267 O.3     1  UNL1       -0.4836
     10 C           7.3386   -0.7060    1.4433 C.3     1  UNL1        0.1161
     11 C           7.8644   -0.0655    2.6945 C.3     1  UNL1        0.0151
     12 C           8.9697    0.8901    2.3000 C.3     1  UNL1        0.0768
     13 O           9.9990    0.1097    1.7301 O.3     1  UNL1       -0.3876
     14 C           8.3833    1.8179    1.2976 C.2     1  UNL1       -0.0588
     15 C           7.3294    1.5439    0.5375 C.2     1  UNL1       -0.0715
     16 C           6.5729    0.2636    0.5732 C.3     1  UNL1        0.0558
     17 C           5.1469    0.4256    1.0422 C.3     1  UNL1       -0.0235
     18 C           4.1568   -0.1443    0.0564 C.3     1  UNL1        0.0004
     19 N           3.9049    0.6790   -1.0622 N.3     1  UNL1       -0.2981
     20 C           3.7591    2.0691   -0.8038 C.3     1  UNL1       -0.0008
     21 C           2.4775    2.3328   -0.0233 C.3     1  UNL1       -0.0402
     22 C           1.3343    1.8454   -0.8776 C.3     1  UNL1       -0.0519
     23 C           0.0030    2.0789   -0.2216 C.3     1  UNL1       -0.0530
     24 C          -0.0618    1.3448    1.0782 C.3     1  UNL1       -0.0530
     25 C          -1.3967    1.5601    1.7644 C.3     1  UNL1       -0.0500
     26 C          -2.5751    1.0918    0.9528 C.3     1  UNL1       -0.0186
     27 C          -2.5148   -0.3677    0.6430 C.3     1  UNL1        0.0896
     28 O          -3.5669   -0.8407   -0.0837 O.3     1  UNL1       -0.4920
     29 C          -4.9006   -0.9181    0.2438 C.ar    1  UNL1        0.1205
     30 C          -5.4539   -0.5399    1.4468 C.ar    1  UNL1       -0.0196
     31 C          -6.8283   -0.6520    1.6850 C.ar    1  UNL1       -0.0539
     32 C          -7.6904   -1.1456    0.7307 C.ar    1  UNL1       -0.0331
     33 C          -9.1229   -1.2341    1.0461 C.3     1  UNL1        0.0240
     34 N          -9.8824   -0.0742    0.7104 N.3     1  UNL1       -0.2982
     35 C          -9.8857    0.2712   -0.6742 C.3     1  UNL1       -0.0008
     36 C         -10.6975   -0.6537   -1.5363 C.3     1  UNL1       -0.0402
     37 C         -12.0824   -0.7995   -0.9976 C.3     1  UNL1       -0.0507
     38 C         -12.2725    0.1108    0.1900 C.3     1  UNL1       -0.0402
     39 C         -11.2132   -0.1989    1.2141 C.3     1  UNL1       -0.0008
     40 C          -7.1551   -1.5303   -0.4794 C.ar    1  UNL1       -0.0539
     41 C          -5.8112   -1.4184   -0.7078 C.ar    1  UNL1       -0.0196
     42 C           4.6504    0.4119   -2.2499 C.3     1  UNL1        0.0244
     43 H           9.9439   -2.7493   -3.8112 H       1  UNL1        0.0660
     44 H          10.5587   -4.0473   -2.7181 H       1  UNL1        0.0660
     45 H           8.8637   -4.1407   -3.2802 H       1  UNL1        0.0660
     46 H           7.6494   -2.4093   -3.8909 H       1  UNL1        0.0655
     47 H           5.6572   -1.0105   -3.8912 H       1  UNL1        0.0622
     48 H           6.7618   -1.6353    1.6388 H       1  UNL1        0.0746
     49 H           7.0127    0.5307    3.1277 H       1  UNL1        0.0329
     50 H           8.2132   -0.8239    3.4130 H       1  UNL1        0.0329
     51 H           9.3449    1.4465    3.1970 H       1  UNL1        0.0639
     52 H          10.0808   -0.7701    2.1640 H       1  UNL1        0.2102
     53 H           8.8631    2.7954    1.1861 H       1  UNL1        0.0595
     54 H           6.9830    2.3135   -0.1768 H       1  UNL1        0.0580
     55 H           5.0459   -0.1670    1.9756 H       1  UNL1        0.0290
     56 H           4.9142    1.4746    1.3147 H       1  UNL1        0.0290
     57 H           4.5169   -1.1356   -0.2333 H       1  UNL1        0.0427
     58 H           3.1927   -0.2873    0.6216 H       1  UNL1        0.0427
     59 H           3.5861    2.5662   -1.8057 H       1  UNL1        0.0427
     60 H           4.6201    2.5819   -0.3702 H       1  UNL1        0.0427
     61 H           2.3447    3.4078    0.1599 H       1  UNL1        0.0278
     62 H           2.4770    1.7648    0.9307 H       1  UNL1        0.0278
     63 H           1.4919    0.7654   -1.1199 H       1  UNL1        0.0266
     64 H           1.3561    2.3433   -1.8930 H       1  UNL1        0.0266
     65 H          -0.1808    3.1767   -0.0808 H       1  UNL1        0.0265
     66 H          -0.7835    1.7620   -0.9395 H       1  UNL1        0.0265
     67 H           0.6851    1.8207    1.7705 H       1  UNL1        0.0265
     68 H           0.2279    0.2909    1.0047 H       1  UNL1        0.0265
     69 H          -1.4397    1.0544    2.7323 H       1  UNL1        0.0266
     70 H          -1.5064    2.6658    1.9004 H       1  UNL1        0.0266
     71 H          -3.4719    1.4626    1.4551 H       1  UNL1        0.0298
     72 H          -2.5903    1.6134   -0.0550 H       1  UNL1        0.0298
     73 H          -1.5779   -0.5021    0.0126 H       1  UNL1        0.0696
     74 H          -2.3672   -0.9914    1.5627 H       1  UNL1        0.0696
     75 H          -4.8021   -0.1654    2.2400 H       1  UNL1        0.0654
     76 H          -7.1919   -0.3347    2.6526 H       1  UNL1        0.0622
     77 H          -9.5667   -2.1094    0.5274 H       1  UNL1        0.0476
     78 H          -9.2133   -1.3662    2.1617 H       1  UNL1        0.0476
     79 H          -8.8804    0.3549   -1.1199 H       1  UNL1        0.0427
     80 H         -10.3605    1.2859   -0.7691 H       1  UNL1        0.0427
     81 H         -10.1759   -1.6187   -1.6986 H       1  UNL1        0.0278
     82 H         -10.7922   -0.1602   -2.5481 H       1  UNL1        0.0278
     83 H         -12.8598   -0.6718   -1.7687 H       1  UNL1        0.0266
     84 H         -12.2158   -1.8482   -0.6069 H       1  UNL1        0.0266
     85 H         -13.2621   -0.1698    0.6516 H       1  UNL1        0.0278
     86 H         -12.3425    1.1716   -0.0562 H       1  UNL1        0.0278
     87 H         -11.3960    0.4913    2.0888 H       1  UNL1        0.0427
     88 H         -11.4457   -1.2147    1.6203 H       1  UNL1        0.0427
     89 H          -7.8397   -1.9278   -1.2493 H       1  UNL1        0.0622
     90 H          -5.3838   -1.7212   -1.6617 H       1  UNL1        0.0654
     91 H           3.9955   -0.2187   -2.9095 H       1  UNL1        0.0476
     92 H           4.8862    1.3794   -2.7434 H       1  UNL1        0.0476
@<TRIPOS>BOND
     1     1     2    1
     2     2     3    1
     3     3     4   ar
     4     4     5   ar
     5     5     6   ar
     6     6     7   ar
     7     7     8   ar
     8     8     9    1
     9     9    10    1
    10    10    11    1
    11    11    12    1
    12    12    13    1
    13    12    14    1
    14    14    15    2
    15    15    16    1
    16    16    17    1
    17    17    18    1
    18    18    19    1
    19    19    20    1
    20    20    21    1
    21    21    22    1
    22    22    23    1
    23    23    24    1
    24    24    25    1
    25    25    26    1
    26    26    27    1
    27    27    28    1
    28    28    29    1
    29    29    30   ar
    30    30    31   ar
    31    31    32   ar
    32    32    33    1
    33    33    34    1
    34    34    35    1
    35    35    36    1
    36    36    37    1
    37    37    38    1
    38    38    39    1
    39    32    40   ar
    40    40    41   ar
    41    19    42    1
    42     8     3   ar
    43    16    10    1
    44    41    29   ar
    45    42     6    1
    46    16     7    1
    47    39    34    1
    48     1    43    1
    49     1    44    1
    50     1    45    1
    51     4    46    1
    52     5    47    1
    53    10    48    1
    54    11    49    1
    55    11    50    1
    56    12    51    1
    57    13    52    1
    58    14    53    1
    59    15    54    1
    60    17    55    1
    61    17    56    1
    62    18    57    1
    63    18    58    1
    64    20    59    1
    65    20    60    1
    66    21    61    1
    67    21    62    1
    68    22    63    1
    69    22    64    1
    70    23    65    1
    71    23    66    1
    72    24    67    1
    73    24    68    1
    74    25    69    1
    75    25    70    1
    76    26    71    1
    77    26    72    1
    78    27    73    1
    79    27    74    1
    80    30    75    1
    81    31    76    1
    82    33    77    1
    83    33    78    1
    84    35    79    1
    85    35    80    1
    86    36    81    1
    87    36    82    1
    88    37    83    1
    89    37    84    1
    90    38    85    1
    91    38    86    1
    92    39    87    1
    93    39    88    1
    94    40    89    1
    95    41    90    1
    96    42    91    1
    97    42    92    1
