
     RDKit          3D

100106  0  0  0  0  0  0  0  0999 V2000
  -10.1440    1.4371    1.4197 C   0  0  0  0  0  0  0  0  0  0  0  0
   -9.4649    0.2701    1.0709 O   0  0  0  0  0  0  0  0  0  0  0  0
   -8.8306    0.4524   -0.1980 C   0  0  0  0  0  0  0  0  0  0  0  0
   -9.2272   -0.6817   -1.0756 C   0  0  0  0  0  0  0  0  0  0  0  0
   -8.7034   -0.6568   -2.4690 C   0  0  0  0  0  0  0  0  0  0  0  0
   -9.1864    0.6191   -3.1313 C   0  0  0  0  0  0  0  0  0  0  0  0
   -7.2492   -0.8916   -2.5553 C   0  0  0  0  0  0  0  0  0  0  0  0
   -7.3760    0.3389    0.1526 C   0  0  0  0  0  0  0  0  0  0  0  0
   -7.0375   -0.7397    0.9710 C   0  0  0  0  0  0  0  0  0  0  0  0
   -5.7410   -0.9016    1.3567 C   0  0  0  0  0  0  0  0  0  0  0  0
   -4.7976    0.0050    0.9281 C   0  0  0  0  0  0  0  0  0  0  0  0
   -3.4985   -0.1770    1.3298 C   0  0  0  0  0  0  0  0  0  0  0  0
   -2.5251    0.7061    0.9259 C   0  0  0  0  0  0  0  0  0  0  0  0
   -1.1587    0.4759    1.3679 C   0  0  0  0  0  0  0  0  0  0  0  0
   -0.3099    1.5142    1.5803 C   0  0  0  0  0  0  0  0  0  0  0  0
    1.0013    1.2561    1.9971 C   0  0  0  0  0  0  0  0  0  0  0  0
    1.4341   -0.0298    2.1916 C   0  0  0  0  0  0  0  0  0  0  0  0
    2.8351   -0.3412    2.6521 C   0  0  0  0  0  0  0  0  0  0  0  0
    3.7761   -0.4748    1.5094 C   0  0  0  0  0  0  0  0  0  0  0  0
    3.8831    0.8295    0.7298 C   0  0  0  0  0  0  0  0  0  0  0  0
    4.8129    0.8396   -0.3910 C   0  0  0  0  0  0  0  0  0  0  0  0
    4.4847    0.6086   -1.6936 C   0  0  0  0  0  0  0  0  0  0  0  0
    5.4508    0.6364   -2.7171 C   0  0  0  0  0  0  0  0  0  0  0  0
    6.7667    0.9040   -2.4066 C   0  0  0  0  0  0  0  0  0  0  0  0
    7.8048    0.9420   -3.4652 C   0  0  0  0  0  0  0  0  0  0  0  0
    8.2499    2.2357   -3.6369 F   0  0  0  0  0  0  0  0  0  0  0  0
    7.2381    0.5396   -4.6515 F   0  0  0  0  0  0  0  0  0  0  0  0
    9.2159   -0.1353   -3.0634 P   0  0  0  0  0  5  0  0  0  0  0  0
    9.9692    0.3923   -1.8799 O   0  0  0  0  0  0  0  0  0  0  0  0
   10.2079   -0.3085   -4.4199 O   0  0  0  0  0  0  0  0  0  0  0  0
    8.5908   -1.6604   -2.6531 O   0  0  0  0  0  0  0  0  0  0  0  0
    7.1119    1.1398   -1.0969 C   0  0  0  0  0  0  0  0  0  0  0  0
    6.1561    1.1083   -0.1115 C   0  0  0  0  0  0  0  0  0  0  0  0
    3.2386   -1.5919    0.6316 C   0  0  0  0  0  0  0  0  0  0  0  0
    3.6831   -2.8922    0.7887 C   0  0  0  0  0  0  0  0  0  0  0  0
    3.1291   -3.8604   -0.0205 C   0  0  0  0  0  0  0  0  0  0  0  0
    2.1631   -3.6014   -0.9691 C   0  0  0  0  0  0  0  0  0  0  0  0
    1.7458   -2.2931   -1.0949 C   0  0  0  0  0  0  0  0  0  0  0  0
    2.2858   -1.2924   -0.2930 C   0  0  0  0  0  0  0  0  0  0  0  0
    5.1035   -0.9133    1.8446 N   0  0  0  0  0  0  0  0  0  0  0  0
    5.9636   -1.4351    0.9241 N   0  0  0  0  0  0  0  0  0  0  0  0
    7.0859   -1.7535    1.4844 N   0  0  0  0  0  0  0  0  0  0  0  0
    7.0474   -1.4691    2.7956 C   0  0  0  0  0  0  0  0  0  0  0  0
    7.9591   -1.6108    3.8265 C   0  0  0  0  0  0  0  0  0  0  0  0
    7.6575   -1.2314    5.1135 C   0  0  0  0  0  0  0  0  0  0  0  0
    6.3988   -0.7050    5.3105 C   0  0  0  0  0  0  0  0  0  0  0  0
    5.4907   -0.5635    4.2842 C   0  0  0  0  0  0  0  0  0  0  0  0
    5.7744   -0.9335    3.0079 C   0  0  0  0  0  0  0  0  0  0  0  0
    0.5658   -1.0710    1.9735 C   0  0  0  0  0  0  0  0  0  0  0  0
   -0.7529   -0.8274    1.5553 C   0  0  0  0  0  0  0  0  0  0  0  0
   -2.8995    1.7566    0.1201 C   0  0  0  0  0  0  0  0  0  0  0  0
   -4.1988    1.9441   -0.2857 C   0  0  0  0  0  0  0  0  0  0  0  0
   -4.6181    3.3275   -1.3303 P   0  0  0  0  0  5  0  0  0  0  0  0
   -3.8595    3.1577   -2.6316 O   0  0  0  0  0  0  0  0  0  0  0  0
   -6.2862    3.3544   -1.6133 O   0  0  0  0  0  0  0  0  0  0  0  0
   -4.1212    4.7872   -0.6349 O   0  0  0  0  0  0  0  0  0  0  0  0
   -5.1806    1.0686    0.1111 C   0  0  0  0  0  0  0  0  0  0  0  0
   -6.4539    1.2128   -0.2578 N   0  0  0  0  0  0  0  0  0  0  0  0
   -9.4655    2.3102    1.4960 H   0  0  0  0  0  0  0  0  0  0  0  0
  -10.6384    1.3016    2.3810 H   0  0  0  0  0  0  0  0  0  0  0  0
  -10.8964    1.6892    0.6524 H   0  0  0  0  0  0  0  0  0  0  0  0
   -9.0130    1.4435   -0.6118 H   0  0  0  0  0  0  0  0  0  0  0  0
   -8.8975   -1.6781   -0.6371 H   0  0  0  0  0  0  0  0  0  0  0  0
  -10.3585   -0.8129   -1.0902 H   0  0  0  0  0  0  0  0  0  0  0  0
   -9.2189   -1.5522   -2.9871 H   0  0  0  0  0  0  0  0  0  0  0  0
   -8.3269    1.1636   -3.5751 H   0  0  0  0  0  0  0  0  0  0  0  0
   -9.8008    1.2552   -2.4692 H   0  0  0  0  0  0  0  0  0  0  0  0
   -9.8451    0.3299   -3.9721 H   0  0  0  0  0  0  0  0  0  0  0  0
   -7.0732   -1.5464   -3.4781 H   0  0  0  0  0  0  0  0  0  0  0  0
   -6.8041   -1.4696   -1.7309 H   0  0  0  0  0  0  0  0  0  0  0  0
   -6.6363    0.0245   -2.7045 H   0  0  0  0  0  0  0  0  0  0  0  0
   -7.7656   -1.4542    1.3123 H   0  0  0  0  0  0  0  0  0  0  0  0
   -5.4489   -1.7425    2.0010 H   0  0  0  0  0  0  0  0  0  0  0  0
   -3.2652   -1.0194    1.9618 H   0  0  0  0  0  0  0  0  0  0  0  0
   -0.5918    2.5427    1.4443 H   0  0  0  0  0  0  0  0  0  0  0  0
    1.6907    2.0702    2.1771 H   0  0  0  0  0  0  0  0  0  0  0  0
    2.8617   -1.1583    3.3549 H   0  0  0  0  0  0  0  0  0  0  0  0
    3.1422    0.6104    3.1891 H   0  0  0  0  0  0  0  0  0  0  0  0
    4.1491    1.6224    1.5037 H   0  0  0  0  0  0  0  0  0  0  0  0
    2.9020    1.1829    0.3443 H   0  0  0  0  0  0  0  0  0  0  0  0
    3.4971    0.4144   -2.0499 H   0  0  0  0  0  0  0  0  0  0  0  0
    5.2072    0.4570   -3.7369 H   0  0  0  0  0  0  0  0  0  0  0  0
   11.0452    0.2214   -4.2272 H   0  0  0  0  0  0  0  0  0  0  0  0
    7.7677   -1.5854   -2.1284 H   0  0  0  0  0  0  0  0  0  0  0  0
    8.1319    1.3548   -0.8020 H   0  0  0  0  0  0  0  0  0  0  0  0
    6.4457    1.2998    0.9074 H   0  0  0  0  0  0  0  0  0  0  0  0
    4.4297   -3.0934    1.5299 H   0  0  0  0  0  0  0  0  0  0  0  0
    3.4622   -4.8737    0.0875 H   0  0  0  0  0  0  0  0  0  0  0  0
    1.7302   -4.3789   -1.6069 H   0  0  0  0  0  0  0  0  0  0  0  0
    0.9905   -2.0346   -1.8239 H   0  0  0  0  0  0  0  0  0  0  0  0
    1.8907   -0.3022   -0.4625 H   0  0  0  0  0  0  0  0  0  0  0  0
    8.9178   -2.0244    3.6164 H   0  0  0  0  0  0  0  0  0  0  0  0
    8.3327   -1.3240    5.9394 H   0  0  0  0  0  0  0  0  0  0  0  0
    6.1448   -0.3989    6.3304 H   0  0  0  0  0  0  0  0  0  0  0  0
    4.5497   -0.1451    4.5702 H   0  0  0  0  0  0  0  0  0  0  0  0
    0.8323   -2.1152    2.1056 H   0  0  0  0  0  0  0  0  0  0  0  0
   -1.4140   -1.6541    1.3908 H   0  0  0  0  0  0  0  0  0  0  0  0
   -2.1036    2.4346   -0.1794 H   0  0  0  0  0  0  0  0  0  0  0  0
   -6.6143    4.2625   -1.7302 H   0  0  0  0  0  0  0  0  0  0  0  0
   -4.6045    5.5566   -0.9783 H   0  0  0  0  0  0  0  0  0  0  0  0
  1  2  1  0
  2  3  1  0
  3  4  1  0
  4  5  1  0
  5  6  1  0
  5  7  1  0
  3  8  1  0
  8  9  2  0
  9 10  1  0
 10 11  2  0
 11 12  1  0
 12 13  2  0
 13 14  1  0
 14 15  2  0
 15 16  1  0
 16 17  2  0
 17 18  1  0
 18 19  1  0
 19 20  1  0
 20 21  1  0
 21 22  2  0
 22 23  1  0
 23 24  2  0
 24 25  1  0
 25 26  1  0
 25 27  1  0
 25 28  1  0
 28 29  2  0
 28 30  1  0
 28 31  1  0
 24 32  1  0
 32 33  2  0
 19 34  1  0
 34 35  2  0
 35 36  1  0
 36 37  2  0
 37 38  1  0
 38 39  2  0
 19 40  1  0
 40 41  1  0
 41 42  2  0
 42 43  1  0
 43 44  2  0
 44 45  1  0
 45 46  2  0
 46 47  1  0
 47 48  2  0
 17 49  1  0
 49 50  2  0
 13 51  1  0
 51 52  2  0
 52 53  1  0
 53 54  2  0
 53 55  1  0
 53 56  1  0
 52 57  1  0
 57 58  2  0
 58  8  1  0
 57 11  1  0
 50 14  1  0
 33 21  1  0
 39 34  1  0
 48 40  1  0
 48 43  1  0
  1 59  1  0
  1 60  1  0
  1 61  1  0
  3 62  1  0
  4 63  1  0
  4 64  1  0
  5 65  1  0
  6 66  1  0
  6 67  1  0
  6 68  1  0
  7 69  1  0
  7 70  1  0
  7 71  1  0
  9 72  1  0
 10 73  1  0
 12 74  1  0
 15 75  1  0
 16 76  1  0
 18 77  1  0
 18 78  1  0
 20 79  1  0
 20 80  1  0
 22 81  1  0
 23 82  1  0
 30 83  1  0
 31 84  1  0
 32 85  1  0
 33 86  1  0
 35 87  1  0
 36 88  1  0
 37 89  1  0
 38 90  1  0
 39 91  1  0
 44 92  1  0
 45 93  1  0
 46 94  1  0
 47 95  1  0
 49 96  1  0
 50 97  1  0
 51 98  1  0
 55 99  1  0
 56100  1  0
M  END
$$$$
