@<TRIPOS>MOLECULE
*****
 100 106 0 0 0
SMALL
GASTEIGER

@<TRIPOS>ATOM
      1 C         -10.1440    1.4371    1.4197 C.3     1  UNL1        0.0373
      2 O          -9.4649    0.2701    1.0709 O.3     1  UNL1       -0.3737
      3 C          -8.8306    0.4524   -0.1980 C.3     1  UNL1        0.1003
      4 C          -9.2272   -0.6817   -1.0756 C.3     1  UNL1       -0.0187
      5 C          -8.7034   -0.6568   -2.4690 C.3     1  UNL1       -0.0440
      6 C          -9.1864    0.6191   -3.1313 C.3     1  UNL1       -0.0626
      7 C          -7.2492   -0.8916   -2.5553 C.3     1  UNL1       -0.0626
      8 C          -7.3760    0.3389    0.1526 C.ar    1  UNL1        0.0706
      9 C          -7.0375   -0.7397    0.9710 C.ar    1  UNL1       -0.0372
     10 C          -5.7410   -0.9016    1.3567 C.ar    1  UNL1       -0.0507
     11 C          -4.7976    0.0050    0.9281 C.ar    1  UNL1        0.0018
     12 C          -3.4985   -0.1770    1.3298 C.ar    1  UNL1       -0.0448
     13 C          -2.5251    0.7061    0.9259 C.ar    1  UNL1       -0.0164
     14 C          -1.1587    0.4759    1.3679 C.ar    1  UNL1       -0.0178
     15 C          -0.3099    1.5142    1.5803 C.ar    1  UNL1       -0.0538
     16 C           1.0013    1.2561    1.9971 C.ar    1  UNL1       -0.0579
     17 C           1.4341   -0.0298    2.1916 C.ar    1  UNL1       -0.0447
     18 C           2.8351   -0.3412    2.6521 C.3     1  UNL1        0.0022
     19 C           3.7761   -0.4748    1.5094 C.3     1  UNL1        0.0986
     20 C           3.8831    0.8295    0.7298 C.3     1  UNL1        0.0022
     21 C           4.8129    0.8396   -0.3910 C.ar    1  UNL1       -0.0447
     22 C           4.4847    0.6086   -1.6936 C.ar    1  UNL1       -0.0580
     23 C           5.4508    0.6364   -2.7171 C.ar    1  UNL1       -0.0521
     24 C           6.7667    0.9040   -2.4066 C.ar    1  UNL1        0.0328
     25 C           7.8048    0.9420   -3.4652 C.3     1  UNL1        0.3711
     26 F           8.2499    2.2357   -3.6369 F       1  UNL1       -0.1866
     27 F           7.2381    0.5396   -4.6515 F       1  UNL1       -0.1866
     28 P           9.2159   -0.1353   -3.0634 P.3     1  UNL1        0.4007
     29 O           9.9692    0.3923   -1.8799 O.2     1  UNL1       -0.2522
     30 O          10.2079   -0.3085   -4.4199 O.3     1  UNL1       -0.3199
     31 O           8.5908   -1.6604   -2.6531 O.3     1  UNL1       -0.3199
     32 C           7.1119    1.1398   -1.0969 C.ar    1  UNL1       -0.0521
     33 C           6.1561    1.1083   -0.1115 C.ar    1  UNL1       -0.0580
     34 C           3.2386   -1.5919    0.6316 C.ar    1  UNL1       -0.0194
     35 C           3.6831   -2.8922    0.7887 C.ar    1  UNL1       -0.0563
     36 C           3.1291   -3.8604   -0.0205 C.ar    1  UNL1       -0.0614
     37 C           2.1631   -3.6014   -0.9691 C.ar    1  UNL1       -0.0617
     38 C           1.7458   -2.2931   -1.0949 C.ar    1  UNL1       -0.0614
     39 C           2.2858   -1.2924   -0.2930 C.ar    1  UNL1       -0.0563
     40 N           5.1035   -0.9133    1.8446 N.ar    1  UNL1       -0.2329
     41 N           5.9636   -1.4351    0.9241 N.ar    1  UNL1       -0.0637
     42 N           7.0859   -1.7535    1.4844 N.ar    1  UNL1       -0.1294
     43 C           7.0474   -1.4691    2.7956 C.ar    1  UNL1        0.1127
     44 C           7.9591   -1.6108    3.8265 C.ar    1  UNL1       -0.0324
     45 C           7.6575   -1.2314    5.1135 C.ar    1  UNL1       -0.0596
     46 C           6.3988   -0.7050    5.3105 C.ar    1  UNL1       -0.0596
     47 C           5.4907   -0.5635    4.2842 C.ar    1  UNL1       -0.0344
     48 C           5.7744   -0.9335    3.0079 C.ar    1  UNL1        0.0900
     49 C           0.5658   -1.0710    1.9735 C.ar    1  UNL1       -0.0579
     50 C          -0.7529   -0.8274    1.5553 C.ar    1  UNL1       -0.0538
     51 C          -2.8995    1.7566    0.1201 C.ar    1  UNL1       -0.0371
     52 C          -4.1988    1.9441   -0.2857 C.ar    1  UNL1        0.0897
     53 P          -4.6181    3.3275   -1.3303 P.3     1  UNL1        0.3604
     54 O          -3.8595    3.1577   -2.6316 O.2     1  UNL1       -0.2534
     55 O          -6.2862    3.3544   -1.6133 O.3     1  UNL1       -0.3207
     56 O          -4.1212    4.7872   -0.6349 O.3     1  UNL1       -0.3207
     57 C          -5.1806    1.0686    0.1111 C.ar    1  UNL1        0.0862
     58 N          -6.4539    1.2128   -0.2578 N.ar    1  UNL1       -0.2481
     59 H          -9.4655    2.3102    1.4960 H       1  UNL1        0.0524
     60 H         -10.6384    1.3016    2.3810 H       1  UNL1        0.0524
     61 H         -10.8964    1.6892    0.6524 H       1  UNL1        0.0524
     62 H          -9.0130    1.4435   -0.6118 H       1  UNL1        0.0661
     63 H          -8.8975   -1.6781   -0.6371 H       1  UNL1        0.0296
     64 H         -10.3585   -0.8129   -1.0902 H       1  UNL1        0.0296
     65 H          -9.2189   -1.5522   -2.9871 H       1  UNL1        0.0296
     66 H          -8.3269    1.1636   -3.5751 H       1  UNL1        0.0232
     67 H          -9.8008    1.2552   -2.4692 H       1  UNL1        0.0232
     68 H          -9.8451    0.3299   -3.9721 H       1  UNL1        0.0232
     69 H          -7.0732   -1.5464   -3.4781 H       1  UNL1        0.0232
     70 H          -6.8041   -1.4696   -1.7309 H       1  UNL1        0.0232
     71 H          -6.6363    0.0245   -2.7045 H       1  UNL1        0.0232
     72 H          -7.7656   -1.4542    1.3123 H       1  UNL1        0.0636
     73 H          -5.4489   -1.7425    2.0010 H       1  UNL1        0.0625
     74 H          -3.2652   -1.0194    1.9618 H       1  UNL1        0.0630
     75 H          -0.5918    2.5427    1.4443 H       1  UNL1        0.0624
     76 H           1.6907    2.0702    2.1771 H       1  UNL1        0.0620
     77 H           2.8617   -1.1583    3.3549 H       1  UNL1        0.0340
     78 H           3.1422    0.6104    3.1891 H       1  UNL1        0.0340
     79 H           4.1491    1.6224    1.5037 H       1  UNL1        0.0340
     80 H           2.9020    1.1829    0.3443 H       1  UNL1        0.0340
     81 H           3.4971    0.4144   -2.0499 H       1  UNL1        0.0620
     82 H           5.2072    0.4570   -3.7369 H       1  UNL1        0.0622
     83 H          11.0452    0.2214   -4.2272 H       1  UNL1        0.2199
     84 H           7.7677   -1.5854   -2.1284 H       1  UNL1        0.2199
     85 H           8.1319    1.3548   -0.8020 H       1  UNL1        0.0622
     86 H           6.4457    1.2998    0.9074 H       1  UNL1        0.0620
     87 H           4.4297   -3.0934    1.5299 H       1  UNL1        0.0621
     88 H           3.4622   -4.8737    0.0875 H       1  UNL1        0.0618
     89 H           1.7302   -4.3789   -1.6069 H       1  UNL1        0.0618
     90 H           0.9905   -2.0346   -1.8239 H       1  UNL1        0.0618
     91 H           1.8907   -0.3022   -0.4625 H       1  UNL1        0.0621
     92 H           8.9178   -2.0244    3.6164 H       1  UNL1        0.0640
     93 H           8.3327   -1.3240    5.9394 H       1  UNL1        0.0618
     94 H           6.1448   -0.3989    6.3304 H       1  UNL1        0.0618
     95 H           4.5497   -0.1451    4.5702 H       1  UNL1        0.0639
     96 H           0.8323   -2.1152    2.1056 H       1  UNL1        0.0620
     97 H          -1.4140   -1.6541    1.3908 H       1  UNL1        0.0624
     98 H          -2.1036    2.4346   -0.1794 H       1  UNL1        0.0633
     99 H          -6.6143    4.2625   -1.7302 H       1  UNL1        0.2201
    100 H          -4.6045    5.5566   -0.9783 H       1  UNL1        0.2201
@<TRIPOS>BOND
     1     1     2    1
     2     2     3    1
     3     3     4    1
     4     4     5    1
     5     5     6    1
     6     5     7    1
     7     3     8    1
     8     8     9   ar
     9     9    10   ar
    10    10    11   ar
    11    11    12   ar
    12    12    13   ar
    13    13    14    1
    14    14    15   ar
    15    15    16   ar
    16    16    17   ar
    17    17    18    1
    18    18    19    1
    19    19    20    1
    20    20    21    1
    21    21    22   ar
    22    22    23   ar
    23    23    24   ar
    24    24    25    1
    25    25    26    1
    26    25    27    1
    27    25    28    1
    28    28    29    2
    29    28    30    1
    30    28    31    1
    31    24    32   ar
    32    32    33   ar
    33    19    34    1
    34    34    35   ar
    35    35    36   ar
    36    36    37   ar
    37    37    38   ar
    38    38    39   ar
    39    19    40    1
    40    40    41   ar
    41    41    42   ar
    42    42    43   ar
    43    43    44   ar
    44    44    45   ar
    45    45    46   ar
    46    46    47   ar
    47    47    48   ar
    48    17    49   ar
    49    49    50   ar
    50    13    51   ar
    51    51    52   ar
    52    52    53    1
    53    53    54    2
    54    53    55    1
    55    53    56    1
    56    52    57   ar
    57    57    58   ar
    58    58     8   ar
    59    57    11   ar
    60    50    14   ar
    61    33    21   ar
    62    39    34   ar
    63    48    40   ar
    64    48    43   ar
    65     1    59    1
    66     1    60    1
    67     1    61    1
    68     3    62    1
    69     4    63    1
    70     4    64    1
    71     5    65    1
    72     6    66    1
    73     6    67    1
    74     6    68    1
    75     7    69    1
    76     7    70    1
    77     7    71    1
    78     9    72    1
    79    10    73    1
    80    12    74    1
    81    15    75    1
    82    16    76    1
    83    18    77    1
    84    18    78    1
    85    20    79    1
    86    20    80    1
    87    22    81    1
    88    23    82    1
    89    30    83    1
    90    31    84    1
    91    32    85    1
    92    33    86    1
    93    35    87    1
    94    36    88    1
    95    37    89    1
    96    38    90    1
    97    39    91    1
    98    44    92    1
    99    45    93    1
   100    46    94    1
   101    47    95    1
   102    49    96    1
   103    50    97    1
   104    51    98    1
   105    55    99    1
   106    56   100    1
