@<TRIPOS>MOLECULE
*****
 18 18 0 0 0
SMALL
GASTEIGER

@<TRIPOS>ATOM
      1 CA         -0.6019   -0.1451    0.3877 C.3     1  UNL1        0.1057
      2 N          -0.7517   -1.5763    0.1960 N.3     1  UNL1       -0.3183
      3 C           0.1710    0.4553   -0.7601 C.3     1  UNL1        0.0012
      4 C           1.5439   -0.1191   -0.9054 C.3     1  UNL1        0.0840
      5 C           2.5604   -0.0540    0.1250 C.3     1  UNL1        0.0744
      6 O           1.8207   -1.2113   -0.0822 O.3     1  UNL1       -0.3717
      7 C          -1.9497    0.4812    0.4348 C.2     1  UNL1        0.3218
      8 O          -2.0896    1.8450    0.6101 O.3     1  UNL1       -0.4795
      9 OXT        -3.1054   -0.0549    0.3344 O.2     1  UNL1       -0.2493
     10 HA         -0.1208   -0.0026    1.3740 H       1  UNL1        0.0575
     11 H1         -1.4692   -1.8169   -0.5075 H       1  UNL1        0.1190
     12 H2         -0.9604   -2.0601    1.0930 H       1  UNL1        0.1190
     13 H           0.1983    1.5515   -0.7244 H       1  UNL1        0.0311
     14 H          -0.4093    0.2012   -1.6783 H       1  UNL1        0.0311
     15 H           1.9079   -0.1294   -1.9713 H       1  UNL1        0.0619
     16 H           2.4238    0.5314    1.0458 H       1  UNL1        0.0586
     17 H           3.6173   -0.1705   -0.1755 H       1  UNL1        0.0586
     18 H          -2.7852    2.2747    1.2036 H       1  UNL1        0.2951
@<TRIPOS>BOND
     1     1     2    1
     2     1     3    1
     3     3     4    1
     4     4     5    1
     5     5     6    1
     6     1     7    1
     7     7     8    1
     8     7     9    2
     9     6     4    1
    10     1    10    1
    11     2    11    1
    12     2    12    1
    13     3    13    1
    14     3    14    1
    15     4    15    1
    16     5    16    1
    17     5    17    1
    18     8    18    1
