
     RDKit          3D

 18 18  0  0  0  0  0  0  0  0999 V2000
   -0.6019   -0.1451    0.3877 C   0  0  1  0  0  0  0  0  0  0  0  0
   -0.7517   -1.5763    0.1960 N   0  0  0  0  0  0  0  0  0  0  0  0
    0.1710    0.4553   -0.7601 C   0  0  0  0  0  0  0  0  0  0  0  0
    1.5439   -0.1191   -0.9054 C   0  0  1  0  0  0  0  0  0  0  0  0
    2.5604   -0.0540    0.1250 C   0  0  0  0  0  0  0  0  0  0  0  0
    1.8207   -1.2113   -0.0822 O   0  0  0  0  0  0  0  0  0  0  0  0
   -1.9497    0.4812    0.4348 C   0  0  0  0  0  0  0  0  0  0  0  0
   -2.0896    1.8450    0.6101 O   0  0  0  0  0  0  0  0  0  0  0  0
   -3.1054   -0.0549    0.3344 O   0  0  0  0  0  0  0  0  0  0  0  0
   -0.1208   -0.0026    1.3740 H   0  0  0  0  0  0  0  0  0  0  0  0
   -1.4692   -1.8169   -0.5075 H   0  0  0  0  0  0  0  0  0  0  0  0
   -0.9604   -2.0601    1.0930 H   0  0  0  0  0  0  0  0  0  0  0  0
    0.1983    1.5515   -0.7244 H   0  0  0  0  0  0  0  0  0  0  0  0
   -0.4093    0.2012   -1.6783 H   0  0  0  0  0  0  0  0  0  0  0  0
    1.9079   -0.1294   -1.9713 H   0  0  0  0  0  0  0  0  0  0  0  0
    2.4238    0.5314    1.0458 H   0  0  0  0  0  0  0  0  0  0  0  0
    3.6173   -0.1705   -0.1755 H   0  0  0  0  0  0  0  0  0  0  0  0
   -2.7852    2.2747    1.2036 H   0  0  0  0  0  0  0  0  0  0  0  0
  1  2  1  0
  1  3  1  0
  3  4  1  0
  4  5  1  0
  5  6  1  0
  1  7  1  0
  7  8  1  0
  7  9  2  0
  6  4  1  0
  1 10  1  1
  2 11  1  0
  2 12  1  0
  3 13  1  0
  3 14  1  0
  4 15  1  6
  5 16  1  0
  5 17  1  0
  8 18  1  0
M  END
$$$$
