
     RDKit          3D

 77 80  0  0  0  0  0  0  0  0999 V2000
    1.5753   -6.2328   -0.1022 C   0  0  0  0  0  0  0  0  0  0  0  0
    1.4912   -5.1606   -0.8602 C   0  0  0  0  0  0  0  0  0  0  0  0
    2.0217   -3.9087   -0.3463 C   0  0  0  0  0  0  0  0  0  0  0  0
    2.5413   -3.8569    0.7780 O   0  0  0  0  0  0  0  0  0  0  0  0
    1.9746   -2.6941   -1.0951 N   0  0  0  0  0  0  0  0  0  0  0  0
    2.4786   -1.4528   -0.6428 C   0  0  0  0  0  0  0  0  0  0  0  0
    3.7825   -1.0637   -0.9052 C   0  0  0  0  0  0  0  0  0  0  0  0
    4.3085    0.1246   -0.4885 C   0  0  0  0  0  0  0  0  0  0  0  0
    5.6347    0.5507   -0.7495 N   0  0  0  0  0  0  0  0  0  0  0  0
    6.2141    1.7129   -0.0943 C   0  0  0  0  0  0  0  0  0  0  0  0
    7.6861    1.6345    0.1173 C   0  0  0  0  0  0  0  0  0  0  0  0
    8.4244    0.9407   -0.8952 N   0  0  0  0  0  0  0  0  0  0  0  0
    9.7642    0.6942   -0.3929 C   0  0  0  0  0  0  0  0  0  0  0  0
   10.5854    1.9352   -0.2249 C   0  0  0  0  0  0  0  0  0  0  0  0
    7.8066   -0.3939   -0.9887 C   0  0  0  0  0  0  0  0  0  0  0  0
    6.4651   -0.1471   -1.6930 C   0  0  0  0  0  0  0  0  0  0  0  0
    3.4483    0.9596    0.2381 C   0  0  0  0  0  0  0  0  0  0  0  0
    2.1505    0.5980    0.5130 C   0  0  0  0  0  0  0  0  0  0  0  0
    1.6594   -0.6229    0.0675 C   0  0  0  0  0  0  0  0  0  0  0  0
    0.3155   -0.9755    0.3760 N   0  0  0  0  0  0  0  0  0  0  0  0
   -0.5152   -0.0915    1.1212 C   0  0  0  0  0  0  0  0  0  0  0  0
   -1.3983    0.7365    0.4642 C   0  0  0  0  0  0  0  0  0  0  0  0
   -2.2034    1.6152    1.1707 C   0  0  0  0  0  0  0  0  0  0  0  0
   -3.1038    2.4382    0.4469 N   0  0  0  0  0  0  0  0  0  0  0  0
   -2.6102    3.7061   -0.0445 C   0  0  0  0  0  0  0  0  0  0  0  0
   -4.4465    2.0449    0.2033 C   0  0  0  0  0  0  0  0  0  0  0  0
   -5.1991    2.8158   -0.4363 O   0  0  0  0  0  0  0  0  0  0  0  0
   -4.9575    0.7924    0.6717 N   0  0  0  0  0  0  0  0  0  0  0  0
   -6.3302    0.4510    0.4024 C   0  0  0  0  0  0  0  0  0  0  0  0
   -6.6627   -0.2170   -0.7542 C   0  0  0  0  0  0  0  0  0  0  0  0
   -8.0071   -0.5267   -0.9668 C   0  0  0  0  0  0  0  0  0  0  0  0
   -8.3315   -1.1989   -2.1335 O   0  0  0  0  0  0  0  0  0  0  0  0
   -9.6682   -1.5521   -2.4283 C   0  0  0  0  0  0  0  0  0  0  0  0
   -8.9938   -0.1936   -0.0765 C   0  0  0  0  0  0  0  0  0  0  0  0
   -8.6521    0.4741    1.0772 C   0  0  0  0  0  0  0  0  0  0  0  0
   -9.6211    0.8376    2.0201 O   0  0  0  0  0  0  0  0  0  0  0  0
  -10.9844    0.5700    1.8908 C   0  0  0  0  0  0  0  0  0  0  0  0
   -7.3271    0.7812    1.2903 C   0  0  0  0  0  0  0  0  0  0  0  0
   -2.1254    1.6646    2.5170 N   0  0  0  0  0  0  0  0  0  0  0  0
   -1.2585    0.8485    3.1291 C   0  0  0  0  0  0  0  0  0  0  0  0
   -0.4664   -0.0136    2.4628 N   0  0  0  0  0  0  0  0  0  0  0  0
    1.1892   -7.1722   -0.4617 H   0  0  0  0  0  0  0  0  0  0  0  0
    2.0199   -6.2259    0.8825 H   0  0  0  0  0  0  0  0  0  0  0  0
    1.0334   -5.2453   -1.8333 H   0  0  0  0  0  0  0  0  0  0  0  0
    1.5274   -2.7614   -2.0480 H   0  0  0  0  0  0  0  0  0  0  0  0
    4.3653   -1.7551   -1.4573 H   0  0  0  0  0  0  0  0  0  0  0  0
    5.9459    2.6075   -0.6755 H   0  0  0  0  0  0  0  0  0  0  0  0
    5.7512    1.7620    0.9238 H   0  0  0  0  0  0  0  0  0  0  0  0
    8.0897    2.6670    0.2158 H   0  0  0  0  0  0  0  0  0  0  0  0
    7.9036    1.1038    1.0872 H   0  0  0  0  0  0  0  0  0  0  0  0
   10.2798    0.0666   -1.1776 H   0  0  0  0  0  0  0  0  0  0  0  0
    9.7288    0.0713    0.5056 H   0  0  0  0  0  0  0  0  0  0  0  0
   10.7814    2.3917   -1.1936 H   0  0  0  0  0  0  0  0  0  0  0  0
   11.5565    1.6049    0.2254 H   0  0  0  0  0  0  0  0  0  0  0  0
   10.1088    2.6201    0.5059 H   0  0  0  0  0  0  0  0  0  0  0  0
    7.5548   -0.6962    0.0464 H   0  0  0  0  0  0  0  0  0  0  0  0
    8.4470   -1.1006   -1.5230 H   0  0  0  0  0  0  0  0  0  0  0  0
    6.6791    0.5411   -2.5609 H   0  0  0  0  0  0  0  0  0  0  0  0
    6.0644   -1.0688   -2.1087 H   0  0  0  0  0  0  0  0  0  0  0  0
    3.7724    1.9035    0.5985 H   0  0  0  0  0  0  0  0  0  0  0  0
    1.4787    1.2411    1.0761 H   0  0  0  0  0  0  0  0  0  0  0  0
   -0.0498   -1.8872    0.0497 H   0  0  0  0  0  0  0  0  0  0  0  0
   -1.4391    0.6747   -0.6206 H   0  0  0  0  0  0  0  0  0  0  0  0
   -1.5769    3.5376   -0.4021 H   0  0  0  0  0  0  0  0  0  0  0  0
   -2.5792    4.4446    0.7812 H   0  0  0  0  0  0  0  0  0  0  0  0
   -3.2625    4.0301   -0.8867 H   0  0  0  0  0  0  0  0  0  0  0  0
   -4.3241    0.1634    1.1928 H   0  0  0  0  0  0  0  0  0  0  0  0
   -5.9500   -0.5059   -1.4879 H   0  0  0  0  0  0  0  0  0  0  0  0
   -9.6695   -2.2792   -3.2736 H   0  0  0  0  0  0  0  0  0  0  0  0
  -10.2319   -0.6426   -2.7280 H   0  0  0  0  0  0  0  0  0  0  0  0
  -10.1831   -1.9716   -1.5362 H   0  0  0  0  0  0  0  0  0  0  0  0
  -10.0383   -0.4271   -0.2276 H   0  0  0  0  0  0  0  0  0  0  0  0
  -11.6000    1.2363    2.5620 H   0  0  0  0  0  0  0  0  0  0  0  0
  -11.2030   -0.4567    2.2338 H   0  0  0  0  0  0  0  0  0  0  0  0
  -11.3560    0.6842    0.8483 H   0  0  0  0  0  0  0  0  0  0  0  0
   -7.0568    1.3033    2.1929 H   0  0  0  0  0  0  0  0  0  0  0  0
   -1.2224    0.9167    4.2212 H   0  0  0  0  0  0  0  0  0  0  0  0
  1  2  2  3
  2  3  1  0
  3  4  2  0
  3  5  1  0
  5  6  1  0
  6  7  2  0
  7  8  1  0
  8  9  1  0
  9 10  1  0
 10 11  1  0
 11 12  1  0
 12 13  1  0
 13 14  1  0
 12 15  1  0
 15 16  1  0
  8 17  2  0
 17 18  1  0
 18 19  2  0
 19 20  1  0
 20 21  1  0
 21 22  2  0
 22 23  1  0
 23 24  1  0
 24 25  1  0
 24 26  1  0
 26 27  2  0
 26 28  1  0
 28 29  1  0
 29 30  2  0
 30 31  1  0
 31 32  1  0
 32 33  1  0
 31 34  2  0
 34 35  1  0
 35 36  1  0
 36 37  1  0
 35 38  2  0
 23 39  2  0
 39 40  1  0
 40 41  2  0
 19  6  1  0
 41 21  1  0
 16  9  1  0
 38 29  1  0
  1 42  1  0
  1 43  1  0
  2 44  1  0
  5 45  1  0
  7 46  1  0
 10 47  1  0
 10 48  1  0
 11 49  1  0
 11 50  1  0
 13 51  1  0
 13 52  1  0
 14 53  1  0
 14 54  1  0
 14 55  1  0
 15 56  1  0
 15 57  1  0
 16 58  1  0
 16 59  1  0
 17 60  1  0
 18 61  1  0
 20 62  1  0
 22 63  1  0
 25 64  1  0
 25 65  1  0
 25 66  1  0
 28 67  1  0
 30 68  1  0
 33 69  1  0
 33 70  1  0
 33 71  1  0
 34 72  1  0
 37 73  1  0
 37 74  1  0
 37 75  1  0
 38 76  1  0
 40 77  1  0
M  END
$$$$
