@<TRIPOS>MOLECULE
*****
 77 80 0 0 0
SMALL
GASTEIGER

@<TRIPOS>ATOM
      1 C           1.5753   -6.2328   -0.1022 C.2     1  UNL1       -0.0938
      2 C           1.4912   -5.1606   -0.8602 C.2     1  UNL1       -0.0066
      3 C           2.0217   -3.9087   -0.3463 C.2     1  UNL1        0.2406
      4 O           2.5413   -3.8569    0.7780 O.2     1  UNL1       -0.2705
      5 N           1.9746   -2.6941   -1.0951 N.am    1  UNL1       -0.2804
      6 C           2.4786   -1.4528   -0.6428 C.ar    1  UNL1        0.0568
      7 C           3.7825   -1.0637   -0.9052 C.ar    1  UNL1       -0.0176
      8 C           4.3085    0.1246   -0.4885 C.ar    1  UNL1        0.0316
      9 N           5.6347    0.5507   -0.7495 N.pl3   1  UNL1       -0.3274
     10 C           6.2141    1.7129   -0.0943 C.3     1  UNL1        0.0250
     11 C           7.6861    1.6345    0.1173 C.3     1  UNL1        0.0147
     12 N           8.4244    0.9407   -0.8952 N.3     1  UNL1       -0.2996
     13 C           9.7642    0.6942   -0.3929 C.3     1  UNL1       -0.0038
     14 C          10.5854    1.9352   -0.2249 C.3     1  UNL1       -0.0524
     15 C           7.8066   -0.3939   -0.9887 C.3     1  UNL1        0.0147
     16 C           6.4651   -0.1471   -1.6930 C.3     1  UNL1        0.0250
     17 C           3.4483    0.9596    0.2381 C.ar    1  UNL1       -0.0388
     18 C           2.1505    0.5980    0.5130 C.ar    1  UNL1       -0.0369
     19 C           1.6594   -0.6229    0.0675 C.ar    1  UNL1        0.0540
     20 N           0.3155   -0.9755    0.3760 N.pl3   1  UNL1       -0.2979
     21 C          -0.5152   -0.0915    1.1212 C.ar    1  UNL1        0.1279
     22 C          -1.3983    0.7365    0.4642 C.ar    1  UNL1        0.0188
     23 C          -2.2034    1.6152    1.1707 C.ar    1  UNL1        0.1334
     24 N          -3.1038    2.4382    0.4469 N.am    1  UNL1       -0.2427
     25 C          -2.6102    3.7061   -0.0445 C.3     1  UNL1        0.0111
     26 C          -4.4465    2.0449    0.2033 C.2     1  UNL1        0.3116
     27 O          -5.1991    2.8158   -0.4363 O.2     1  UNL1       -0.2519
     28 N          -4.9575    0.7924    0.6717 N.am    1  UNL1       -0.2688
     29 C          -6.3302    0.4510    0.4024 C.ar    1  UNL1        0.0417
     30 C          -6.6627   -0.2170   -0.7542 C.ar    1  UNL1        0.0016
     31 C          -8.0071   -0.5267   -0.9668 C.ar    1  UNL1        0.1253
     32 O          -8.3315   -1.1989   -2.1335 O.3     1  UNL1       -0.4949
     33 C          -9.6682   -1.5521   -2.4283 C.3     1  UNL1        0.0788
     34 C          -8.9938   -0.1936   -0.0765 C.ar    1  UNL1        0.0219
     35 C          -8.6521    0.4741    1.0772 C.ar    1  UNL1        0.1253
     36 O          -9.6211    0.8376    2.0201 O.3     1  UNL1       -0.4949
     37 C         -10.9844    0.5700    1.8908 C.3     1  UNL1        0.0788
     38 C          -7.3271    0.7812    1.2903 C.ar    1  UNL1        0.0016
     39 N          -2.1254    1.6646    2.5170 N.ar    1  UNL1       -0.2202
     40 C          -1.2585    0.8485    3.1291 C.ar    1  UNL1        0.1201
     41 N          -0.4664   -0.0136    2.4628 N.ar    1  UNL1       -0.2205
     42 H           1.1892   -7.1722   -0.4617 H       1  UNL1        0.0536
     43 H           2.0199   -6.2259    0.8825 H       1  UNL1        0.0536
     44 H           1.0334   -5.2453   -1.8333 H       1  UNL1        0.0663
     45 H           1.5274   -2.7614   -2.0480 H       1  UNL1        0.1552
     46 H           4.3653   -1.7551   -1.4573 H       1  UNL1        0.0655
     47 H           5.9459    2.6075   -0.6755 H       1  UNL1        0.0476
     48 H           5.7512    1.7620    0.9238 H       1  UNL1        0.0476
     49 H           8.0897    2.6670    0.2158 H       1  UNL1        0.0442
     50 H           7.9036    1.1038    1.0872 H       1  UNL1        0.0442
     51 H          10.2798    0.0666   -1.1776 H       1  UNL1        0.0424
     52 H           9.7288    0.0713    0.5056 H       1  UNL1        0.0424
     53 H          10.7814    2.3917   -1.1936 H       1  UNL1        0.0242
     54 H          11.5565    1.6049    0.2254 H       1  UNL1        0.0242
     55 H          10.1088    2.6201    0.5059 H       1  UNL1        0.0242
     56 H           7.5548   -0.6962    0.0464 H       1  UNL1        0.0442
     57 H           8.4470   -1.1006   -1.5230 H       1  UNL1        0.0442
     58 H           6.6791    0.5411   -2.5609 H       1  UNL1        0.0476
     59 H           6.0644   -1.0688   -2.1087 H       1  UNL1        0.0476
     60 H           3.7724    1.9035    0.5985 H       1  UNL1        0.0637
     61 H           1.4787    1.2411    1.0761 H       1  UNL1        0.0637
     62 H          -0.0498   -1.8872    0.0497 H       1  UNL1        0.1536
     63 H          -1.4391    0.6747   -0.6206 H       1  UNL1        0.0687
     64 H          -1.5769    3.5376   -0.4021 H       1  UNL1        0.0433
     65 H          -2.5792    4.4446    0.7812 H       1  UNL1        0.0433
     66 H          -3.2625    4.0301   -0.8867 H       1  UNL1        0.0433
     67 H          -4.3241    0.1634    1.1928 H       1  UNL1        0.1564
     68 H          -5.9500   -0.5059   -1.4879 H       1  UNL1        0.0673
     69 H          -9.6695   -2.2792   -3.2736 H       1  UNL1        0.0660
     70 H         -10.2319   -0.6426   -2.7280 H       1  UNL1        0.0660
     71 H         -10.1831   -1.9716   -1.5362 H       1  UNL1        0.0660
     72 H         -10.0383   -0.4271   -0.2276 H       1  UNL1        0.0691
     73 H         -11.6000    1.2363    2.5620 H       1  UNL1        0.0660
     74 H         -11.2030   -0.4567    2.2338 H       1  UNL1        0.0660
     75 H         -11.3560    0.6842    0.8483 H       1  UNL1        0.0660
     76 H          -7.0568    1.3033    2.1929 H       1  UNL1        0.0673
     77 H          -1.2224    0.9167    4.2212 H       1  UNL1        0.1048
@<TRIPOS>BOND
     1     1     2    2
     2     2     3    1
     3     3     4    2
     4     3     5   am
     5     5     6    1
     6     6     7   ar
     7     7     8   ar
     8     8     9    1
     9     9    10    1
    10    10    11    1
    11    11    12    1
    12    12    13    1
    13    13    14    1
    14    12    15    1
    15    15    16    1
    16     8    17   ar
    17    17    18   ar
    18    18    19   ar
    19    19    20    1
    20    20    21    1
    21    21    22   ar
    22    22    23   ar
    23    23    24    1
    24    24    25    1
    25    24    26   am
    26    26    27    2
    27    26    28   am
    28    28    29    1
    29    29    30   ar
    30    30    31   ar
    31    31    32    1
    32    32    33    1
    33    31    34   ar
    34    34    35   ar
    35    35    36    1
    36    36    37    1
    37    35    38   ar
    38    23    39   ar
    39    39    40   ar
    40    40    41   ar
    41    19     6   ar
    42    41    21   ar
    43    16     9    1
    44    38    29   ar
    45     1    42    1
    46     1    43    1
    47     2    44    1
    48     5    45    1
    49     7    46    1
    50    10    47    1
    51    10    48    1
    52    11    49    1
    53    11    50    1
    54    13    51    1
    55    13    52    1
    56    14    53    1
    57    14    54    1
    58    14    55    1
    59    15    56    1
    60    15    57    1
    61    16    58    1
    62    16    59    1
    63    17    60    1
    64    18    61    1
    65    20    62    1
    66    22    63    1
    67    25    64    1
    68    25    65    1
    69    25    66    1
    70    28    67    1
    71    30    68    1
    72    33    69    1
    73    33    70    1
    74    33    71    1
    75    34    72    1
    76    37    73    1
    77    37    74    1
    78    37    75    1
    79    38    76    1
    80    40    77    1
