@<TRIPOS>MOLECULE
*****
 56 60 0 0 0
SMALL
GASTEIGER

@<TRIPOS>ATOM
      1 C          -4.7656    0.5280   -1.7040 C.3     1  UNL1       -0.0274
      2 C          -4.1392    0.4256   -0.3028 C.3     1  UNL1        0.1037
      3 O          -2.8260    0.2716   -0.3530 O.3     1  UNL1       -0.4725
      4 C          -1.7382   -0.4398   -0.0964 C.ar    1  UNL1        0.2265
      5 N          -0.4972    0.0260   -0.4559 N.ar    1  UNL1       -0.2121
      6 C           0.6500   -0.5961   -0.2507 C.ar    1  UNL1        0.0798
      7 C           1.9388   -0.0012   -0.6808 C.ar    1  UNL1        0.0380
      8 C           2.0956    1.2057   -1.3124 C.ar    1  UNL1        0.0586
      9 N           3.4236    1.4039   -1.5438 N.ar    1  UNL1       -0.1766
     10 N           4.0965    0.3523   -1.0729 N.ar    1  UNL1       -0.2423
     11 C           5.5212    0.1683   -1.1186 C.3     1  UNL1        0.1512
     12 C           6.0275   -0.7744   -0.0683 C.3     1  UNL1       -0.0059
     13 C           7.4216   -0.3848    0.4171 C.3     1  UNL1       -0.0468
     14 C           7.4134    1.0206    0.9914 C.3     1  UNL1       -0.0292
     15 C           6.1705    1.7025    0.4163 C.3     1  UNL1        0.0502
     16 O           6.1703    1.3940   -0.9503 O.3     1  UNL1       -0.3552
     17 C           3.1996   -0.5279   -0.5356 C.ar    1  UNL1        0.0375
     18 C           0.6258   -1.8193    0.3762 C.ar    1  UNL1       -0.0076
     19 C          -0.5704   -2.3712    0.7752 C.ar    1  UNL1        0.0999
     20 N          -0.8831   -3.5411    1.4031 N.ar    1  UNL1       -0.1712
     21 N          -2.1812   -3.6224    1.5719 N.ar    1  UNL1       -0.2732
     22 C          -2.9626   -4.6900    2.1935 C.3     1  UNL1        0.0302
     23 C          -2.7344   -2.4890    1.0475 C.ar    1  UNL1        0.0380
     24 C          -1.7503   -1.6744    0.5351 C.ar    1  UNL1        0.0812
     25 C          -4.5711    1.6528    0.5145 C.3     1  UNL1        0.0196
     26 C          -4.1339    2.9373   -0.1036 C.3     1  UNL1        0.0182
     27 N          -5.1816    3.2459   -1.0575 N.am    1  UNL1       -0.3149
     28 C          -6.3837    2.7606   -0.4882 C.2     1  UNL1        0.2135
     29 O          -7.5288    3.1577   -0.7925 O.2     1  UNL1       -0.2758
     30 C          -6.0828    1.7161    0.5178 C.3     1  UNL1        0.0315
     31 H          -4.4721   -0.4144   -2.2256 H       1  UNL1        0.0265
     32 H          -4.3665    1.3668   -2.2724 H       1  UNL1        0.0265
     33 H          -5.8707    0.5916   -1.6388 H       1  UNL1        0.0265
     34 H          -4.6827   -0.4116    0.1782 H       1  UNL1        0.0734
     35 H           1.3137    1.8972   -1.5887 H       1  UNL1        0.0854
     36 H           5.8276   -0.1860   -2.1463 H       1  UNL1        0.0852
     37 H           5.3355   -0.9047    0.7869 H       1  UNL1        0.0309
     38 H           6.1550   -1.7845   -0.5468 H       1  UNL1        0.0309
     39 H           8.0805   -0.3521   -0.4730 H       1  UNL1        0.0267
     40 H           7.7522   -1.1432    1.1319 H       1  UNL1        0.0267
     41 H           8.3024    1.6035    0.6786 H       1  UNL1        0.0287
     42 H           7.3473    0.9465    2.0939 H       1  UNL1        0.0287
     43 H           6.1947    2.7891    0.5386 H       1  UNL1        0.0560
     44 H           5.3087    1.2247    0.9360 H       1  UNL1        0.0560
     45 H           3.4032   -1.4824   -0.0682 H       1  UNL1        0.0834
     46 H           1.5443   -2.3571    0.5607 H       1  UNL1        0.0661
     47 H          -3.9561   -4.7021    1.7030 H       1  UNL1        0.0473
     48 H          -2.5180   -5.6792    2.0539 H       1  UNL1        0.0473
     49 H          -3.1636   -4.4491    3.2774 H       1  UNL1        0.0473
     50 H          -3.7758   -2.2667    1.0360 H       1  UNL1        0.0834
     51 H          -4.2166    1.5071    1.5366 H       1  UNL1        0.0356
     52 H          -3.1371    2.8787   -0.5880 H       1  UNL1        0.0466
     53 H          -4.1447    3.7146    0.7052 H       1  UNL1        0.0466
     54 H          -5.0597    3.7380   -1.9929 H       1  UNL1        0.1487
     55 H          -6.5622    0.7670    0.2725 H       1  UNL1        0.0363
     56 H          -6.4636    2.0714    1.5003 H       1  UNL1        0.0363
@<TRIPOS>BOND
     1     1     2    1
     2     2     3    1
     3     3     4    1
     4     4     5   ar
     5     5     6   ar
     6     6     7    1
     7     7     8   ar
     8     8     9   ar
     9     9    10   ar
    10    10    11    1
    11    11    12    1
    12    12    13    1
    13    13    14    1
    14    14    15    1
    15    15    16    1
    16    10    17   ar
    17     6    18   ar
    18    18    19   ar
    19    19    20   ar
    20    20    21   ar
    21    21    22    1
    22    21    23   ar
    23    23    24   ar
    24     2    25    1
    25    25    26    1
    26    26    27    1
    27    27    28   am
    28    28    29    2
    29    28    30    1
    30    24     4   ar
    31    30    25    1
    32    17     7   ar
    33    24    19   ar
    34    16    11    1
    35     1    31    1
    36     1    32    1
    37     1    33    1
    38     2    34    1
    39     8    35    1
    40    11    36    1
    41    12    37    1
    42    12    38    1
    43    13    39    1
    44    13    40    1
    45    14    41    1
    46    14    42    1
    47    15    43    1
    48    15    44    1
    49    17    45    1
    50    18    46    1
    51    22    47    1
    52    22    48    1
    53    22    49    1
    54    23    50    1
    55    25    51    1
    56    26    52    1
    57    26    53    1
    58    27    54    1
    59    30    55    1
    60    30    56    1
