
     RDKit          3D

 56 60  0  0  0  0  0  0  0  0999 V2000
   -4.7656    0.5280   -1.7040 C   0  0  0  0  0  0  0  0  0  0  0  0
   -4.1392    0.4256   -0.3028 C   0  0  1  0  0  0  0  0  0  0  0  0
   -2.8260    0.2716   -0.3530 O   0  0  0  0  0  0  0  0  0  0  0  0
   -1.7382   -0.4398   -0.0964 C   0  0  0  0  0  0  0  0  0  0  0  0
   -0.4972    0.0260   -0.4559 N   0  0  0  0  0  0  0  0  0  0  0  0
    0.6500   -0.5961   -0.2507 C   0  0  0  0  0  0  0  0  0  0  0  0
    1.9388   -0.0012   -0.6808 C   0  0  0  0  0  0  0  0  0  0  0  0
    2.0956    1.2057   -1.3124 C   0  0  0  0  0  0  0  0  0  0  0  0
    3.4236    1.4039   -1.5438 N   0  0  0  0  0  0  0  0  0  0  0  0
    4.0965    0.3523   -1.0729 N   0  0  0  0  0  0  0  0  0  0  0  0
    5.5212    0.1683   -1.1186 C   0  0  0  0  0  0  0  0  0  0  0  0
    6.0275   -0.7744   -0.0683 C   0  0  0  0  0  0  0  0  0  0  0  0
    7.4216   -0.3848    0.4171 C   0  0  0  0  0  0  0  0  0  0  0  0
    7.4134    1.0206    0.9914 C   0  0  0  0  0  0  0  0  0  0  0  0
    6.1705    1.7025    0.4163 C   0  0  0  0  0  0  0  0  0  0  0  0
    6.1703    1.3940   -0.9503 O   0  0  0  0  0  0  0  0  0  0  0  0
    3.1996   -0.5279   -0.5356 C   0  0  0  0  0  0  0  0  0  0  0  0
    0.6258   -1.8193    0.3762 C   0  0  0  0  0  0  0  0  0  0  0  0
   -0.5704   -2.3712    0.7752 C   0  0  0  0  0  0  0  0  0  0  0  0
   -0.8831   -3.5411    1.4031 N   0  0  0  0  0  0  0  0  0  0  0  0
   -2.1812   -3.6224    1.5719 N   0  0  0  0  0  0  0  0  0  0  0  0
   -2.9626   -4.6900    2.1935 C   0  0  0  0  0  0  0  0  0  0  0  0
   -2.7344   -2.4890    1.0475 C   0  0  0  0  0  0  0  0  0  0  0  0
   -1.7503   -1.6744    0.5351 C   0  0  0  0  0  0  0  0  0  0  0  0
   -4.5711    1.6528    0.5145 C   0  0  1  0  0  0  0  0  0  0  0  0
   -4.1339    2.9373   -0.1036 C   0  0  0  0  0  0  0  0  0  0  0  0
   -5.1816    3.2459   -1.0575 N   0  0  0  0  0  0  0  0  0  0  0  0
   -6.3837    2.7606   -0.4882 C   0  0  0  0  0  0  0  0  0  0  0  0
   -7.5288    3.1577   -0.7925 O   0  0  0  0  0  0  0  0  0  0  0  0
   -6.0828    1.7161    0.5178 C   0  0  0  0  0  0  0  0  0  0  0  0
   -4.4721   -0.4144   -2.2256 H   0  0  0  0  0  0  0  0  0  0  0  0
   -4.3665    1.3668   -2.2724 H   0  0  0  0  0  0  0  0  0  0  0  0
   -5.8707    0.5916   -1.6388 H   0  0  0  0  0  0  0  0  0  0  0  0
   -4.6827   -0.4116    0.1782 H   0  0  0  0  0  0  0  0  0  0  0  0
    1.3137    1.8972   -1.5887 H   0  0  0  0  0  0  0  0  0  0  0  0
    5.8276   -0.1860   -2.1463 H   0  0  0  0  0  0  0  0  0  0  0  0
    5.3355   -0.9047    0.7869 H   0  0  0  0  0  0  0  0  0  0  0  0
    6.1550   -1.7845   -0.5468 H   0  0  0  0  0  0  0  0  0  0  0  0
    8.0805   -0.3521   -0.4730 H   0  0  0  0  0  0  0  0  0  0  0  0
    7.7522   -1.1432    1.1319 H   0  0  0  0  0  0  0  0  0  0  0  0
    8.3024    1.6035    0.6786 H   0  0  0  0  0  0  0  0  0  0  0  0
    7.3473    0.9465    2.0939 H   0  0  0  0  0  0  0  0  0  0  0  0
    6.1947    2.7891    0.5386 H   0  0  0  0  0  0  0  0  0  0  0  0
    5.3087    1.2247    0.9360 H   0  0  0  0  0  0  0  0  0  0  0  0
    3.4032   -1.4824   -0.0682 H   0  0  0  0  0  0  0  0  0  0  0  0
    1.5443   -2.3571    0.5607 H   0  0  0  0  0  0  0  0  0  0  0  0
   -3.9561   -4.7021    1.7030 H   0  0  0  0  0  0  0  0  0  0  0  0
   -2.5180   -5.6792    2.0539 H   0  0  0  0  0  0  0  0  0  0  0  0
   -3.1636   -4.4491    3.2774 H   0  0  0  0  0  0  0  0  0  0  0  0
   -3.7758   -2.2667    1.0360 H   0  0  0  0  0  0  0  0  0  0  0  0
   -4.2166    1.5071    1.5366 H   0  0  0  0  0  0  0  0  0  0  0  0
   -3.1371    2.8787   -0.5880 H   0  0  0  0  0  0  0  0  0  0  0  0
   -4.1447    3.7146    0.7052 H   0  0  0  0  0  0  0  0  0  0  0  0
   -5.0597    3.7380   -1.9929 H   0  0  0  0  0  0  0  0  0  0  0  0
   -6.5622    0.7670    0.2725 H   0  0  0  0  0  0  0  0  0  0  0  0
   -6.4636    2.0714    1.5003 H   0  0  0  0  0  0  0  0  0  0  0  0
  1  2  1  0
  2  3  1  0
  3  4  1  0
  4  5  2  0
  5  6  1  0
  6  7  1  0
  7  8  1  0
  8  9  2  0
  9 10  1  0
 10 11  1  0
 11 12  1  0
 12 13  1  0
 13 14  1  0
 14 15  1  0
 15 16  1  0
 10 17  1  0
  6 18  2  0
 18 19  1  0
 19 20  2  0
 20 21  1  0
 21 22  1  0
 21 23  1  0
 23 24  2  0
  2 25  1  0
 25 26  1  0
 26 27  1  0
 27 28  1  0
 28 29  2  0
 28 30  1  0
 24  4  1  0
 30 25  1  0
 17  7  2  0
 24 19  1  0
 16 11  1  0
  1 31  1  0
  1 32  1  0
  1 33  1  0
  2 34  1  1
  8 35  1  0
 11 36  1  0
 12 37  1  0
 12 38  1  0
 13 39  1  0
 13 40  1  0
 14 41  1  0
 14 42  1  0
 15 43  1  0
 15 44  1  0
 17 45  1  0
 18 46  1  0
 22 47  1  0
 22 48  1  0
 22 49  1  0
 23 50  1  0
 25 51  1  1
 26 52  1  0
 26 53  1  0
 27 54  1  0
 30 55  1  0
 30 56  1  0
M  END
$$$$
