
     RDKit          3D

 57 61  0  0  0  0  0  0  0  0999 V2000
   -2.6467   -3.4073   -0.6821 C   0  0  0  0  0  0  0  0  0  0  0  0
   -1.7056   -2.4266   -0.0129 C   0  0  2  0  0  0  0  0  0  0  0  0
   -2.4978   -1.3236    0.6980 C   0  0  0  0  0  0  0  0  0  0  0  0
   -1.4937   -0.3074    1.0664 N   0  0  0  0  0  0  0  0  0  0  0  0
   -1.9361    0.9711    1.4655 C   0  0  0  0  0  0  0  0  0  0  0  0
   -1.1152    1.8686    1.7875 O   0  0  0  0  0  0  0  0  0  0  0  0
   -3.3496    1.3317    1.5304 C   0  0  0  0  0  0  0  0  0  0  0  0
   -4.1038    1.1542    2.6695 C   0  0  0  0  0  0  0  0  0  0  0  0
   -5.4420    1.4959    2.7301 C   0  0  0  0  0  0  0  0  0  0  0  0
   -6.0582    2.0322    1.6267 C   0  0  0  0  0  0  0  0  0  0  0  0
   -5.3068    2.2172    0.4673 C   0  0  0  0  0  0  0  0  0  0  0  0
   -3.9683    1.8692    0.4255 C   0  0  0  0  0  0  0  0  0  0  0  0
   -3.2740    2.0898   -0.7940 N   0  0  0  0  0  0  0  0  0  0  0  0
   -2.2122    2.8702   -0.8951 N   0  0  0  0  0  0  0  0  0  0  0  0
   -1.8151    2.8484   -2.1817 C   0  0  0  0  0  0  0  0  0  0  0  0
   -2.6613    2.0275   -2.8925 C   0  0  0  0  0  0  0  0  0  0  0  0
   -3.5563    1.5731   -1.9976 N   0  0  0  0  0  0  0  0  0  0  0  0
   -0.1127   -0.7210    0.9827 C   0  0  2  0  0  0  0  0  0  0  0  0
    0.8611    0.3290    1.3935 C   0  0  0  0  0  0  0  0  0  0  0  0
    2.2696   -0.1702    1.2857 C   0  0  0  0  0  0  0  0  0  0  0  0
    2.7689   -0.8433    2.3819 C   0  0  0  0  0  0  0  0  0  0  0  0
    4.0652   -1.3030    2.3109 C   0  0  0  0  0  0  0  0  0  0  0  0
    4.8450   -1.0966    1.1742 C   0  0  0  0  0  0  0  0  0  0  0  0
    4.3488   -0.4243    0.0776 C   0  0  0  0  0  0  0  0  0  0  0  0
    5.1498   -0.1989   -1.1203 C   0  0  0  0  0  0  0  0  0  0  0  0
    6.3985   -0.6279   -1.2203 N   0  0  0  0  0  0  0  0  0  0  0  0
    7.1842   -0.4450   -2.3088 C   0  0  0  0  0  0  0  0  0  0  0  0
    6.6383    0.2353   -3.3811 C   0  0  0  0  0  0  0  0  0  0  0  0
    5.3403    0.6877   -3.2918 C   0  0  0  0  0  0  0  0  0  0  0  0
    4.6210    0.4612   -2.1616 N   0  0  0  0  0  0  0  0  0  0  0  0
    3.0445    0.0323    0.1628 C   0  0  0  0  0  0  0  0  0  0  0  0
    0.2061   -1.3093   -0.3771 C   0  0  0  0  0  0  0  0  0  0  0  0
   -0.9650   -1.7973   -1.0067 O   0  0  0  0  0  0  0  0  0  0  0  0
   -3.4554   -2.8861   -1.2142 H   0  0  0  0  0  0  0  0  0  0  0  0
   -3.0149   -4.0989    0.1014 H   0  0  0  0  0  0  0  0  0  0  0  0
   -2.0718   -3.9863   -1.4353 H   0  0  0  0  0  0  0  0  0  0  0  0
   -1.0830   -2.9524    0.7376 H   0  0  0  0  0  0  0  0  0  0  0  0
   -3.0298   -1.6924    1.5738 H   0  0  0  0  0  0  0  0  0  0  0  0
   -3.1732   -0.9008   -0.0735 H   0  0  0  0  0  0  0  0  0  0  0  0
   -3.6648    0.7357    3.5646 H   0  0  0  0  0  0  0  0  0  0  0  0
   -6.0510    1.3639    3.6161 H   0  0  0  0  0  0  0  0  0  0  0  0
   -7.1134    2.3006    1.6777 H   0  0  0  0  0  0  0  0  0  0  0  0
   -5.8047    2.6420   -0.3988 H   0  0  0  0  0  0  0  0  0  0  0  0
   -0.9757    3.3890   -2.5655 H   0  0  0  0  0  0  0  0  0  0  0  0
   -2.6495    1.7713   -3.9477 H   0  0  0  0  0  0  0  0  0  0  0  0
   -0.0078   -1.5587    1.7272 H   0  0  0  0  0  0  0  0  0  0  0  0
    0.8378    1.2263    0.7095 H   0  0  0  0  0  0  0  0  0  0  0  0
    0.7128    0.6173    2.4539 H   0  0  0  0  0  0  0  0  0  0  0  0
    2.1588   -1.0084    3.2795 H   0  0  0  0  0  0  0  0  0  0  0  0
    4.4762   -1.8383    3.1708 H   0  0  0  0  0  0  0  0  0  0  0  0
    5.8628   -1.4608    1.1255 H   0  0  0  0  0  0  0  0  0  0  0  0
    8.2094   -0.8183   -2.3432 H   0  0  0  0  0  0  0  0  0  0  0  0
    7.2184    0.4113   -4.2774 H   0  0  0  0  0  0  0  0  0  0  0  0
    4.9389    1.2162   -4.1442 H   0  0  0  0  0  0  0  0  0  0  0  0
    2.6548    0.5677   -0.6957 H   0  0  0  0  0  0  0  0  0  0  0  0
    0.8840   -2.1830   -0.3085 H   0  0  0  0  0  0  0  0  0  0  0  0
    0.6201   -0.5500   -1.0827 H   0  0  0  0  0  0  0  0  0  0  0  0
  1  2  1  0
  2  3  1  0
  3  4  1  0
  4  5  1  0
  5  6  2  0
  5  7  1  0
  7  8  2  0
  8  9  1  0
  9 10  2  0
 10 11  1  0
 11 12  2  0
 12 13  1  0
 13 14  1  0
 14 15  2  0
 15 16  1  0
 16 17  2  0
  4 18  1  0
 18 19  1  0
 19 20  1  0
 20 21  2  0
 21 22  1  0
 22 23  2  0
 23 24  1  0
 24 25  1  0
 25 26  2  0
 26 27  1  0
 27 28  2  0
 28 29  1  0
 29 30  2  0
 24 31  2  0
 18 32  1  0
 32 33  1  0
 33  2  1  0
 12  7  1  0
 17 13  1  0
 31 20  1  0
 30 25  1  0
  1 34  1  0
  1 35  1  0
  1 36  1  0
  2 37  1  1
  3 38  1  0
  3 39  1  0
  8 40  1  0
  9 41  1  0
 10 42  1  0
 11 43  1  0
 15 44  1  0
 16 45  1  0
 18 46  1  1
 19 47  1  0
 19 48  1  0
 21 49  1  0
 22 50  1  0
 23 51  1  0
 27 52  1  0
 28 53  1  0
 29 54  1  0
 31 55  1  0
 32 56  1  0
 32 57  1  0
M  END
$$$$
