@<TRIPOS>MOLECULE
*****
 57 61 0 0 0
SMALL
GASTEIGER

@<TRIPOS>ATOM
      1 C          -2.6467   -3.4073   -0.6821 C.3     1  UNL1       -0.0372
      2 C          -1.7056   -2.4266   -0.0129 C.3     1  UNL1        0.0717
      3 C          -2.4978   -1.3236    0.6980 C.3     1  UNL1        0.0414
      4 N          -1.4937   -0.3074    1.0664 N.am    1  UNL1       -0.2895
      5 C          -1.9361    0.9711    1.4655 C.2     1  UNL1        0.2491
      6 O          -1.1152    1.8686    1.7875 O.2     1  UNL1       -0.2699
      7 C          -3.3496    1.3317    1.5304 C.ar    1  UNL1        0.0640
      8 C          -4.1038    1.1542    2.6695 C.ar    1  UNL1       -0.0475
      9 C          -5.4420    1.4959    2.7301 C.ar    1  UNL1       -0.0609
     10 C          -6.0582    2.0322    1.6267 C.ar    1  UNL1       -0.0597
     11 C          -5.3068    2.2172    0.4673 C.ar    1  UNL1       -0.0338
     12 C          -3.9683    1.8692    0.4255 C.ar    1  UNL1        0.0982
     13 N          -3.2740    2.0898   -0.7940 N.ar    1  UNL1       -0.1496
     14 N          -2.2122    2.8702   -0.8951 N.ar    1  UNL1       -0.1556
     15 C          -1.8151    2.8484   -2.1817 C.ar    1  UNL1        0.0697
     16 C          -2.6613    2.0275   -2.8925 C.ar    1  UNL1        0.0697
     17 N          -3.5563    1.5731   -1.9976 N.ar    1  UNL1       -0.1556
     18 C          -0.1127   -0.7210    0.9827 C.3     1  UNL1        0.0537
     19 C           0.8611    0.3290    1.3935 C.3     1  UNL1       -0.0068
     20 C           2.2696   -0.1702    1.2857 C.ar    1  UNL1       -0.0449
     21 C           2.7689   -0.8433    2.3819 C.ar    1  UNL1       -0.0585
     22 C           4.0652   -1.3030    2.3109 C.ar    1  UNL1       -0.0608
     23 C           4.8450   -1.0966    1.1742 C.ar    1  UNL1       -0.0510
     24 C           4.3488   -0.4243    0.0776 C.ar    1  UNL1        0.0194
     25 C           5.1498   -0.1989   -1.1203 C.ar    1  UNL1        0.1597
     26 N           6.3985   -0.6279   -1.2203 N.ar    1  UNL1       -0.2357
     27 C           7.1842   -0.4450   -2.3088 C.ar    1  UNL1        0.0314
     28 C           6.6383    0.2353   -3.3811 C.ar    1  UNL1       -0.0254
     29 C           5.3403    0.6877   -3.2918 C.ar    1  UNL1        0.0314
     30 N           4.6210    0.4612   -2.1616 N.ar    1  UNL1       -0.2357
     31 C           3.0445    0.0323    0.1628 C.ar    1  UNL1       -0.0478
     32 C           0.2061   -1.3093   -0.3771 C.3     1  UNL1        0.0669
     33 O          -0.9650   -1.7973   -1.0067 O.3     1  UNL1       -0.3734
     34 H          -3.4554   -2.8861   -1.2142 H       1  UNL1        0.0255
     35 H          -3.0149   -4.0989    0.1014 H       1  UNL1        0.0255
     36 H          -2.0718   -3.9863   -1.4353 H       1  UNL1        0.0255
     37 H          -1.0830   -2.9524    0.7376 H       1  UNL1        0.0609
     38 H          -3.0298   -1.6924    1.5738 H       1  UNL1        0.0490
     39 H          -3.1732   -0.9008   -0.0735 H       1  UNL1        0.0490
     40 H          -3.6648    0.7357    3.5646 H       1  UNL1        0.0626
     41 H          -6.0510    1.3639    3.6161 H       1  UNL1        0.0618
     42 H          -7.1134    2.3006    1.6777 H       1  UNL1        0.0618
     43 H          -5.8047    2.6420   -0.3988 H       1  UNL1        0.0639
     44 H          -0.9757    3.3890   -2.5655 H       1  UNL1        0.0864
     45 H          -2.6495    1.7713   -3.9477 H       1  UNL1        0.0864
     46 H          -0.0078   -1.5587    1.7272 H       1  UNL1        0.0526
     47 H           0.8378    1.2263    0.7095 H       1  UNL1        0.0332
     48 H           0.7128    0.6173    2.4539 H       1  UNL1        0.0332
     49 H           2.1588   -1.0084    3.2795 H       1  UNL1        0.0620
     50 H           4.4762   -1.8383    3.1708 H       1  UNL1        0.0618
     51 H           5.8628   -1.4608    1.1255 H       1  UNL1        0.0625
     52 H           8.2094   -0.8183   -2.3432 H       1  UNL1        0.0831
     53 H           7.2184    0.4113   -4.2774 H       1  UNL1        0.0648
     54 H           4.9389    1.2162   -4.1442 H       1  UNL1        0.0831
     55 H           2.6548    0.5677   -0.6957 H       1  UNL1        0.0627
     56 H           0.8840   -2.1830   -0.3085 H       1  UNL1        0.0578
     57 H           0.6201   -0.5500   -1.0827 H       1  UNL1        0.0578
@<TRIPOS>BOND
     1     1     2    1
     2     2     3    1
     3     3     4    1
     4     4     5   am
     5     5     6    2
     6     5     7    1
     7     7     8   ar
     8     8     9   ar
     9     9    10   ar
    10    10    11   ar
    11    11    12   ar
    12    12    13    1
    13    13    14   ar
    14    14    15   ar
    15    15    16   ar
    16    16    17   ar
    17     4    18    1
    18    18    19    1
    19    19    20    1
    20    20    21   ar
    21    21    22   ar
    22    22    23   ar
    23    23    24   ar
    24    24    25    1
    25    25    26   ar
    26    26    27   ar
    27    27    28   ar
    28    28    29   ar
    29    29    30   ar
    30    24    31   ar
    31    18    32    1
    32    32    33    1
    33    33     2    1
    34    12     7   ar
    35    17    13   ar
    36    31    20   ar
    37    30    25   ar
    38     1    34    1
    39     1    35    1
    40     1    36    1
    41     2    37    1
    42     3    38    1
    43     3    39    1
    44     8    40    1
    45     9    41    1
    46    10    42    1
    47    11    43    1
    48    15    44    1
    49    16    45    1
    50    18    46    1
    51    19    47    1
    52    19    48    1
    53    21    49    1
    54    22    50    1
    55    23    51    1
    56    27    52    1
    57    28    53    1
    58    29    54    1
    59    31    55    1
    60    32    56    1
    61    32    57    1
