
     RDKit          3D

 50 53  0  0  0  0  0  0  0  0999 V2000
    8.6214    1.6427   -0.3824 C   0  0  0  0  0  0  0  0  0  0  0  0
    7.3725    2.2250   -0.0178 O   0  0  0  0  0  0  0  0  0  0  0  0
    6.1972    1.4760   -0.0982 C   0  0  0  0  0  0  0  0  0  0  0  0
    4.9861    2.0144    0.2466 C   0  0  0  0  0  0  0  0  0  0  0  0
    3.8471    1.2729    0.1633 N   0  0  0  0  0  0  0  0  0  0  0  0
    3.8658   -0.0102   -0.2582 C   0  0  0  0  0  0  0  0  0  0  0  0
    2.7199   -0.7714   -0.3478 C   0  0  0  0  0  0  0  0  0  0  0  0
    1.4751   -0.2088   -0.0090 N   0  0  0  0  0  0  0  0  0  0  0  0
    0.2294   -0.8682    0.0010 C   0  0  0  0  0  0  0  0  0  0  0  0
    0.1526   -2.2280    0.1057 C   0  0  0  0  0  0  0  0  0  0  0  0
   -1.0798   -2.8968    0.0979 C   0  0  0  0  0  0  0  0  0  0  0  0
   -1.1472   -4.2393    0.2008 F   0  0  0  0  0  0  0  0  0  0  0  0
   -2.2233   -2.1615   -0.0171 C   0  0  0  0  0  0  0  0  0  0  0  0
   -3.4131   -2.8236   -0.0234 F   0  0  0  0  0  0  0  0  0  0  0  0
   -2.1618   -0.7593   -0.1252 C   0  0  0  0  0  0  0  0  0  0  0  0
   -3.4912   -0.1112   -0.2452 C   0  0  2  0  0  0  0  0  0  0  0  0
   -4.1676   -0.8607   -1.4227 C   0  0  0  0  0  0  0  0  0  0  0  0
   -3.5058    1.3289   -0.5285 C   0  0  0  0  0  0  0  0  0  0  0  0
   -4.6473    2.1034    0.1245 C   0  0  1  0  0  0  0  0  0  0  0  0
   -5.9549    1.9498   -0.5731 C   0  0  0  0  0  0  0  0  0  0  0  0
   -6.8703    2.7243    0.1539 F   0  0  0  0  0  0  0  0  0  0  0  0
   -6.4749    0.6721   -0.5391 F   0  0  0  0  0  0  0  0  0  0  0  0
   -5.9381    2.4476   -1.8371 F   0  0  0  0  0  0  0  0  0  0  0  0
   -4.7696    1.6990    1.4882 O   0  0  0  0  0  0  0  0  0  0  0  0
   -4.7813    0.3395    1.7209 C   0  0  0  0  0  0  0  0  0  0  0  0
   -5.4899   -0.0812    2.9063 N   0  0  0  0  0  0  0  0  0  0  0  0
   -4.2086   -0.4632    0.9429 N   0  0  0  0  0  0  0  0  0  0  0  0
   -0.9546   -0.1260   -0.1161 C   0  0  0  0  0  0  0  0  0  0  0  0
    2.8444   -2.0225   -0.7744 N   0  0  0  0  0  0  0  0  0  0  0  0
    4.0203   -2.5791   -1.1200 C   0  0  0  0  0  0  0  0  0  0  0  0
    5.1803   -1.8426   -1.0405 C   0  0  0  0  0  0  0  0  0  0  0  0
    5.1073   -0.5329   -0.6020 C   0  0  0  0  0  0  0  0  0  0  0  0
    6.2331    0.1940   -0.5216 N   0  0  0  0  0  0  0  0  0  0  0  0
    9.3758    2.4436   -0.5034 H   0  0  0  0  0  0  0  0  0  0  0  0
    8.9173    0.9734    0.4457 H   0  0  0  0  0  0  0  0  0  0  0  0
    8.5422    1.0697   -1.3291 H   0  0  0  0  0  0  0  0  0  0  0  0
    4.9219    3.0488    0.5933 H   0  0  0  0  0  0  0  0  0  0  0  0
    1.4355    0.8208    0.2761 H   0  0  0  0  0  0  0  0  0  0  0  0
    1.0031   -2.8999    0.2116 H   0  0  0  0  0  0  0  0  0  0  0  0
   -4.9877   -1.5090   -1.0499 H   0  0  0  0  0  0  0  0  0  0  0  0
   -3.4549   -1.5264   -1.9402 H   0  0  0  0  0  0  0  0  0  0  0  0
   -4.4934   -0.1146   -2.1725 H   0  0  0  0  0  0  0  0  0  0  0  0
   -2.6098    1.9159   -0.3050 H   0  0  0  0  0  0  0  0  0  0  0  0
   -3.6821    1.4844   -1.6369 H   0  0  0  0  0  0  0  0  0  0  0  0
   -4.3924    3.1707    0.1304 H   0  0  0  0  0  0  0  0  0  0  0  0
   -5.1680    0.3590    3.7958 H   0  0  0  0  0  0  0  0  0  0  0  0
   -6.2531   -0.7670    2.8475 H   0  0  0  0  0  0  0  0  0  0  0  0
   -0.9250    0.9416   -0.1999 H   0  0  0  0  0  0  0  0  0  0  0  0
    4.0858   -3.5960   -1.4620 H   0  0  0  0  0  0  0  0  0  0  0  0
    6.1114   -2.3184   -1.3256 H   0  0  0  0  0  0  0  0  0  0  0  0
  1  2  1  0
  2  3  1  0
  3  4  2  0
  4  5  1  0
  5  6  2  0
  6  7  1  0
  7  8  1  0
  8  9  1  0
  9 10  2  0
 10 11  1  0
 11 12  1  0
 11 13  2  0
 13 14  1  0
 13 15  1  0
 15 16  1  0
 16 17  1  6
 16 18  1  0
 18 19  1  0
 19 20  1  0
 20 21  1  0
 20 22  1  0
 20 23  1  0
 19 24  1  0
 24 25  1  0
 25 26  1  0
 25 27  2  0
 15 28  2  0
  7 29  2  0
 29 30  1  0
 30 31  2  0
 31 32  1  0
 32 33  2  0
 33  3  1  0
 32  6  1  0
 28  9  1  0
 27 16  1  0
  1 34  1  0
  1 35  1  0
  1 36  1  0
  4 37  1  0
  8 38  1  0
 10 39  1  0
 17 40  1  0
 17 41  1  0
 17 42  1  0
 18 43  1  0
 18 44  1  0
 19 45  1  1
 26 46  1  0
 26 47  1  0
 28 48  1  0
 30 49  1  0
 31 50  1  0
M  END
$$$$
