@<TRIPOS>MOLECULE
*****
 50 53 0 0 0
SMALL
GASTEIGER

@<TRIPOS>ATOM
      1 C           8.6214    1.6427   -0.3824 C.3     1  UNL1        0.0805
      2 O           7.3725    2.2250   -0.0178 O.3     1  UNL1       -0.4786
      3 C           6.1972    1.4760   -0.0982 C.ar    1  UNL1        0.2338
      4 C           4.9861    2.0144    0.2466 C.ar    1  UNL1        0.0899
      5 N           3.8471    1.2729    0.1633 N.ar    1  UNL1       -0.2447
      6 C           3.8658   -0.0102   -0.2582 C.ar    1  UNL1        0.1293
      7 C           2.7199   -0.7714   -0.3478 C.ar    1  UNL1        0.1506
      8 N           1.4751   -0.2088   -0.0090 N.pl3   1  UNL1       -0.2976
      9 C           0.2294   -0.8682    0.0010 C.ar    1  UNL1        0.0357
     10 C           0.1526   -2.2280    0.1057 C.ar    1  UNL1       -0.0024
     11 C          -1.0798   -2.8968    0.0979 C.ar    1  UNL1        0.1605
     12 F          -1.1472   -4.2393    0.2008 F       1  UNL1       -0.2024
     13 C          -2.2233   -2.1615   -0.0171 C.ar    1  UNL1        0.1640
     14 F          -3.4131   -2.8236   -0.0234 F       1  UNL1       -0.2021
     15 C          -2.1618   -0.7593   -0.1252 C.ar    1  UNL1        0.0197
     16 C          -3.4912   -0.1112   -0.2452 C.3     1  UNL1        0.0952
     17 C          -4.1676   -0.8607   -1.4227 C.3     1  UNL1       -0.0352
     18 C          -3.5058    1.3289   -0.5285 C.3     1  UNL1        0.0223
     19 C          -4.6473    2.1034    0.1245 C.3     1  UNL1        0.1997
     20 C          -5.9549    1.9498   -0.5731 C.3     1  UNL1        0.4266
     21 F          -6.8703    2.7243    0.1539 F       1  UNL1       -0.1669
     22 F          -6.4749    0.6721   -0.5391 F       1  UNL1       -0.1669
     23 F          -5.9381    2.4476   -1.8371 F       1  UNL1       -0.1669
     24 O          -4.7696    1.6990    1.4882 O.2     1  UNL1       -0.4534
     25 C          -4.7813    0.3395    1.7209 C.2     1  UNL1        0.2765
     26 N          -5.4899   -0.0812    2.9063 N.pl3   1  UNL1       -0.3134
     27 N          -4.2086   -0.4632    0.9429 N.2     1  UNL1       -0.2257
     28 C          -0.9546   -0.1260   -0.1161 C.ar    1  UNL1       -0.0321
     29 N           2.8444   -2.0225   -0.7744 N.ar    1  UNL1       -0.2379
     30 C           4.0203   -2.5791   -1.1200 C.ar    1  UNL1        0.0318
     31 C           5.1803   -1.8426   -1.0405 C.ar    1  UNL1       -0.0158
     32 C           5.1073   -0.5329   -0.6020 C.ar    1  UNL1        0.0978
     33 N           6.2331    0.1940   -0.5216 N.ar    1  UNL1       -0.2099
     34 H           9.3758    2.4436   -0.5034 H       1  UNL1        0.0660
     35 H           8.9173    0.9734    0.4457 H       1  UNL1        0.0660
     36 H           8.5422    1.0697   -1.3291 H       1  UNL1        0.0660
     37 H           4.9219    3.0488    0.5933 H       1  UNL1        0.0884
     38 H           1.4355    0.8208    0.2761 H       1  UNL1        0.1536
     39 H           1.0031   -2.8999    0.2116 H       1  UNL1        0.0666
     40 H          -4.9877   -1.5090   -1.0499 H       1  UNL1        0.0256
     41 H          -3.4549   -1.5264   -1.9402 H       1  UNL1        0.0256
     42 H          -4.4934   -0.1146   -2.1725 H       1  UNL1        0.0256
     43 H          -2.6098    1.9159   -0.3050 H       1  UNL1        0.0330
     44 H          -3.6821    1.4844   -1.6369 H       1  UNL1        0.0330
     45 H          -4.3924    3.1707    0.1304 H       1  UNL1        0.0826
     46 H          -5.1680    0.3590    3.7958 H       1  UNL1        0.1466
     47 H          -6.2531   -0.7670    2.8475 H       1  UNL1        0.1466
     48 H          -0.9250    0.9416   -0.1999 H       1  UNL1        0.0640
     49 H           4.0858   -3.5960   -1.4620 H       1  UNL1        0.0831
     50 H           6.1114   -2.3184   -1.3256 H       1  UNL1        0.0655
@<TRIPOS>BOND
     1     1     2    1
     2     2     3    1
     3     3     4   ar
     4     4     5   ar
     5     5     6   ar
     6     6     7   ar
     7     7     8    1
     8     8     9    1
     9     9    10   ar
    10    10    11   ar
    11    11    12    1
    12    11    13   ar
    13    13    14    1
    14    13    15   ar
    15    15    16    1
    16    16    17    1
    17    16    18    1
    18    18    19    1
    19    19    20    1
    20    20    21    1
    21    20    22    1
    22    20    23    1
    23    19    24    1
    24    24    25    1
    25    25    26    1
    26    25    27    2
    27    15    28   ar
    28     7    29   ar
    29    29    30   ar
    30    30    31   ar
    31    31    32   ar
    32    32    33   ar
    33    33     3   ar
    34    32     6   ar
    35    28     9   ar
    36    27    16    1
    37     1    34    1
    38     1    35    1
    39     1    36    1
    40     4    37    1
    41     8    38    1
    42    10    39    1
    43    17    40    1
    44    17    41    1
    45    17    42    1
    46    18    43    1
    47    18    44    1
    48    19    45    1
    49    26    46    1
    50    26    47    1
    51    28    48    1
    52    30    49    1
    53    31    50    1
