@<TRIPOS>MOLECULE
*****
 64 67 0 0 0
SMALL
GASTEIGER

@<TRIPOS>ATOM
      1 C           3.2090   -3.5226    3.5374 C.3     1  UNL1       -0.0396
      2 C           3.1194   -2.3934    2.5730 C.ar    1  UNL1       -0.0467
      3 C           4.2393   -1.7253    2.1256 C.ar    1  UNL1       -0.0539
      4 C           4.1269   -0.6751    1.2258 C.ar    1  UNL1       -0.0224
      5 C           5.3169    0.0661    0.7237 C.3     1  UNL1        0.0959
      6 S           5.9635   -0.6777   -0.7534 S.O2    1  UNL1        0.0010
      7 O           4.9222   -0.5631   -1.8225 O.2     1  UNL1       -0.1690
      8 O           6.3938   -2.0942   -0.5267 O.2     1  UNL1       -0.1690
      9 C           7.3532    0.2704   -1.2533 C.ar    1  UNL1        0.0885
     10 C           7.1751    1.3348   -2.1100 C.ar    1  UNL1       -0.0369
     11 C           8.2628    2.0806   -2.5043 C.ar    1  UNL1       -0.0600
     12 C           9.5384    1.7856   -2.0588 C.ar    1  UNL1       -0.0616
     13 C           9.6881    0.7168   -1.2036 C.ar    1  UNL1       -0.0600
     14 C           8.6054   -0.0387   -0.8008 C.ar    1  UNL1       -0.0369
     15 C           2.8977   -0.2772    0.7602 C.ar    1  UNL1       -0.0152
     16 C           1.7600   -0.9311    1.1937 C.ar    1  UNL1        0.1215
     17 O           0.5344   -0.5335    0.7288 O.3     1  UNL1       -0.4874
     18 C          -0.6849   -1.1072    1.0858 C.3     1  UNL1        0.1146
     19 C          -1.7900   -0.4011    0.3724 C.ar    1  UNL1       -0.0104
     20 C          -2.4190    0.6964    0.9210 C.ar    1  UNL1       -0.0551
     21 C          -3.4451    1.3607    0.2692 C.ar    1  UNL1       -0.0570
     22 C          -3.8810    0.9433   -0.9688 C.ar    1  UNL1       -0.0333
     23 C          -4.9770    1.6081   -1.7212 C.3     1  UNL1        0.0244
     24 N          -6.2108    0.9917   -1.3880 N.3     1  UNL1       -0.2931
     25 C          -6.2913   -0.4017   -1.6884 C.3     1  UNL1       -0.0004
     26 C          -7.7016   -0.7363   -1.1912 C.3     1  UNL1       -0.0387
     27 C          -7.7748    0.0911    0.0741 C.3     1  UNL1       -0.0340
     28 C          -6.7155    1.1922   -0.0792 C.3     1  UNL1        0.0339
     29 C          -7.3969    2.5011    0.1503 C.3     1  UNL1        0.0598
     30 O          -8.5004    2.6811   -0.6881 O.3     1  UNL1       -0.3935
     31 C          -3.2398   -0.1675   -1.5171 C.ar    1  UNL1       -0.0570
     32 C          -2.2183   -0.8282   -0.8675 C.ar    1  UNL1       -0.0551
     33 C           1.8832   -1.9714    2.0863 C.ar    1  UNL1       -0.0170
     34 H           4.1185   -4.1130    3.2449 H       1  UNL1        0.0278
     35 H           2.3009   -4.1598    3.3923 H       1  UNL1        0.0278
     36 H           3.2908   -3.1739    4.5867 H       1  UNL1        0.0278
     37 H           5.2177   -1.9990    2.4599 H       1  UNL1        0.0623
     38 H           6.1141    0.1175    1.4845 H       1  UNL1        0.0554
     39 H           5.0471    1.1080    0.4720 H       1  UNL1        0.0554
     40 H           6.1723    1.5708   -2.4634 H       1  UNL1        0.0636
     41 H           8.1726    2.9281   -3.1776 H       1  UNL1        0.0618
     42 H          10.3913    2.3716   -2.3691 H       1  UNL1        0.0618
     43 H          10.6867    0.4973   -0.8638 H       1  UNL1        0.0618
     44 H           8.7471   -0.8738   -0.1285 H       1  UNL1        0.0636
     45 H           2.8035    0.5476    0.0528 H       1  UNL1        0.0657
     46 H          -0.8574   -1.1518    2.1785 H       1  UNL1        0.0748
     47 H          -0.6542   -2.1791    0.7418 H       1  UNL1        0.0748
     48 H          -2.0708    1.0244    1.9024 H       1  UNL1        0.0621
     49 H          -3.9092    2.2206    0.7379 H       1  UNL1        0.0621
     50 H          -4.7618    1.4593   -2.8121 H       1  UNL1        0.0476
     51 H          -4.9128    2.6747   -1.4982 H       1  UNL1        0.0476
     52 H          -6.2555   -0.6282   -2.7564 H       1  UNL1        0.0427
     53 H          -5.5328   -0.9777   -1.1224 H       1  UNL1        0.0427
     54 H          -8.4617   -0.4861   -1.9297 H       1  UNL1        0.0278
     55 H          -7.6784   -1.8344   -0.9475 H       1  UNL1        0.0278
     56 H          -8.8103    0.5421    0.0746 H       1  UNL1        0.0281
     57 H          -7.6058   -0.4976    0.9785 H       1  UNL1        0.0281
     58 H          -5.9848    1.0401    0.7317 H       1  UNL1        0.0485
     59 H          -7.8293    2.4601    1.1940 H       1  UNL1        0.0573
     60 H          -6.7139    3.3647    0.1570 H       1  UNL1        0.0573
     61 H          -8.4866    3.5680   -1.1074 H       1  UNL1        0.2095
     62 H          -3.5721   -0.5043   -2.4866 H       1  UNL1        0.0621
     63 H          -1.7213   -1.6953   -1.3008 H       1  UNL1        0.0621
     64 H           1.0127   -2.4955    2.4381 H       1  UNL1        0.0657
@<TRIPOS>BOND
     1     1     2    1
     2     2     3   ar
     3     3     4   ar
     4     4     5    1
     5     5     6    1
     6     6     7    2
     7     6     8    2
     8     6     9    1
     9     9    10   ar
    10    10    11   ar
    11    11    12   ar
    12    12    13   ar
    13    13    14   ar
    14     4    15   ar
    15    15    16   ar
    16    16    17    1
    17    17    18    1
    18    18    19    1
    19    19    20   ar
    20    20    21   ar
    21    21    22   ar
    22    22    23    1
    23    23    24    1
    24    24    25    1
    25    25    26    1
    26    26    27    1
    27    27    28    1
    28    28    29    1
    29    29    30    1
    30    22    31   ar
    31    31    32   ar
    32    16    33   ar
    33    33     2   ar
    34    14     9   ar
    35    32    19   ar
    36    28    24    1
    37     1    34    1
    38     1    35    1
    39     1    36    1
    40     3    37    1
    41     5    38    1
    42     5    39    1
    43    10    40    1
    44    11    41    1
    45    12    42    1
    46    13    43    1
    47    14    44    1
    48    15    45    1
    49    18    46    1
    50    18    47    1
    51    20    48    1
    52    21    49    1
    53    23    50    1
    54    23    51    1
    55    25    52    1
    56    25    53    1
    57    26    54    1
    58    26    55    1
    59    27    56    1
    60    27    57    1
    61    28    58    1
    62    29    59    1
    63    29    60    1
    64    30    61    1
    65    31    62    1
    66    32    63    1
    67    33    64    1
