
     RDKit          3D

 50 54  0  0  0  0  0  0  0  0999 V2000
   -7.0869    4.1066   -1.5935 Cl  0  0  0  0  0  0  0  0  0  0  0  0
   -6.0186    2.7854   -1.1770 C   0  0  0  0  0  0  0  0  0  0  0  0
   -5.6820    2.5766    0.1599 C   0  0  0  0  0  0  0  0  0  0  0  0
   -4.8336    1.5278    0.4941 C   0  0  0  0  0  0  0  0  0  0  0  0
   -4.3122    0.6852   -0.4522 C   0  0  0  0  0  0  0  0  0  0  0  0
   -3.4126   -0.4235   -0.0799 C   0  0  0  0  0  0  0  0  0  0  0  0
   -2.8541   -1.3068   -0.9802 C   0  0  0  0  0  0  0  0  0  0  0  0
   -2.0916   -2.1660   -0.1964 C   0  0  0  0  0  0  0  0  0  0  0  0
   -2.2132   -1.7804    1.1225 C   0  0  0  0  0  0  0  0  0  0  0  0
   -1.5623   -2.4317    2.2697 C   0  0  0  0  0  0  0  0  0  0  0  0
   -2.1396   -3.1887    3.2219 N   0  0  0  0  0  0  0  0  0  0  0  0
   -1.2150   -3.6004    4.0935 C   0  0  0  0  0  0  0  0  0  0  0  0
   -0.0265   -3.0685    3.6483 C   0  0  0  0  0  0  0  0  0  0  0  0
   -0.2499   -2.3512    2.5258 N   0  0  0  0  0  0  0  0  0  0  0  0
    0.6950   -1.6344    1.7381 C   0  0  0  0  0  0  0  0  0  0  0  0
    0.8842   -0.2748    1.8673 C   0  0  0  0  0  0  0  0  0  0  0  0
    1.8106    0.3928    1.0868 C   0  0  0  0  0  0  0  0  0  0  0  0
    2.5911   -0.2596    0.1424 C   0  0  0  0  0  0  0  0  0  0  0  0
    3.5284    0.4548   -0.6347 N   0  0  0  0  0  0  0  0  0  0  0  0
    3.7037    1.8865   -0.3757 C   0  0  0  0  0  0  0  0  0  0  0  0
    5.0511    2.3128   -0.9598 C   0  0  0  0  0  0  0  0  0  0  0  0
    5.0723    2.1227   -2.3852 N   0  0  0  0  0  0  0  0  0  0  0  0
    4.4024    0.9271   -2.8028 C   0  0  0  0  0  0  0  0  0  0  0  0
    4.3397   -0.1025   -1.6768 C   0  0  0  0  0  0  0  0  0  0  0  0
    2.3972   -1.6173    0.0185 C   0  0  0  0  0  0  0  0  0  0  0  0
    1.4610   -2.2997    0.8055 C   0  0  0  0  0  0  0  0  0  0  0  0
   -3.0099   -0.7402    1.1309 O   0  0  0  0  0  0  0  0  0  0  0  0
   -4.6434    0.8901   -1.7719 C   0  0  0  0  0  0  0  0  0  0  0  0
   -5.4935    1.9375   -2.1259 C   0  0  0  0  0  0  0  0  0  0  0  0
   -6.0850    3.2319    0.9149 H   0  0  0  0  0  0  0  0  0  0  0  0
   -4.5724    1.3666    1.5363 H   0  0  0  0  0  0  0  0  0  0  0  0
   -2.9922   -1.3116   -2.0548 H   0  0  0  0  0  0  0  0  0  0  0  0
   -1.5129   -2.9870   -0.5821 H   0  0  0  0  0  0  0  0  0  0  0  0
   -1.4090   -4.2232    4.9572 H   0  0  0  0  0  0  0  0  0  0  0  0
    0.9438   -3.1846    4.0967 H   0  0  0  0  0  0  0  0  0  0  0  0
    0.3117    0.2926    2.5810 H   0  0  0  0  0  0  0  0  0  0  0  0
    1.9154    1.4765    1.2352 H   0  0  0  0  0  0  0  0  0  0  0  0
    2.9136    2.4941   -0.8450 H   0  0  0  0  0  0  0  0  0  0  0  0
    3.7836    2.0896    0.7259 H   0  0  0  0  0  0  0  0  0  0  0  0
    5.1881    3.3969   -0.7564 H   0  0  0  0  0  0  0  0  0  0  0  0
    5.8819    1.7977   -0.4390 H   0  0  0  0  0  0  0  0  0  0  0  0
    4.7061    2.9698   -2.8393 H   0  0  0  0  0  0  0  0  0  0  0  0
    4.8533    0.5238   -3.7137 H   0  0  0  0  0  0  0  0  0  0  0  0
    3.3479    1.2062   -3.0640 H   0  0  0  0  0  0  0  0  0  0  0  0
    3.9696   -1.0656   -2.0315 H   0  0  0  0  0  0  0  0  0  0  0  0
    5.4072   -0.2318   -1.3390 H   0  0  0  0  0  0  0  0  0  0  0  0
    2.9659   -2.1943   -0.6922 H   0  0  0  0  0  0  0  0  0  0  0  0
    1.3066   -3.3614    0.7113 H   0  0  0  0  0  0  0  0  0  0  0  0
   -4.2711    0.2691   -2.5598 H   0  0  0  0  0  0  0  0  0  0  0  0
   -5.7438    2.0845   -3.1686 H   0  0  0  0  0  0  0  0  0  0  0  0
  1  2  1  0
  2  3  2  0
  3  4  1  0
  4  5  2  0
  5  6  1  0
  6  7  2  0
  7  8  1  0
  8  9  2  0
  9 10  1  0
 10 11  2  0
 11 12  1  0
 12 13  2  0
 13 14  1  0
 14 15  1  0
 15 16  2  0
 16 17  1  0
 17 18  2  0
 18 19  1  0
 19 20  1  0
 20 21  1  0
 21 22  1  0
 22 23  1  0
 23 24  1  0
 18 25  1  0
 25 26  2  0
  9 27  1  0
  5 28  1  0
 28 29  2  0
 29  2  1  0
 27  6  1  0
 14 10  1  0
 26 15  1  0
 24 19  1  0
  3 30  1  0
  4 31  1  0
  7 32  1  0
  8 33  1  0
 12 34  1  0
 13 35  1  0
 16 36  1  0
 17 37  1  0
 20 38  1  0
 20 39  1  0
 21 40  1  0
 21 41  1  0
 22 42  1  0
 23 43  1  0
 23 44  1  0
 24 45  1  0
 24 46  1  0
 25 47  1  0
 26 48  1  0
 28 49  1  0
 29 50  1  0
M  END
$$$$
