@<TRIPOS>MOLECULE
*****
 50 54 0 0 0
SMALL
GASTEIGER

@<TRIPOS>ATOM
      1 CL         -7.0869    4.1066   -1.5935 Cl      1  UNL1       -0.0835
      2 C          -6.0186    2.7854   -1.1770 C.ar    1  UNL1        0.0410
      3 C          -5.6820    2.5766    0.1599 C.ar    1  UNL1       -0.0427
      4 C          -4.8336    1.5278    0.4941 C.ar    1  UNL1       -0.0497
      5 C          -4.3122    0.6852   -0.4522 C.ar    1  UNL1        0.0174
      6 C          -3.4126   -0.4235   -0.0799 C.ar    1  UNL1        0.1358
      7 C          -2.8541   -1.3068   -0.9802 C.ar    1  UNL1       -0.0152
      8 C          -2.0916   -2.1660   -0.1964 C.ar    1  UNL1       -0.0122
      9 C          -2.2132   -1.7804    1.1225 C.ar    1  UNL1        0.1711
     10 C          -1.5623   -2.4317    2.2697 C.ar    1  UNL1        0.1811
     11 N          -2.1396   -3.1887    3.2219 N.ar    1  UNL1       -0.2328
     12 C          -1.2150   -3.6004    4.0935 C.ar    1  UNL1        0.0465
     13 C          -0.0265   -3.0685    3.6483 C.ar    1  UNL1        0.0299
     14 N          -0.2499   -2.3512    2.5258 N.ar    1  UNL1       -0.2970
     15 C           0.6950   -1.6344    1.7381 C.ar    1  UNL1        0.0482
     16 C           0.8842   -0.2748    1.8673 C.ar    1  UNL1       -0.0361
     17 C           1.8106    0.3928    1.0868 C.ar    1  UNL1       -0.0387
     18 C           2.5911   -0.2596    0.1424 C.ar    1  UNL1        0.0299
     19 N           3.5284    0.4548   -0.6347 N.pl3   1  UNL1       -0.3275
     20 C           3.7037    1.8865   -0.3757 C.3     1  UNL1        0.0248
     21 C           5.0511    2.3128   -0.9598 C.3     1  UNL1        0.0117
     22 N           5.0723    2.1227   -2.3852 N.3     1  UNL1       -0.3130
     23 C           4.4024    0.9271   -2.8028 C.3     1  UNL1        0.0117
     24 C           4.3397   -0.1025   -1.6768 C.3     1  UNL1        0.0248
     25 C           2.3972   -1.6173    0.0185 C.ar    1  UNL1       -0.0387
     26 C           1.4610   -2.2997    0.8055 C.ar    1  UNL1       -0.0361
     27 O          -3.0099   -0.7402    1.1309 O.2     1  UNL1       -0.4518
     28 C          -4.6434    0.8901   -1.7719 C.ar    1  UNL1       -0.0497
     29 C          -5.4935    1.9375   -2.1259 C.ar    1  UNL1       -0.0427
     30 H          -6.0850    3.2319    0.9149 H       1  UNL1        0.0632
     31 H          -4.5724    1.3666    1.5363 H       1  UNL1        0.0625
     32 H          -2.9922   -1.3116   -2.0548 H       1  UNL1        0.0656
     33 H          -1.5129   -2.9870   -0.5821 H       1  UNL1        0.0657
     34 H          -1.4090   -4.2232    4.9572 H       1  UNL1        0.0845
     35 H           0.9438   -3.1846    4.0967 H       1  UNL1        0.0829
     36 H           0.3117    0.2926    2.5810 H       1  UNL1        0.0639
     37 H           1.9154    1.4765    1.2352 H       1  UNL1        0.0637
     38 H           2.9136    2.4941   -0.8450 H       1  UNL1        0.0476
     39 H           3.7836    2.0896    0.7259 H       1  UNL1        0.0476
     40 H           5.1881    3.3969   -0.7564 H       1  UNL1        0.0439
     41 H           5.8819    1.7977   -0.4390 H       1  UNL1        0.0439
     42 H           4.7061    2.9698   -2.8393 H       1  UNL1        0.1220
     43 H           4.8533    0.5238   -3.7137 H       1  UNL1        0.0439
     44 H           3.3479    1.2062   -3.0640 H       1  UNL1        0.0439
     45 H           3.9696   -1.0656   -2.0315 H       1  UNL1        0.0476
     46 H           5.4072   -0.2318   -1.3390 H       1  UNL1        0.0476
     47 H           2.9659   -2.1943   -0.6922 H       1  UNL1        0.0637
     48 H           1.3066   -3.3614    0.7113 H       1  UNL1        0.0639
     49 H          -4.2711    0.2691   -2.5598 H       1  UNL1        0.0625
     50 H          -5.7438    2.0845   -3.1686 H       1  UNL1        0.0632
@<TRIPOS>BOND
     1     1     2    1
     2     2     3   ar
     3     3     4   ar
     4     4     5   ar
     5     5     6    1
     6     6     7   ar
     7     7     8   ar
     8     8     9   ar
     9     9    10    1
    10    10    11   ar
    11    11    12   ar
    12    12    13   ar
    13    13    14   ar
    14    14    15    1
    15    15    16   ar
    16    16    17   ar
    17    17    18   ar
    18    18    19    1
    19    19    20    1
    20    20    21    1
    21    21    22    1
    22    22    23    1
    23    23    24    1
    24    18    25   ar
    25    25    26   ar
    26     9    27   ar
    27     5    28   ar
    28    28    29   ar
    29    29     2   ar
    30    27     6   ar
    31    14    10   ar
    32    26    15   ar
    33    24    19    1
    34     3    30    1
    35     4    31    1
    36     7    32    1
    37     8    33    1
    38    12    34    1
    39    13    35    1
    40    16    36    1
    41    17    37    1
    42    20    38    1
    43    20    39    1
    44    21    40    1
    45    21    41    1
    46    22    42    1
    47    23    43    1
    48    23    44    1
    49    24    45    1
    50    24    46    1
    51    25    47    1
    52    26    48    1
    53    28    49    1
    54    29    50    1
