@<TRIPOS>MOLECULE
*****
 40 42 0 0 0
SMALL
GASTEIGER

@<TRIPOS>ATOM
      1 O           1.9040   -1.1793    0.4411 O.2     1  UNL1       -0.2698
      2 C           1.8233   -0.0707   -0.1899 C.2     1  UNL1        0.2484
      3 N           2.9839    0.3462   -0.8857 N.am    1  UNL1       -0.2790
      4 C           4.1618   -0.4575   -0.8593 C.ar    1  UNL1        0.0736
      5 C           4.4250   -1.4443   -1.7843 C.ar    1  UNL1        0.0816
      6 CL          3.2967   -1.7697   -3.0723 Cl      1  UNL1       -0.0800
      7 C           5.5839   -2.1867   -1.7027 C.ar    1  UNL1        0.0478
      8 N           6.4914   -1.9653   -0.7132 N.ar    1  UNL1       -0.2602
      9 C           6.2622   -1.0099    0.2031 C.ar    1  UNL1        0.0478
     10 C           5.1044   -0.2649    0.1254 C.ar    1  UNL1        0.0816
     11 CL          4.8461    0.9752    1.3463 Cl      1  UNL1       -0.0800
     12 C           0.5895    0.6836   -0.1653 C.ar    1  UNL1        0.0407
     13 C           0.4584    1.8711   -0.8241 C.ar    1  UNL1       -0.0459
     14 C          -0.7306    2.6018   -0.8026 C.ar    1  UNL1       -0.0154
     15 C          -1.8031    2.1210   -0.1025 C.ar    1  UNL1        0.1683
     16 O          -2.9802    2.8106   -0.0611 O.3     1  UNL1       -0.4305
     17 C          -3.3147    4.0169   -0.6526 C.3     1  UNL1        0.3894
     18 F          -3.8098    4.9497    0.2398 F       1  UNL1       -0.1663
     19 F          -4.3292    3.7408   -1.5834 F       1  UNL1       -0.1663
     20 C          -1.7143    0.8985    0.5933 C.ar    1  UNL1        0.1628
     21 O          -2.8232    0.4847    1.2660 O.3     1  UNL1       -0.4880
     22 C          -3.0742   -0.6366    2.0201 C.3     1  UNL1        0.0926
     23 C          -2.9663   -1.9581    1.3179 C.3     1  UNL1       -0.0068
     24 C          -3.7911   -2.3154    0.1510 C.3     1  UNL1       -0.0468
     25 C          -4.1455   -2.8938    1.4557 C.3     1  UNL1       -0.0468
     26 C          -0.5069    0.2182    0.5349 C.ar    1  UNL1       -0.0042
     27 H           2.9826    1.2373   -1.4174 H       1  UNL1        0.1552
     28 H           5.8380   -2.9691   -2.3994 H       1  UNL1        0.0845
     29 H           7.0026   -0.8377    1.0006 H       1  UNL1        0.0845
     30 H           1.2719    2.2983   -1.3925 H       1  UNL1        0.0626
     31 H          -0.7473    3.5460   -1.3600 H       1  UNL1        0.0655
     32 H          -2.5177    4.4997   -1.2478 H       1  UNL1        0.1520
     33 H          -4.1282   -0.5349    2.4251 H       1  UNL1        0.0699
     34 H          -2.4546   -0.7145    2.9455 H       1  UNL1        0.0699
     35 H          -1.9727   -2.4625    1.4365 H       1  UNL1        0.0334
     36 H          -3.3400   -2.9478   -0.6485 H       1  UNL1        0.0269
     37 H          -4.3989   -1.4816   -0.2757 H       1  UNL1        0.0269
     38 H          -3.9691   -3.9788    1.6137 H       1  UNL1        0.0269
     39 H          -5.0598   -2.4999    1.9440 H       1  UNL1        0.0269
     40 H          -0.4483   -0.7208    1.0801 H       1  UNL1        0.0663
@<TRIPOS>BOND
     1     1     2    2
     2     2     3   am
     3     3     4    1
     4     4     5   ar
     5     5     6    1
     6     5     7   ar
     7     7     8   ar
     8     8     9   ar
     9     9    10   ar
    10    10    11    1
    11     2    12    1
    12    12    13   ar
    13    13    14   ar
    14    14    15   ar
    15    15    16    1
    16    16    17    1
    17    17    18    1
    18    17    19    1
    19    15    20   ar
    20    20    21    1
    21    21    22    1
    22    22    23    1
    23    23    24    1
    24    24    25    1
    25    20    26   ar
    26    10     4   ar
    27    26    12   ar
    28    25    23    1
    29     3    27    1
    30     7    28    1
    31     9    29    1
    32    13    30    1
    33    14    31    1
    34    17    32    1
    35    22    33    1
    36    22    34    1
    37    23    35    1
    38    24    36    1
    39    24    37    1
    40    25    38    1
    41    25    39    1
    42    26    40    1
