
     RDKit          3D

 49 51  0  0  0  0  0  0  0  0999 V2000
   -5.5817    0.0785    0.3898 C   0  0  1  0  0  0  0  0  0  0  0  0
   -6.9657   -0.2954    0.7697 N   0  0  0  0  0  0  0  0  0  0  0  0
   -4.6908   -0.8336    1.1774 C   0  0  0  0  0  0  0  0  0  0  0  0
   -3.2141   -0.6510    0.9485 C   0  0  0  0  0  0  0  0  0  0  0  0
   -2.5479    0.8913    1.3488 S   0  0  0  0  0  3  0  0  0  0  0  0
   -3.2184    2.2463    0.4676 C   0  0  0  0  0  0  0  0  0  0  0  0
   -0.8090    1.0061    1.4670 C   0  0  0  0  0  0  0  0  0  0  0  0
   -0.0077    0.7013    0.2595 C   0  0  1  0  0  0  0  0  0  0  0  0
    1.3474    0.8845    0.5818 O   0  0  0  0  0  0  0  0  0  0  0  0
    2.0319    0.1328   -0.3753 C   0  0  1  0  0  0  0  0  0  0  0  0
    3.4244    0.0236   -0.0896 N   0  0  0  0  0  0  0  0  0  0  0  0
    3.9101   -0.4545    1.0722 C   0  0  0  0  0  0  0  0  0  0  0  0
    5.2567   -0.4434    1.0665 N   0  0  0  0  0  0  0  0  0  0  0  0
    5.6806    0.0400   -0.0936 C   0  0  0  0  0  0  0  0  0  0  0  0
    6.9081    0.2997   -0.7011 C   0  0  0  0  0  0  0  0  0  0  0  0
    8.0597   -0.0121    0.0696 N   0  0  0  0  0  0  0  0  0  0  0  0
    6.9364    0.8156   -1.9460 N   0  0  0  0  0  0  0  0  0  0  0  0
    5.8141    1.0878   -2.6206 C   0  0  0  0  0  0  0  0  0  0  0  0
    4.6216    0.8396   -2.0403 N   0  0  0  0  0  0  0  0  0  0  0  0
    4.5319    0.3227   -0.7941 C   0  0  0  0  0  0  0  0  0  0  0  0
    1.2975   -1.1776   -0.3115 C   0  0  2  0  0  0  0  0  0  0  0  0
    1.4769   -1.9379   -1.4636 O   0  0  0  0  0  0  0  0  0  0  0  0
   -0.1436   -0.7103   -0.1762 C   0  0  2  0  0  0  0  0  0  0  0  0
   -0.6477   -0.7188   -1.4864 O   0  0  0  0  0  0  0  0  0  0  0  0
   -5.4273   -0.1806   -1.0697 C   0  0  0  0  0  0  0  0  0  0  0  0
   -5.0617   -0.2703   -2.4050 O   0  0  0  0  0  1  0  0  0  0  0  0
   -6.1817   -0.8560   -1.7994 O   0  0  0  0  0  0  0  0  0  0  0  0
   -5.4116    1.1350    0.6653 H   0  0  0  0  0  0  0  0  0  0  0  0
   -7.5539    0.5839    0.7408 H   0  0  0  0  0  0  0  0  0  0  0  0
   -6.9477   -0.5818    1.7704 H   0  0  0  0  0  0  0  0  0  0  0  0
   -4.9710   -1.9062    0.9369 H   0  0  0  0  0  0  0  0  0  0  0  0
   -4.9008   -0.7248    2.2876 H   0  0  0  0  0  0  0  0  0  0  0  0
   -2.9945   -0.9709   -0.1151 H   0  0  0  0  0  0  0  0  0  0  0  0
   -2.7230   -1.4925    1.5446 H   0  0  0  0  0  0  0  0  0  0  0  0
   -2.3526    2.9552    0.2364 H   0  0  0  0  0  0  0  0  0  0  0  0
   -3.9302    2.8771    1.0321 H   0  0  0  0  0  0  0  0  0  0  0  0
   -3.5842    1.9598   -0.5361 H   0  0  0  0  0  0  0  0  0  0  0  0
   -0.5904    2.0712    1.8009 H   0  0  0  0  0  0  0  0  0  0  0  0
   -0.4752    0.4107    2.3658 H   0  0  0  0  0  0  0  0  0  0  0  0
   -0.2476    1.4334   -0.5647 H   0  0  0  0  0  0  0  0  0  0  0  0
    1.8526    0.5442   -1.3940 H   0  0  0  0  0  0  0  0  0  0  0  0
    3.3426   -0.8119    1.9259 H   0  0  0  0  0  0  0  0  0  0  0  0
    8.7655    0.7721    0.0207 H   0  0  0  0  0  0  0  0  0  0  0  0
    8.1210   -0.8999    0.5763 H   0  0  0  0  0  0  0  0  0  0  0  0
    5.9621    1.4939   -3.5986 H   0  0  0  0  0  0  0  0  0  0  0  0
    1.5170   -1.7503    0.6068 H   0  0  0  0  0  0  0  0  0  0  0  0
    1.8351   -2.8423   -1.2129 H   0  0  0  0  0  0  0  0  0  0  0  0
   -0.7133   -1.3759    0.4869 H   0  0  0  0  0  0  0  0  0  0  0  0
   -0.7996    0.1993   -1.8223 H   0  0  0  0  0  0  0  0  0  0  0  0
  1  2  1  0
  1  3  1  0
  3  4  1  0
  4  5  1  0
  5  6  1  0
  5  7  1  0
  7  8  1  0
  8  9  1  0
  9 10  1  0
 10 11  1  0
 11 12  1  0
 12 13  2  0
 13 14  1  0
 14 15  2  0
 15 16  1  0
 15 17  1  0
 17 18  2  0
 18 19  1  0
 19 20  2  0
 10 21  1  0
 21 22  1  0
 21 23  1  0
 23 24  1  0
  1 25  1  0
 25 26  1  0
 25 27  2  0
 23  8  1  0
 20 11  1  0
 20 14  1  0
  1 28  1  6
  2 29  1  0
  2 30  1  0
  3 31  1  0
  3 32  1  0
  4 33  1  0
  4 34  1  0
  6 35  1  0
  6 36  1  0
  6 37  1  0
  7 38  1  0
  7 39  1  0
  8 40  1  6
 10 41  1  6
 12 42  1  0
 16 43  1  0
 16 44  1  0
 18 45  1  0
 21 46  1  1
 22 47  1  0
 23 48  1  1
 24 49  1  0
M  CHG  2   5   1  26  -1
M  END
$$$$
