
     RDKit          3D

 52 56  0  0  0  0  0  0  0  0999 V2000
    4.0677    1.2499    2.8601 O   0  0  0  0  0  0  0  0  0  0  0  0
    4.1282    0.4736    1.8840 C   0  0  0  0  0  0  0  0  0  0  0  0
    3.4375   -0.8641    1.8791 C   0  0  0  0  0  0  0  0  0  0  0  0
    2.8402   -1.0273    0.5056 C   0  0  0  0  0  0  0  0  0  0  0  0
    2.2361   -2.3981    0.2964 C   0  0  0  0  0  0  0  0  0  0  0  0
    0.7966   -2.4507    0.7484 C   0  0  0  0  0  0  0  0  0  0  0  0
   -0.0185   -1.4519    0.1209 N   0  0  0  0  0  0  0  0  0  0  0  0
   -1.4262   -1.5658    0.1921 C   0  0  0  0  0  0  0  0  0  0  0  0
   -1.9344   -2.5388    0.8053 O   0  0  0  0  0  0  0  0  0  0  0  0
   -2.3453   -0.6505   -0.3851 N   0  0  0  0  0  0  0  0  0  0  0  0
   -3.7806   -0.8003   -0.2906 C   0  0  0  0  0  0  0  0  0  0  0  0
   -4.4182   -0.8382   -1.6640 C   0  0  0  0  0  0  0  0  0  0  0  0
   -5.8762   -0.5197   -1.3077 C   0  0  0  0  0  0  0  0  0  0  0  0
   -5.6689    0.5357   -0.2650 C   0  0  0  0  0  0  0  0  0  0  0  0
   -6.4990    1.5602    0.1262 C   0  0  0  0  0  0  0  0  0  0  0  0
   -6.1370    2.4606    1.1268 C   0  0  0  0  0  0  0  0  0  0  0  0
   -4.8986    2.2934    1.7267 C   0  0  0  0  0  0  0  0  0  0  0  0
   -4.0841    1.2685    1.3258 C   0  0  0  0  0  0  0  0  0  0  0  0
   -4.4356    0.3632    0.3271 C   0  0  0  0  0  0  0  0  0  0  0  0
    0.6618   -0.3695   -0.5581 C   0  0  0  0  0  0  0  0  0  0  0  0
    1.8181    0.0699    0.3160 C   0  0  0  0  0  0  0  0  0  0  0  0
    3.8788   -0.8821   -0.4439 O   0  0  0  0  0  0  0  0  0  0  0  0
    4.7451    0.1833   -0.4465 C   0  0  0  0  0  0  0  0  0  0  0  0
    5.4279    0.5123   -1.5825 C   0  0  0  0  0  0  0  0  0  0  0  0
    6.2948    1.6007   -1.5361 C   0  0  0  0  0  0  0  0  0  0  0  0
    6.4682    2.3290   -0.3936 C   0  0  0  0  0  0  0  0  0  0  0  0
    5.7619    1.9702    0.7406 C   0  0  0  0  0  0  0  0  0  0  0  0
    4.9009    0.9015    0.7218 C   0  0  0  0  0  0  0  0  0  0  0  0
    4.2222   -1.6193    2.1020 H   0  0  0  0  0  0  0  0  0  0  0  0
    2.6763   -0.8590    2.6800 H   0  0  0  0  0  0  0  0  0  0  0  0
    2.8062   -3.1372    0.8763 H   0  0  0  0  0  0  0  0  0  0  0  0
    2.3122   -2.6265   -0.7884 H   0  0  0  0  0  0  0  0  0  0  0  0
    0.3982   -3.4478    0.4102 H   0  0  0  0  0  0  0  0  0  0  0  0
    0.7469   -2.4051    1.8354 H   0  0  0  0  0  0  0  0  0  0  0  0
   -1.9485    0.1640   -0.8995 H   0  0  0  0  0  0  0  0  0  0  0  0
   -4.0234   -1.7150    0.2870 H   0  0  0  0  0  0  0  0  0  0  0  0
   -3.9887   -0.0240   -2.2495 H   0  0  0  0  0  0  0  0  0  0  0  0
   -4.3381   -1.8343   -2.1350 H   0  0  0  0  0  0  0  0  0  0  0  0
   -6.3196   -1.4176   -0.8278 H   0  0  0  0  0  0  0  0  0  0  0  0
   -6.4369   -0.1547   -2.1747 H   0  0  0  0  0  0  0  0  0  0  0  0
   -7.4701    1.7159   -0.3229 H   0  0  0  0  0  0  0  0  0  0  0  0
   -6.8167    3.2540    1.4075 H   0  0  0  0  0  0  0  0  0  0  0  0
   -4.5853    2.9642    2.4985 H   0  0  0  0  0  0  0  0  0  0  0  0
   -3.1171    1.1252    1.7830 H   0  0  0  0  0  0  0  0  0  0  0  0
    1.0529   -0.7929   -1.5134 H   0  0  0  0  0  0  0  0  0  0  0  0
    0.0374    0.5257   -0.7103 H   0  0  0  0  0  0  0  0  0  0  0  0
    2.2906    0.9507   -0.1682 H   0  0  0  0  0  0  0  0  0  0  0  0
    1.3847    0.4113    1.2757 H   0  0  0  0  0  0  0  0  0  0  0  0
    5.2977   -0.0561   -2.4885 H   0  0  0  0  0  0  0  0  0  0  0  0
    6.8326    1.8631   -2.4231 H   0  0  0  0  0  0  0  0  0  0  0  0
    7.1514    3.1636   -0.4087 H   0  0  0  0  0  0  0  0  0  0  0  0
    5.8941    2.5368    1.6360 H   0  0  0  0  0  0  0  0  0  0  0  0
  1  2  2  0
  2  3  1  0
  3  4  1  0
  4  5  1  0
  5  6  1  0
  6  7  1  0
  7  8  1  0
  8  9  2  0
  8 10  1  0
 10 11  1  0
 11 12  1  0
 12 13  1  0
 13 14  1  0
 14 15  2  0
 15 16  1  0
 16 17  2  0
 17 18  1  0
 18 19  2  0
  7 20  1  0
 20 21  1  0
  4 22  1  0
 22 23  1  0
 23 24  2  0
 24 25  1  0
 25 26  2  0
 26 27  1  0
 27 28  2  0
 28  2  1  0
 21  4  1  0
 28 23  1  0
 19 11  1  0
 19 14  1  0
  3 29  1  0
  3 30  1  0
  5 31  1  0
  5 32  1  0
  6 33  1  0
  6 34  1  0
 10 35  1  0
 11 36  1  0
 12 37  1  0
 12 38  1  0
 13 39  1  0
 13 40  1  0
 15 41  1  0
 16 42  1  0
 17 43  1  0
 18 44  1  0
 20 45  1  0
 20 46  1  0
 21 47  1  0
 21 48  1  0
 24 49  1  0
 25 50  1  0
 26 51  1  0
 27 52  1  0
M  END
$$$$
