@<TRIPOS>MOLECULE
*****
 52 56 0 0 0
SMALL
GASTEIGER

@<TRIPOS>ATOM
      1 O           4.0677    1.2499    2.8601 O.2     1  UNL1       -0.2918
      2 C           4.1282    0.4736    1.8840 C.2     1  UNL1        0.1704
      3 C           3.4375   -0.8641    1.8791 C.3     1  UNL1        0.0506
      4 C           2.8402   -1.0273    0.5056 C.3     1  UNL1        0.1205
      5 C           2.2361   -2.3981    0.2964 C.3     1  UNL1        0.0034
      6 C           0.7966   -2.4507    0.7484 C.3     1  UNL1        0.0198
      7 N          -0.0185   -1.4519    0.1209 N.am    1  UNL1       -0.2854
      8 C          -1.4262   -1.5658    0.1921 C.2     1  UNL1        0.3027
      9 O          -1.9344   -2.5388    0.8053 O.2     1  UNL1       -0.2526
     10 N          -2.3453   -0.6505   -0.3851 N.am    1  UNL1       -0.2924
     11 C          -3.7806   -0.8003   -0.2906 C.3     1  UNL1        0.0504
     12 C          -4.4182   -0.8382   -1.6640 C.3     1  UNL1       -0.0263
     13 C          -5.8762   -0.5197   -1.3077 C.3     1  UNL1       -0.0254
     14 C          -5.6689    0.5357   -0.2650 C.ar    1  UNL1       -0.0423
     15 C          -6.4990    1.5602    0.1262 C.ar    1  UNL1       -0.0583
     16 C          -6.1370    2.4606    1.1268 C.ar    1  UNL1       -0.0615
     17 C          -4.8986    2.2934    1.7267 C.ar    1  UNL1       -0.0614
     18 C          -4.0841    1.2685    1.3258 C.ar    1  UNL1       -0.0565
     19 C          -4.4356    0.3632    0.3271 C.ar    1  UNL1       -0.0240
     20 C           0.6618   -0.3695   -0.5581 C.3     1  UNL1        0.0198
     21 C           1.8181    0.0699    0.3160 C.3     1  UNL1        0.0034
     22 O           3.8788   -0.8821   -0.4439 O.3     1  UNL1       -0.4845
     23 C           4.7451    0.1833   -0.4465 C.ar    1  UNL1        0.1318
     24 C           5.4279    0.5123   -1.5825 C.ar    1  UNL1       -0.0192
     25 C           6.2948    1.6007   -1.5361 C.ar    1  UNL1       -0.0583
     26 C           6.4682    2.3290   -0.3936 C.ar    1  UNL1       -0.0609
     27 C           5.7619    1.9702    0.7406 C.ar    1  UNL1       -0.0477
     28 C           4.9009    0.9015    0.7218 C.ar    1  UNL1        0.0592
     29 H           4.2222   -1.6193    2.1020 H       1  UNL1        0.0384
     30 H           2.6763   -0.8590    2.6800 H       1  UNL1        0.0384
     31 H           2.8062   -3.1372    0.8763 H       1  UNL1        0.0319
     32 H           2.3122   -2.6265   -0.7884 H       1  UNL1        0.0319
     33 H           0.3982   -3.4478    0.4102 H       1  UNL1        0.0466
     34 H           0.7469   -2.4051    1.8354 H       1  UNL1        0.0466
     35 H          -1.9485    0.1640   -0.8995 H       1  UNL1        0.1508
     36 H          -4.0234   -1.7150    0.2870 H       1  UNL1        0.0549
     37 H          -3.9887   -0.0240   -2.2495 H       1  UNL1        0.0289
     38 H          -4.3381   -1.8343   -2.1350 H       1  UNL1        0.0289
     39 H          -6.3196   -1.4176   -0.8278 H       1  UNL1        0.0314
     40 H          -6.4369   -0.1547   -2.1747 H       1  UNL1        0.0314
     41 H          -7.4701    1.7159   -0.3229 H       1  UNL1        0.0620
     42 H          -6.8167    3.2540    1.4075 H       1  UNL1        0.0618
     43 H          -4.5853    2.9642    2.4985 H       1  UNL1        0.0618
     44 H          -3.1171    1.1252    1.7830 H       1  UNL1        0.0621
     45 H           1.0529   -0.7929   -1.5134 H       1  UNL1        0.0466
     46 H           0.0374    0.5257   -0.7103 H       1  UNL1        0.0466
     47 H           2.2906    0.9507   -0.1682 H       1  UNL1        0.0319
     48 H           1.3847    0.4113    1.2757 H       1  UNL1        0.0319
     49 H           5.2977   -0.0561   -2.4885 H       1  UNL1        0.0654
     50 H           6.8326    1.8631   -2.4231 H       1  UNL1        0.0619
     51 H           7.1514    3.1636   -0.4087 H       1  UNL1        0.0618
     52 H           5.8941    2.5368    1.6360 H       1  UNL1        0.0626
@<TRIPOS>BOND
     1     1     2    2
     2     2     3    1
     3     3     4    1
     4     4     5    1
     5     5     6    1
     6     6     7    1
     7     7     8   am
     8     8     9    2
     9     8    10   am
    10    10    11    1
    11    11    12    1
    12    12    13    1
    13    13    14    1
    14    14    15   ar
    15    15    16   ar
    16    16    17   ar
    17    17    18   ar
    18    18    19   ar
    19     7    20    1
    20    20    21    1
    21     4    22    1
    22    22    23    1
    23    23    24   ar
    24    24    25   ar
    25    25    26   ar
    26    26    27   ar
    27    27    28   ar
    28    28     2    1
    29    21     4    1
    30    28    23   ar
    31    19    11    1
    32    19    14   ar
    33     3    29    1
    34     3    30    1
    35     5    31    1
    36     5    32    1
    37     6    33    1
    38     6    34    1
    39    10    35    1
    40    11    36    1
    41    12    37    1
    42    12    38    1
    43    13    39    1
    44    13    40    1
    45    15    41    1
    46    16    42    1
    47    17    43    1
    48    18    44    1
    49    20    45    1
    50    20    46    1
    51    21    47    1
    52    21    48    1
    53    24    49    1
    54    25    50    1
    55    26    51    1
    56    27    52    1
