@<TRIPOS>MOLECULE
*****
 81 81 0 0 0
SMALL
GASTEIGER

@<TRIPOS>ATOM
      1 C          -9.6826    0.9040    1.8023 C.3     1  UNL1       -0.0652
      2 C          -9.9188   -0.3699    1.0573 C.3     1  UNL1       -0.0545
      3 C          -8.7752   -0.7113    0.1207 C.3     1  UNL1       -0.0376
      4 C          -7.4849   -0.8767    0.8587 C.3     1  UNL1        0.0116
      5 N          -6.3585   -1.2069    0.0265 N.am    1  UNL1       -0.3151
      6 C          -5.9299   -0.3346   -1.0034 C.2     1  UNL1        0.2159
      7 O          -6.5538    0.7412   -1.1761 O.2     1  UNL1       -0.2755
      8 C          -4.7620   -0.6853   -1.8655 C.3     1  UNL1        0.0351
      9 C          -4.9535   -1.9552   -2.6278 C.3     1  UNL1       -0.0540
     10 C          -3.4945   -0.8086   -1.0318 C.3     1  UNL1       -0.0145
     11 C          -3.1773    0.4825   -0.3263 C.3     1  UNL1        0.0722
     12 O          -2.9635    1.5600   -1.1508 O.3     1  UNL1       -0.3902
     13 C          -1.9364    0.2730    0.5239 C.3     1  UNL1        0.0440
     14 N          -2.2145   -0.8982    1.3572 N.3     1  UNL1       -0.3241
     15 C          -0.7744    0.0558   -0.3510 C.3     1  UNL1        0.0171
     16 N           0.5106   -0.1648    0.3687 N.3     1  UNL1       -0.2942
     17 C           1.4229   -0.4025   -0.7220 C.3     1  UNL1        0.0245
     18 C           2.7714   -0.8325   -0.3380 C.ar    1  UNL1       -0.0297
     19 C           3.0324   -2.1859   -0.0527 C.ar    1  UNL1       -0.0537
     20 C           4.2959   -2.6236    0.2625 C.ar    1  UNL1       -0.0160
     21 C           5.3617   -1.7476    0.3115 C.ar    1  UNL1        0.1615
     22 O           6.6473   -2.1951    0.6328 O.3     1  UNL1       -0.4915
     23 C           6.9411   -3.5297    0.9211 C.3     1  UNL1        0.0790
     24 C           5.1497   -0.4140    0.0389 C.ar    1  UNL1        0.1622
     25 O           6.2407    0.4422    0.0959 O.3     1  UNL1       -0.4882
     26 C           5.9962    1.8148   -0.1897 C.3     1  UNL1        0.0918
     27 C           7.2737    2.6256   -0.0901 C.3     1  UNL1        0.0049
     28 C           8.2255    2.0370   -1.1059 C.3     1  UNL1        0.0504
     29 O           9.4300    2.6908   -1.1209 O.3     1  UNL1       -0.3829
     30 C          10.0862    2.6376    0.1003 C.3     1  UNL1        0.0364
     31 C           3.8861   -0.0144   -0.2699 C.ar    1  UNL1       -0.0119
     32 C           0.8223    0.9543    1.1803 C.3     1  UNL1        0.0052
     33 C           1.9733    0.6508    2.1060 C.3     1  UNL1       -0.0497
     34 C           1.1709    2.2231    0.4410 C.3     1  UNL1       -0.0497
     35 H          -8.8530    1.4533    1.2721 H       1  UNL1        0.0230
     36 H         -10.5890    1.5353    1.8793 H       1  UNL1        0.0230
     37 H          -9.2736    0.6596    2.8041 H       1  UNL1        0.0230
     38 H         -10.8276   -0.2516    0.4341 H       1  UNL1        0.0263
     39 H         -10.0649   -1.2343    1.7375 H       1  UNL1        0.0263
     40 H          -8.6919    0.1375   -0.5856 H       1  UNL1        0.0280
     41 H          -8.9870   -1.6022   -0.4832 H       1  UNL1        0.0280
     42 H          -7.2779    0.0376    1.4761 H       1  UNL1        0.0462
     43 H          -7.5871   -1.6971    1.6192 H       1  UNL1        0.0462
     44 H          -5.8093   -2.1039    0.1471 H       1  UNL1        0.1487
     45 H          -4.5965    0.1426   -2.5760 H       1  UNL1        0.0392
     46 H          -4.2202   -1.9702   -3.4562 H       1  UNL1        0.0237
     47 H          -5.9866   -1.9708   -3.0143 H       1  UNL1        0.0237
     48 H          -4.7410   -2.8141   -1.9517 H       1  UNL1        0.0237
     49 H          -3.6758   -1.5670   -0.2387 H       1  UNL1        0.0298
     50 H          -2.6705   -1.1695   -1.6415 H       1  UNL1        0.0298
     51 H          -4.0499    0.7545    0.3380 H       1  UNL1        0.0609
     52 H          -2.8260    1.3477   -2.0932 H       1  UNL1        0.2098
     53 H          -1.8369    1.1484    1.2137 H       1  UNL1        0.0496
     54 H          -1.9440   -1.7815    0.8931 H       1  UNL1        0.1186
     55 H          -3.2307   -0.8935    1.6421 H       1  UNL1        0.1186
     56 H          -0.8730   -0.8811   -0.9446 H       1  UNL1        0.0443
     57 H          -0.5652    0.8519   -1.0725 H       1  UNL1        0.0443
     58 H           1.4710    0.4907   -1.4137 H       1  UNL1        0.0476
     59 H           1.0312   -1.2094   -1.4026 H       1  UNL1        0.0476
     60 H           2.2030   -2.8772   -0.0892 H       1  UNL1        0.0622
     61 H           4.4814   -3.6872    0.4830 H       1  UNL1        0.0655
     62 H           6.9460   -4.1504   -0.0021 H       1  UNL1        0.0660
     63 H           6.2604   -3.9957    1.6640 H       1  UNL1        0.0660
     64 H           7.9601   -3.5807    1.3547 H       1  UNL1        0.0660
     65 H           5.5023    1.9202   -1.1786 H       1  UNL1        0.0697
     66 H           5.2373    2.1483    0.5650 H       1  UNL1        0.0697
     67 H           7.6243    2.4785    0.9646 H       1  UNL1        0.0320
     68 H           7.0204    3.6742   -0.3169 H       1  UNL1        0.0320
     69 H           7.7198    2.0056   -2.0806 H       1  UNL1        0.0561
     70 H           8.4134    0.9541   -0.8416 H       1  UNL1        0.0561
     71 H          10.2684    1.5625    0.3667 H       1  UNL1        0.0523
     72 H           9.5353    3.1242    0.9061 H       1  UNL1        0.0523
     73 H          11.0912    3.0972   -0.0567 H       1  UNL1        0.0523
     74 H           3.7332    1.0373   -0.4869 H       1  UNL1        0.0658
     75 H          -0.0234    1.2396    1.8618 H       1  UNL1        0.0457
     76 H           1.6306    0.7364    3.1968 H       1  UNL1        0.0245
     77 H           2.2485   -0.4071    2.0217 H       1  UNL1        0.0245
     78 H           2.8498    1.3147    1.9674 H       1  UNL1        0.0245
     79 H           2.2427    2.5253    0.5982 H       1  UNL1        0.0245
     80 H           0.6080    3.1024    0.8826 H       1  UNL1        0.0245
     81 H           0.8649    2.2295   -0.6207 H       1  UNL1        0.0245
@<TRIPOS>BOND
     1     1     2    1
     2     2     3    1
     3     3     4    1
     4     4     5    1
     5     5     6   am
     6     6     7    2
     7     6     8    1
     8     8     9    1
     9     8    10    1
    10    10    11    1
    11    11    12    1
    12    11    13    1
    13    13    14    1
    14    13    15    1
    15    15    16    1
    16    16    17    1
    17    17    18    1
    18    18    19   ar
    19    19    20   ar
    20    20    21   ar
    21    21    22    1
    22    22    23    1
    23    21    24   ar
    24    24    25    1
    25    25    26    1
    26    26    27    1
    27    27    28    1
    28    28    29    1
    29    29    30    1
    30    24    31   ar
    31    16    32    1
    32    32    33    1
    33    32    34    1
    34    31    18   ar
    35     1    35    1
    36     1    36    1
    37     1    37    1
    38     2    38    1
    39     2    39    1
    40     3    40    1
    41     3    41    1
    42     4    42    1
    43     4    43    1
    44     5    44    1
    45     8    45    1
    46     9    46    1
    47     9    47    1
    48     9    48    1
    49    10    49    1
    50    10    50    1
    51    11    51    1
    52    12    52    1
    53    13    53    1
    54    14    54    1
    55    14    55    1
    56    15    56    1
    57    15    57    1
    58    17    58    1
    59    17    59    1
    60    19    60    1
    61    20    61    1
    62    23    62    1
    63    23    63    1
    64    23    64    1
    65    26    65    1
    66    26    66    1
    67    27    67    1
    68    27    68    1
    69    28    69    1
    70    28    70    1
    71    30    71    1
    72    30    72    1
    73    30    73    1
    74    31    74    1
    75    32    75    1
    76    33    76    1
    77    33    77    1
    78    33    78    1
    79    34    79    1
    80    34    80    1
    81    34    81    1
