
     RDKit          3D

 81 81  0  0  0  0  0  0  0  0999 V2000
   -9.6826    0.9040    1.8023 C   0  0  0  0  0  0  0  0  0  0  0  0
   -9.9188   -0.3699    1.0573 C   0  0  0  0  0  0  0  0  0  0  0  0
   -8.7752   -0.7113    0.1207 C   0  0  0  0  0  0  0  0  0  0  0  0
   -7.4849   -0.8767    0.8587 C   0  0  0  0  0  0  0  0  0  0  0  0
   -6.3585   -1.2069    0.0265 N   0  0  0  0  0  0  0  0  0  0  0  0
   -5.9299   -0.3346   -1.0034 C   0  0  0  0  0  0  0  0  0  0  0  0
   -6.5538    0.7412   -1.1761 O   0  0  0  0  0  0  0  0  0  0  0  0
   -4.7620   -0.6853   -1.8655 C   0  0  2  0  0  0  0  0  0  0  0  0
   -4.9535   -1.9552   -2.6278 C   0  0  0  0  0  0  0  0  0  0  0  0
   -3.4945   -0.8086   -1.0318 C   0  0  0  0  0  0  0  0  0  0  0  0
   -3.1773    0.4825   -0.3263 C   0  0  2  0  0  0  0  0  0  0  0  0
   -2.9635    1.5600   -1.1508 O   0  0  0  0  0  0  0  0  0  0  0  0
   -1.9364    0.2730    0.5239 C   0  0  1  0  0  0  0  0  0  0  0  0
   -2.2145   -0.8982    1.3572 N   0  0  0  0  0  0  0  0  0  0  0  0
   -0.7744    0.0558   -0.3510 C   0  0  0  0  0  0  0  0  0  0  0  0
    0.5106   -0.1648    0.3687 N   0  0  0  0  0  0  0  0  0  0  0  0
    1.4229   -0.4025   -0.7220 C   0  0  0  0  0  0  0  0  0  0  0  0
    2.7714   -0.8325   -0.3380 C   0  0  0  0  0  0  0  0  0  0  0  0
    3.0324   -2.1859   -0.0527 C   0  0  0  0  0  0  0  0  0  0  0  0
    4.2959   -2.6236    0.2625 C   0  0  0  0  0  0  0  0  0  0  0  0
    5.3617   -1.7476    0.3115 C   0  0  0  0  0  0  0  0  0  0  0  0
    6.6473   -2.1951    0.6328 O   0  0  0  0  0  0  0  0  0  0  0  0
    6.9411   -3.5297    0.9211 C   0  0  0  0  0  0  0  0  0  0  0  0
    5.1497   -0.4140    0.0389 C   0  0  0  0  0  0  0  0  0  0  0  0
    6.2407    0.4422    0.0959 O   0  0  0  0  0  0  0  0  0  0  0  0
    5.9962    1.8148   -0.1897 C   0  0  0  0  0  0  0  0  0  0  0  0
    7.2737    2.6256   -0.0901 C   0  0  0  0  0  0  0  0  0  0  0  0
    8.2255    2.0370   -1.1059 C   0  0  0  0  0  0  0  0  0  0  0  0
    9.4300    2.6908   -1.1209 O   0  0  0  0  0  0  0  0  0  0  0  0
   10.0862    2.6376    0.1003 C   0  0  0  0  0  0  0  0  0  0  0  0
    3.8861   -0.0144   -0.2699 C   0  0  0  0  0  0  0  0  0  0  0  0
    0.8223    0.9543    1.1803 C   0  0  0  0  0  0  0  0  0  0  0  0
    1.9733    0.6508    2.1060 C   0  0  0  0  0  0  0  0  0  0  0  0
    1.1709    2.2231    0.4410 C   0  0  0  0  0  0  0  0  0  0  0  0
   -8.8530    1.4533    1.2721 H   0  0  0  0  0  0  0  0  0  0  0  0
  -10.5890    1.5353    1.8793 H   0  0  0  0  0  0  0  0  0  0  0  0
   -9.2736    0.6596    2.8041 H   0  0  0  0  0  0  0  0  0  0  0  0
  -10.8276   -0.2516    0.4341 H   0  0  0  0  0  0  0  0  0  0  0  0
  -10.0649   -1.2343    1.7375 H   0  0  0  0  0  0  0  0  0  0  0  0
   -8.6919    0.1375   -0.5856 H   0  0  0  0  0  0  0  0  0  0  0  0
   -8.9870   -1.6022   -0.4832 H   0  0  0  0  0  0  0  0  0  0  0  0
   -7.2779    0.0376    1.4761 H   0  0  0  0  0  0  0  0  0  0  0  0
   -7.5871   -1.6971    1.6192 H   0  0  0  0  0  0  0  0  0  0  0  0
   -5.8093   -2.1039    0.1471 H   0  0  0  0  0  0  0  0  0  0  0  0
   -4.5965    0.1426   -2.5760 H   0  0  0  0  0  0  0  0  0  0  0  0
   -4.2202   -1.9702   -3.4562 H   0  0  0  0  0  0  0  0  0  0  0  0
   -5.9866   -1.9708   -3.0143 H   0  0  0  0  0  0  0  0  0  0  0  0
   -4.7410   -2.8141   -1.9517 H   0  0  0  0  0  0  0  0  0  0  0  0
   -3.6758   -1.5670   -0.2387 H   0  0  0  0  0  0  0  0  0  0  0  0
   -2.6705   -1.1695   -1.6415 H   0  0  0  0  0  0  0  0  0  0  0  0
   -4.0499    0.7545    0.3380 H   0  0  0  0  0  0  0  0  0  0  0  0
   -2.8260    1.3477   -2.0932 H   0  0  0  0  0  0  0  0  0  0  0  0
   -1.8369    1.1484    1.2137 H   0  0  0  0  0  0  0  0  0  0  0  0
   -1.9440   -1.7815    0.8931 H   0  0  0  0  0  0  0  0  0  0  0  0
   -3.2307   -0.8935    1.6421 H   0  0  0  0  0  0  0  0  0  0  0  0
   -0.8730   -0.8811   -0.9446 H   0  0  0  0  0  0  0  0  0  0  0  0
   -0.5652    0.8519   -1.0725 H   0  0  0  0  0  0  0  0  0  0  0  0
    1.4710    0.4907   -1.4137 H   0  0  0  0  0  0  0  0  0  0  0  0
    1.0312   -1.2094   -1.4026 H   0  0  0  0  0  0  0  0  0  0  0  0
    2.2030   -2.8772   -0.0892 H   0  0  0  0  0  0  0  0  0  0  0  0
    4.4814   -3.6872    0.4830 H   0  0  0  0  0  0  0  0  0  0  0  0
    6.9460   -4.1504   -0.0021 H   0  0  0  0  0  0  0  0  0  0  0  0
    6.2604   -3.9957    1.6640 H   0  0  0  0  0  0  0  0  0  0  0  0
    7.9601   -3.5807    1.3547 H   0  0  0  0  0  0  0  0  0  0  0  0
    5.5023    1.9202   -1.1786 H   0  0  0  0  0  0  0  0  0  0  0  0
    5.2373    2.1483    0.5650 H   0  0  0  0  0  0  0  0  0  0  0  0
    7.6243    2.4785    0.9646 H   0  0  0  0  0  0  0  0  0  0  0  0
    7.0204    3.6742   -0.3169 H   0  0  0  0  0  0  0  0  0  0  0  0
    7.7198    2.0056   -2.0806 H   0  0  0  0  0  0  0  0  0  0  0  0
    8.4134    0.9541   -0.8416 H   0  0  0  0  0  0  0  0  0  0  0  0
   10.2684    1.5625    0.3667 H   0  0  0  0  0  0  0  0  0  0  0  0
    9.5353    3.1242    0.9061 H   0  0  0  0  0  0  0  0  0  0  0  0
   11.0912    3.0972   -0.0567 H   0  0  0  0  0  0  0  0  0  0  0  0
    3.7332    1.0373   -0.4869 H   0  0  0  0  0  0  0  0  0  0  0  0
   -0.0234    1.2396    1.8618 H   0  0  0  0  0  0  0  0  0  0  0  0
    1.6306    0.7364    3.1968 H   0  0  0  0  0  0  0  0  0  0  0  0
    2.2485   -0.4071    2.0217 H   0  0  0  0  0  0  0  0  0  0  0  0
    2.8498    1.3147    1.9674 H   0  0  0  0  0  0  0  0  0  0  0  0
    2.2427    2.5253    0.5982 H   0  0  0  0  0  0  0  0  0  0  0  0
    0.6080    3.1024    0.8826 H   0  0  0  0  0  0  0  0  0  0  0  0
    0.8649    2.2295   -0.6207 H   0  0  0  0  0  0  0  0  0  0  0  0
  1  2  1  0
  2  3  1  0
  3  4  1  0
  4  5  1  0
  5  6  1  0
  6  7  2  0
  6  8  1  0
  8  9  1  0
  8 10  1  0
 10 11  1  0
 11 12  1  0
 11 13  1  0
 13 14  1  0
 13 15  1  0
 15 16  1  0
 16 17  1  0
 17 18  1  0
 18 19  2  0
 19 20  1  0
 20 21  2  0
 21 22  1  0
 22 23  1  0
 21 24  1  0
 24 25  1  0
 25 26  1  0
 26 27  1  0
 27 28  1  0
 28 29  1  0
 29 30  1  0
 24 31  2  0
 16 32  1  0
 32 33  1  0
 32 34  1  0
 31 18  1  0
  1 35  1  0
  1 36  1  0
  1 37  1  0
  2 38  1  0
  2 39  1  0
  3 40  1  0
  3 41  1  0
  4 42  1  0
  4 43  1  0
  5 44  1  0
  8 45  1  6
  9 46  1  0
  9 47  1  0
  9 48  1  0
 10 49  1  0
 10 50  1  0
 11 51  1  1
 12 52  1  0
 13 53  1  1
 14 54  1  0
 14 55  1  0
 15 56  1  0
 15 57  1  0
 17 58  1  0
 17 59  1  0
 19 60  1  0
 20 61  1  0
 23 62  1  0
 23 63  1  0
 23 64  1  0
 26 65  1  0
 26 66  1  0
 27 67  1  0
 27 68  1  0
 28 69  1  0
 28 70  1  0
 30 71  1  0
 30 72  1  0
 30 73  1  0
 31 74  1  0
 32 75  1  0
 33 76  1  0
 33 77  1  0
 33 78  1  0
 34 79  1  0
 34 80  1  0
 34 81  1  0
M  END
$$$$
