
     RDKit          3D

 43 43  0  0  0  0  0  0  0  0999 V2000
    5.3309   -1.2720    0.3418 C   0  0  0  0  0  0  0  0  0  0  0  0
    4.6198   -0.5203    1.2481 O   0  0  0  0  0  0  0  0  0  0  0  0
    3.3702   -0.1883    0.7863 C   0  0  0  0  0  0  0  0  0  0  0  0
    2.5080   -1.3615    0.4857 C   0  0  0  0  0  0  0  0  0  0  0  0
    1.1152   -0.9884   -0.0261 C   0  0  0  0  0  0  0  0  0  0  0  0
    0.3274   -0.1759    0.9491 C   0  0  0  0  0  0  0  0  0  0  0  0
   -1.0384    0.1894    0.4842 C   0  0  0  0  0  0  0  0  0  0  0  0
   -1.2307    1.4728    0.2840 N   0  0  0  0  0  0  0  0  0  0  0  0
   -0.2548    2.3931    0.4868 O   0  0  0  0  0  0  0  0  0  0  0  0
    0.1972    3.3092   -0.4836 C   0  0  0  0  0  0  0  0  0  0  0  0
    1.2845    4.2236   -0.0143 C   0  0  0  0  0  0  0  0  0  0  0  0
    1.6359    5.1049   -1.1362 N   0  0  0  0  0  0  0  0  0  0  0  0
   -2.1507   -0.7009    0.2029 C   0  0  0  0  0  0  0  0  0  0  0  0
   -2.1779   -2.0670    0.3713 C   0  0  0  0  0  0  0  0  0  0  0  0
   -3.2256   -2.8869    0.0892 C   0  0  0  0  0  0  0  0  0  0  0  0
   -4.3679   -2.3313   -0.4072 C   0  0  0  0  0  0  0  0  0  0  0  0
   -4.4137   -0.9688   -0.6016 C   0  0  0  0  0  0  0  0  0  0  0  0
   -3.3245   -0.1860   -0.2996 C   0  0  0  0  0  0  0  0  0  0  0  0
   -5.5704   -3.1317   -0.7493 C   0  0  0  0  0  0  0  0  0  0  0  0
   -5.5646   -4.2782    0.0176 F   0  0  0  0  0  0  0  0  0  0  0  0
   -5.5822   -3.5174   -2.0745 F   0  0  0  0  0  0  0  0  0  0  0  0
   -6.7039   -2.4256   -0.4115 F   0  0  0  0  0  0  0  0  0  0  0  0
    5.4711   -0.7484   -0.6352 H   0  0  0  0  0  0  0  0  0  0  0  0
    6.3441   -1.5065    0.7724 H   0  0  0  0  0  0  0  0  0  0  0  0
    4.8497   -2.2345    0.1558 H   0  0  0  0  0  0  0  0  0  0  0  0
    2.8299    0.4664    1.5180 H   0  0  0  0  0  0  0  0  0  0  0  0
    3.4942    0.4797   -0.1131 H   0  0  0  0  0  0  0  0  0  0  0  0
    2.9672   -1.9089   -0.3930 H   0  0  0  0  0  0  0  0  0  0  0  0
    2.4214   -2.0850    1.2976 H   0  0  0  0  0  0  0  0  0  0  0  0
    0.6681   -1.9499   -0.3246 H   0  0  0  0  0  0  0  0  0  0  0  0
    1.3481   -0.3780   -0.9584 H   0  0  0  0  0  0  0  0  0  0  0  0
    0.1500   -0.8509    1.8390 H   0  0  0  0  0  0  0  0  0  0  0  0
    0.8867    0.7249    1.2465 H   0  0  0  0  0  0  0  0  0  0  0  0
   -0.6812    3.9498   -0.7526 H   0  0  0  0  0  0  0  0  0  0  0  0
    0.5321    2.7925   -1.4026 H   0  0  0  0  0  0  0  0  0  0  0  0
    0.9514    4.8923    0.8035 H   0  0  0  0  0  0  0  0  0  0  0  0
    2.2091    3.6806    0.2632 H   0  0  0  0  0  0  0  0  0  0  0  0
    2.6304    5.0169   -1.4200 H   0  0  0  0  0  0  0  0  0  0  0  0
    1.3720    6.0839   -0.9809 H   0  0  0  0  0  0  0  0  0  0  0  0
   -1.2959   -2.5439    0.7733 H   0  0  0  0  0  0  0  0  0  0  0  0
   -3.1703   -3.9563    0.2491 H   0  0  0  0  0  0  0  0  0  0  0  0
   -5.3226   -0.5087   -0.9987 H   0  0  0  0  0  0  0  0  0  0  0  0
   -3.4394    0.8915   -0.4825 H   0  0  0  0  0  0  0  0  0  0  0  0
  1  2  1  0
  2  3  1  0
  3  4  1  0
  4  5  1  0
  5  6  1  0
  6  7  1  0
  7  8  2  0
  8  9  1  0
  9 10  1  0
 10 11  1  0
 11 12  1  0
  7 13  1  0
 13 14  2  0
 14 15  1  0
 15 16  2  0
 16 17  1  0
 17 18  2  0
 16 19  1  0
 19 20  1  0
 19 21  1  0
 19 22  1  0
 18 13  1  0
  1 23  1  0
  1 24  1  0
  1 25  1  0
  3 26  1  0
  3 27  1  0
  4 28  1  0
  4 29  1  0
  5 30  1  0
  5 31  1  0
  6 32  1  0
  6 33  1  0
 10 34  1  0
 10 35  1  0
 11 36  1  0
 11 37  1  0
 12 38  1  0
 12 39  1  0
 14 40  1  0
 15 41  1  0
 17 42  1  0
 18 43  1  0
M  END
$$$$
