
     RDKit          3D

 19 18  0  0  0  0  0  0  0  0999 V2000
    0.0649   -0.9575   -1.4425 N   0  0  0  0  0  0  0  0  0  0  0  0
    0.0616   -0.2155   -0.1908 C   0  0  0  0  0  0  0  0  0  0  0  0
   -0.5411    1.1223   -0.4774 C   0  0  0  0  0  0  0  0  0  0  0  0
   -0.6194    1.9571    0.6122 O   0  0  0  0  0  0  0  0  0  0  0  0
   -0.7610   -0.9540    0.8200 C   0  0  0  0  0  0  0  0  0  0  0  0
   -2.0741   -1.1086    0.3969 O   0  0  0  0  0  0  0  0  0  0  0  0
    1.4822   -0.1073    0.3091 C   0  0  0  0  0  0  0  0  0  0  0  0
    2.3064    0.5509   -0.5915 O   0  0  0  0  0  0  0  0  0  0  0  0
    0.8767   -1.6052   -1.4916 H   0  0  0  0  0  0  0  0  0  0  0  0
   -0.8539   -1.4109   -1.5962 H   0  0  0  0  0  0  0  0  0  0  0  0
   -1.5887    0.9323   -0.8371 H   0  0  0  0  0  0  0  0  0  0  0  0
    0.0537    1.5860   -1.2841 H   0  0  0  0  0  0  0  0  0  0  0  0
   -0.7237    2.8912    0.2671 H   0  0  0  0  0  0  0  0  0  0  0  0
   -0.7730   -0.4167    1.7850 H   0  0  0  0  0  0  0  0  0  0  0  0
   -0.3160   -1.9624    1.0040 H   0  0  0  0  0  0  0  0  0  0  0  0
   -2.7385   -0.7925    1.0639 H   0  0  0  0  0  0  0  0  0  0  0  0
    1.8524   -1.1530    0.4653 H   0  0  0  0  0  0  0  0  0  0  0  0
    1.4317    0.4520    1.2673 H   0  0  0  0  0  0  0  0  0  0  0  0
    2.8598    1.1916   -0.0796 H   0  0  0  0  0  0  0  0  0  0  0  0
  1  2  1  0
  2  3  1  0
  3  4  1  0
  2  5  1  0
  5  6  1  0
  2  7  1  0
  7  8  1  0
  1  9  1  0
  1 10  1  0
  3 11  1  0
  3 12  1  0
  4 13  1  0
  5 14  1  0
  5 15  1  0
  6 16  1  0
  7 17  1  0
  7 18  1  0
  8 19  1  0
M  END
$$$$
