@<TRIPOS>MOLECULE
*****
 19 18 0 0 0
SMALL
GASTEIGER

@<TRIPOS>ATOM
      1 N           0.0649   -0.9575   -1.4425 N.3     1  UNL1       -0.3193
      2 C           0.0616   -0.2155   -0.1908 C.3     1  UNL1        0.0865
      3 C          -0.5411    1.1223   -0.4774 C.3     1  UNL1        0.0665
      4 O          -0.6194    1.9571    0.6122 O.3     1  UNL1       -0.3930
      5 C          -0.7610   -0.9540    0.8200 C.3     1  UNL1        0.0665
      6 O          -2.0741   -1.1086    0.3969 O.3     1  UNL1       -0.3930
      7 C           1.4822   -0.1073    0.3091 C.3     1  UNL1        0.0665
      8 O           2.3064    0.5509   -0.5915 O.3     1  UNL1       -0.3930
      9 H           0.8767   -1.6052   -1.4916 H       1  UNL1        0.1189
     10 H          -0.8539   -1.4109   -1.5962 H       1  UNL1        0.1189
     11 H          -1.5887    0.9323   -0.8371 H       1  UNL1        0.0577
     12 H           0.0537    1.5860   -1.2841 H       1  UNL1        0.0577
     13 H          -0.7237    2.8912    0.2671 H       1  UNL1        0.2095
     14 H          -0.7730   -0.4167    1.7850 H       1  UNL1        0.0577
     15 H          -0.3160   -1.9624    1.0040 H       1  UNL1        0.0577
     16 H          -2.7385   -0.7925    1.0639 H       1  UNL1        0.2095
     17 H           1.8524   -1.1530    0.4653 H       1  UNL1        0.0577
     18 H           1.4317    0.4520    1.2673 H       1  UNL1        0.0577
     19 H           2.8598    1.1916   -0.0796 H       1  UNL1        0.2095
@<TRIPOS>BOND
     1     1     2    1
     2     2     3    1
     3     3     4    1
     4     2     5    1
     5     5     6    1
     6     2     7    1
     7     7     8    1
     8     1     9    1
     9     1    10    1
    10     3    11    1
    11     3    12    1
    12     4    13    1
    13     5    14    1
    14     5    15    1
    15     6    16    1
    16     7    17    1
    17     7    18    1
    18     8    19    1
