@<TRIPOS>MOLECULE
*****
 46 49 0 0 0
SMALL
GASTEIGER

@<TRIPOS>ATOM
      1 C          -1.1066   -4.0964    0.2998 C.3     1  UNL1       -0.0369
      2 C          -0.8344   -2.6382    0.2748 C.ar    1  UNL1       -0.0132
      3 C           0.4246   -2.1853    0.6002 C.ar    1  UNL1       -0.0348
      4 C           0.6892   -0.8329    0.5806 C.ar    1  UNL1        0.0345
      5 N           1.9893   -0.3502    0.9155 N.am    1  UNL1       -0.2802
      6 C           2.9985   -0.1786   -0.0696 C.2     1  UNL1        0.2666
      7 O           2.7930   -0.4414   -1.2663 O.2     1  UNL1       -0.2682
      8 C           4.3134    0.3224    0.3483 C.ar    1  UNL1        0.1257
      9 C           5.3357    0.5123   -0.5532 C.ar    1  UNL1       -0.0300
     10 C           6.5656    0.9841   -0.1428 C.ar    1  UNL1       -0.0407
     11 C           6.8090    1.2799    1.1821 C.ar    1  UNL1        0.0699
     12 C           8.0979    1.7761    1.6230 C.1     1  UNL1        0.1007
     13 N           9.1245    2.1809    1.9877 N.1     1  UNL1       -0.1908
     14 C           5.7617    1.0786    2.0643 C.ar    1  UNL1        0.0458
     15 N           4.5692    0.6164    1.6365 N.ar    1  UNL1       -0.2491
     16 C          -0.2837    0.0879    0.2402 C.ar    1  UNL1       -0.0320
     17 C          -1.5348   -0.3501   -0.0839 C.ar    1  UNL1        0.0230
     18 C          -2.6140    0.5856   -0.4537 C.3     1  UNL1        0.1603
     19 C          -2.1751    2.0137   -0.5405 C.3     1  UNL1        0.2686
     20 F          -1.1850    2.1028   -1.5000 F       1  UNL1       -0.2062
     21 F          -1.7662    2.5717    0.6343 F       1  UNL1       -0.2062
     22 N          -3.0110    0.2017   -1.8172 N.2     1  UNL1       -0.2194
     23 C          -4.1893    0.5389   -2.2182 C.2     1  UNL1        0.2764
     24 N          -4.6547    0.2031   -3.5351 N.pl3   1  UNL1       -0.3134
     25 O          -4.9761    1.2399   -1.3107 O.2     1  UNL1       -0.4622
     26 C          -5.0749    0.8526    0.0327 C.3     1  UNL1        0.1091
     27 C          -4.4198    1.5536    1.1320 C.3     1  UNL1       -0.0064
     28 C          -3.7550    0.3835    0.5149 C.3     1  UNL1        0.0344
     29 C          -1.8070   -1.7173   -0.0655 C.ar    1  UNL1        0.1320
     30 F          -3.0230   -2.1680   -0.3812 F       1  UNL1       -0.2048
     31 H          -0.5876   -4.5784   -0.5793 H       1  UNL1        0.0278
     32 H          -0.7876   -4.5662    1.2487 H       1  UNL1        0.0278
     33 H          -2.1893   -4.2303    0.0991 H       1  UNL1        0.0278
     34 H           1.2430   -2.8487    0.8787 H       1  UNL1        0.0640
     35 H           2.2272   -0.1115    1.8985 H       1  UNL1        0.1552
     36 H           5.1295    0.2733   -1.6044 H       1  UNL1        0.0641
     37 H           7.3487    1.1250   -0.8612 H       1  UNL1        0.0631
     38 H           5.9528    1.3126    3.1148 H       1  UNL1        0.0843
     39 H          -0.0656    1.1289    0.2287 H       1  UNL1        0.0640
     40 H          -3.0231    2.6196   -0.9388 H       1  UNL1        0.1047
     41 H          -5.2026   -0.6744   -3.6445 H       1  UNL1        0.1466
     42 H          -4.4650    0.7935   -4.3546 H       1  UNL1        0.1466
     43 H          -5.9920    0.2232    0.2299 H       1  UNL1        0.0737
     44 H          -4.0524    2.5778    0.9296 H       1  UNL1        0.0306
     45 H          -4.8302    1.3995    2.1503 H       1  UNL1        0.0306
     46 H          -3.7665   -0.5714    1.0752 H       1  UNL1        0.0366
@<TRIPOS>BOND
     1     1     2    1
     2     2     3   ar
     3     3     4   ar
     4     4     5    1
     5     5     6   am
     6     6     7    2
     7     6     8    1
     8     8     9   ar
     9     9    10   ar
    10    10    11   ar
    11    11    12    1
    12    12    13    3
    13    11    14   ar
    14    14    15   ar
    15     4    16   ar
    16    16    17   ar
    17    17    18    1
    18    18    19    1
    19    19    20    1
    20    19    21    1
    21    18    22    1
    22    22    23    2
    23    23    24    1
    24    23    25    1
    25    25    26    1
    26    26    27    1
    27    27    28    1
    28    17    29   ar
    29    29    30    1
    30    29     2   ar
    31    15     8   ar
    32    28    18    1
    33    28    26    1
    34     1    31    1
    35     1    32    1
    36     1    33    1
    37     3    34    1
    38     5    35    1
    39     9    36    1
    40    10    37    1
    41    14    38    1
    42    16    39    1
    43    19    40    1
    44    24    41    1
    45    24    42    1
    46    26    43    1
    47    27    44    1
    48    27    45    1
    49    28    46    1
