@<TRIPOS>MOLECULE
*****
 43 46 0 0 0
SMALL
GASTEIGER

@<TRIPOS>ATOM
      1 C           1.1639   -1.5087    1.4402 C.3     1  UNL1        0.0291
      2 N           0.7395   -0.5359    0.4120 N.ar    1  UNL1       -0.2830
      3 C          -0.4993   -0.3492   -0.0602 C.ar    1  UNL1        0.0511
      4 C          -0.4765    0.6494   -1.0067 C.ar    1  UNL1        0.0437
      5 C           0.8306    1.0662   -1.0938 C.ar    1  UNL1        0.2755
      6 O           1.2407    1.9769   -1.8645 O.2     1  UNL1       -0.2655
      7 N           1.5228    0.3200   -0.2181 N.ar    1  UNL1       -0.2170
      8 C           2.9341    0.4470   -0.0041 C.ar    1  UNL1        0.0673
      9 C           3.7897    0.4879   -1.0967 C.ar    1  UNL1       -0.0362
     10 C           5.1564    0.6091   -0.9476 C.ar    1  UNL1       -0.0598
     11 C           5.6724    0.6910    0.3379 C.ar    1  UNL1       -0.0616
     12 C           4.8205    0.6498    1.4121 C.ar    1  UNL1       -0.0598
     13 C           3.4406    0.5280    1.2778 C.ar    1  UNL1       -0.0362
     14 C          -1.8822    0.8345   -1.5188 C.3     1  UNL1       -0.0029
     15 C          -2.2168   -0.4009   -2.3010 C.3     1  UNL1       -0.0446
     16 C          -2.2397   -1.5170   -1.2427 C.3     1  UNL1       -0.0411
     17 C          -1.9321   -0.8002    0.0296 C.3     1  UNL1        0.0158
     18 C          -2.2936   -1.4572    1.2762 C.3     1  UNL1       -0.0536
     19 C          -2.6320    0.5466   -0.2115 C.3     1  UNL1       -0.0171
     20 C          -4.0954    0.3927   -0.4324 C.3     1  UNL1       -0.0584
     21 C          -2.3044    1.5395    0.8465 C.3     1  UNL1       -0.0584
     22 H           2.1788   -1.8979    1.2128 H       1  UNL1        0.0472
     23 H           0.4668   -2.3766    1.3181 H       1  UNL1        0.0472
     24 H           1.0484   -1.1055    2.4437 H       1  UNL1        0.0472
     25 H           3.3840    0.4237   -2.1020 H       1  UNL1        0.0639
     26 H           5.8043    0.6391   -1.8100 H       1  UNL1        0.0618
     27 H           6.7346    0.7860    0.4803 H       1  UNL1        0.0618
     28 H           5.2124    0.7131    2.4231 H       1  UNL1        0.0618
     29 H           2.8128    0.5000    2.1515 H       1  UNL1        0.0639
     30 H          -2.0848    1.7764   -1.9588 H       1  UNL1        0.0357
     31 H          -3.1591   -0.3433   -2.8529 H       1  UNL1        0.0272
     32 H          -1.3775   -0.5639   -3.0230 H       1  UNL1        0.0272
     33 H          -1.3558   -2.1867   -1.4588 H       1  UNL1        0.0274
     34 H          -3.1678   -2.0821   -1.2557 H       1  UNL1        0.0274
     35 H          -2.2136   -2.5557    1.1891 H       1  UNL1        0.0239
     36 H          -1.6392   -1.1459    2.0972 H       1  UNL1        0.0239
     37 H          -3.3424   -1.2190    1.5634 H       1  UNL1        0.0239
     38 H          -4.5842    0.2137    0.5228 H       1  UNL1        0.0235
     39 H          -4.4817    1.3501   -0.8324 H       1  UNL1        0.0235
     40 H          -4.3352   -0.4159   -1.1249 H       1  UNL1        0.0235
     41 H          -2.5931    2.5406    0.5021 H       1  UNL1        0.0235
     42 H          -1.2142    1.5173    1.0721 H       1  UNL1        0.0235
     43 H          -2.8327    1.2632    1.7644 H       1  UNL1        0.0235
@<TRIPOS>BOND
     1     1     2    1
     2     2     3   ar
     3     3     4   ar
     4     4     5   ar
     5     5     6    2
     6     5     7   ar
     7     7     8    1
     8     8     9   ar
     9     9    10   ar
    10    10    11   ar
    11    11    12   ar
    12    12    13   ar
    13     4    14    1
    14    14    15    1
    15    15    16    1
    16    16    17    1
    17    17    18    1
    18    17    19    1
    19    19    20    1
    20    19    21    1
    21     7     2   ar
    22    13     8   ar
    23    19    14    1
    24    17     3    1
    25     1    22    1
    26     1    23    1
    27     1    24    1
    28     9    25    1
    29    10    26    1
    30    11    27    1
    31    12    28    1
    32    13    29    1
    33    14    30    1
    34    15    31    1
    35    15    32    1
    36    16    33    1
    37    16    34    1
    38    18    35    1
    39    18    36    1
    40    18    37    1
    41    20    38    1
    42    20    39    1
    43    20    40    1
    44    21    41    1
    45    21    42    1
    46    21    43    1
