
     RDKit          3D

 43 46  0  0  0  0  0  0  0  0999 V2000
    1.1639   -1.5087    1.4402 C   0  0  0  0  0  0  0  0  0  0  0  0
    0.7395   -0.5359    0.4120 N   0  0  0  0  0  0  0  0  0  0  0  0
   -0.4993   -0.3492   -0.0602 C   0  0  0  0  0  0  0  0  0  0  0  0
   -0.4765    0.6494   -1.0067 C   0  0  0  0  0  0  0  0  0  0  0  0
    0.8306    1.0662   -1.0938 C   0  0  0  0  0  0  0  0  0  0  0  0
    1.2407    1.9769   -1.8645 O   0  0  0  0  0  0  0  0  0  0  0  0
    1.5228    0.3200   -0.2181 N   0  0  0  0  0  0  0  0  0  0  0  0
    2.9341    0.4470   -0.0041 C   0  0  0  0  0  0  0  0  0  0  0  0
    3.7897    0.4879   -1.0967 C   0  0  0  0  0  0  0  0  0  0  0  0
    5.1564    0.6091   -0.9476 C   0  0  0  0  0  0  0  0  0  0  0  0
    5.6724    0.6910    0.3379 C   0  0  0  0  0  0  0  0  0  0  0  0
    4.8205    0.6498    1.4121 C   0  0  0  0  0  0  0  0  0  0  0  0
    3.4406    0.5280    1.2778 C   0  0  0  0  0  0  0  0  0  0  0  0
   -1.8822    0.8345   -1.5188 C   0  0  1  0  0  0  0  0  0  0  0  0
   -2.2168   -0.4009   -2.3010 C   0  0  0  0  0  0  0  0  0  0  0  0
   -2.2397   -1.5170   -1.2427 C   0  0  0  0  0  0  0  0  0  0  0  0
   -1.9321   -0.8002    0.0296 C   0  0  1  0  0  0  0  0  0  0  0  0
   -2.2936   -1.4572    1.2762 C   0  0  0  0  0  0  0  0  0  0  0  0
   -2.6320    0.5466   -0.2115 C   0  0  0  0  0  0  0  0  0  0  0  0
   -4.0954    0.3927   -0.4324 C   0  0  0  0  0  0  0  0  0  0  0  0
   -2.3044    1.5395    0.8465 C   0  0  0  0  0  0  0  0  0  0  0  0
    2.1788   -1.8979    1.2128 H   0  0  0  0  0  0  0  0  0  0  0  0
    0.4668   -2.3766    1.3181 H   0  0  0  0  0  0  0  0  0  0  0  0
    1.0484   -1.1055    2.4437 H   0  0  0  0  0  0  0  0  0  0  0  0
    3.3840    0.4237   -2.1020 H   0  0  0  0  0  0  0  0  0  0  0  0
    5.8043    0.6391   -1.8100 H   0  0  0  0  0  0  0  0  0  0  0  0
    6.7346    0.7860    0.4803 H   0  0  0  0  0  0  0  0  0  0  0  0
    5.2124    0.7131    2.4231 H   0  0  0  0  0  0  0  0  0  0  0  0
    2.8128    0.5000    2.1515 H   0  0  0  0  0  0  0  0  0  0  0  0
   -2.0848    1.7764   -1.9588 H   0  0  0  0  0  0  0  0  0  0  0  0
   -3.1591   -0.3433   -2.8529 H   0  0  0  0  0  0  0  0  0  0  0  0
   -1.3775   -0.5639   -3.0230 H   0  0  0  0  0  0  0  0  0  0  0  0
   -1.3558   -2.1867   -1.4588 H   0  0  0  0  0  0  0  0  0  0  0  0
   -3.1678   -2.0821   -1.2557 H   0  0  0  0  0  0  0  0  0  0  0  0
   -2.2136   -2.5557    1.1891 H   0  0  0  0  0  0  0  0  0  0  0  0
   -1.6392   -1.1459    2.0972 H   0  0  0  0  0  0  0  0  0  0  0  0
   -3.3424   -1.2190    1.5634 H   0  0  0  0  0  0  0  0  0  0  0  0
   -4.5842    0.2137    0.5228 H   0  0  0  0  0  0  0  0  0  0  0  0
   -4.4817    1.3501   -0.8324 H   0  0  0  0  0  0  0  0  0  0  0  0
   -4.3352   -0.4159   -1.1249 H   0  0  0  0  0  0  0  0  0  0  0  0
   -2.5931    2.5406    0.5021 H   0  0  0  0  0  0  0  0  0  0  0  0
   -1.2142    1.5173    1.0721 H   0  0  0  0  0  0  0  0  0  0  0  0
   -2.8327    1.2632    1.7644 H   0  0  0  0  0  0  0  0  0  0  0  0
  1  2  1  0
  2  3  1  0
  3  4  2  0
  4  5  1  0
  5  6  2  0
  5  7  1  0
  7  8  1  0
  8  9  2  0
  9 10  1  0
 10 11  2  0
 11 12  1  0
 12 13  2  0
  4 14  1  0
 14 15  1  0
 15 16  1  0
 16 17  1  0
 17 18  1  1
 17 19  1  0
 19 20  1  0
 19 21  1  0
  7  2  1  0
 13  8  1  0
 19 14  1  0
 17  3  1  0
  1 22  1  0
  1 23  1  0
  1 24  1  0
  9 25  1  0
 10 26  1  0
 11 27  1  0
 12 28  1  0
 13 29  1  0
 14 30  1  6
 15 31  1  0
 15 32  1  0
 16 33  1  0
 16 34  1  0
 18 35  1  0
 18 36  1  0
 18 37  1  0
 20 38  1  0
 20 39  1  0
 20 40  1  0
 21 41  1  0
 21 42  1  0
 21 43  1  0
M  END
$$$$
