@<TRIPOS>MOLECULE
*****
 67 71 0 0 0
SMALL
GASTEIGER

@<TRIPOS>ATOM
      1 C           5.4503    5.7266    0.5899 C.3     1  UNL1        0.0004
      2 N           4.6382    4.5109    0.6345 N.am    1  UNL1       -0.3144
      3 C           3.4571    4.3717   -0.1252 C.2     1  UNL1        0.2438
      4 O           3.0996    5.3403   -0.8671 O.2     1  UNL1       -0.2702
      5 C           2.6137    3.1942   -0.1218 C.ar    1  UNL1        0.0367
      6 C           2.8922    2.0792    0.6369 C.ar    1  UNL1       -0.0493
      7 C           2.0795    0.9621    0.6321 C.ar    1  UNL1       -0.0559
      8 C           0.9372    0.9124   -0.1427 C.ar    1  UNL1       -0.0228
      9 C           0.0587   -0.2969   -0.1442 C.3     1  UNL1        0.0976
     10 C           0.5094   -1.1618    0.9746 C.ar    1  UNL1        0.1732
     11 N           0.2442   -0.9117    2.2746 N.ar    1  UNL1       -0.1114
     12 N           0.7777   -1.8665    2.9777 N.ar    1  UNL1       -0.0230
     13 N           1.3713   -2.7114    2.1616 N.ar    1  UNL1       -0.0435
     14 N           1.2125   -2.2849    0.9062 N.ar    1  UNL1       -0.2230
     15 C           1.6976   -2.9068   -0.3035 C.3     1  UNL1        0.0702
     16 C           3.0454   -2.4199   -0.6359 C.ar    1  UNL1       -0.0260
     17 C           3.2921   -1.3742   -1.4834 C.ar    1  UNL1       -0.0568
     18 C           4.5895   -0.9405   -1.7724 C.ar    1  UNL1       -0.0614
     19 C           5.6404   -1.5976   -1.1770 C.ar    1  UNL1       -0.0617
     20 C           5.3915   -2.6468   -0.3268 C.ar    1  UNL1       -0.0614
     21 C           4.1174   -3.0825   -0.0349 C.ar    1  UNL1       -0.0568
     22 N          -1.3149   -0.0266   -0.0251 N.3     1  UNL1       -0.2878
     23 C          -1.7920    0.7549    1.0369 C.3     1  UNL1        0.0011
     24 C          -2.8079   -0.0160    1.8436 C.3     1  UNL1       -0.0273
     25 C          -3.2086   -1.2692    1.0512 C.3     1  UNL1        0.0004
     26 N          -4.2105   -0.7959    0.1221 N.3     1  UNL1       -0.2981
     27 C          -5.1033   -1.8024   -0.3418 C.3     1  UNL1        0.0105
     28 C          -6.1822   -1.1851   -1.2047 C.3     1  UNL1       -0.0373
     29 C          -7.0367   -1.1289    0.0725 C.3     1  UNL1       -0.0502
     30 C          -6.1814   -2.2671    0.5793 C.3     1  UNL1       -0.0373
     31 C          -3.5927   -0.1155   -0.9935 C.3     1  UNL1        0.0120
     32 C          -2.1295   -0.3167   -1.1254 C.3     1  UNL1        0.0126
     33 C           0.6349    2.0138   -0.9111 C.ar    1  UNL1       -0.0559
     34 C           1.4663    3.1224   -0.8891 C.ar    1  UNL1       -0.0493
     35 H           5.1686    6.4352    1.3732 H       1  UNL1        0.0426
     36 H           5.3929    6.2233   -0.3995 H       1  UNL1        0.0426
     37 H           6.4981    5.4081    0.7628 H       1  UNL1        0.0426
     38 H           4.9344    3.7175    1.2444 H       1  UNL1        0.1487
     39 H           3.7904    2.0693    1.2709 H       1  UNL1        0.0625
     40 H           2.3396    0.0995    1.2505 H       1  UNL1        0.0621
     41 H           0.2253   -0.8074   -1.1222 H       1  UNL1        0.0594
     42 H           0.9921   -2.6755   -1.1283 H       1  UNL1        0.0560
     43 H           1.6871   -4.0206   -0.2335 H       1  UNL1        0.0560
     44 H           2.4647   -0.8697   -1.9430 H       1  UNL1        0.0621
     45 H           4.7150   -0.1245   -2.4369 H       1  UNL1        0.0618
     46 H           6.6762   -1.2978   -1.3693 H       1  UNL1        0.0618
     47 H           6.2126   -3.1804    0.1550 H       1  UNL1        0.0618
     48 H           3.9316   -3.9116    0.6374 H       1  UNL1        0.0621
     49 H          -2.2281    1.7415    0.7234 H       1  UNL1        0.0427
     50 H          -0.9818    1.0465    1.7469 H       1  UNL1        0.0427
     51 H          -3.7150    0.6227    2.0033 H       1  UNL1        0.0290
     52 H          -2.4006   -0.3364    2.8032 H       1  UNL1        0.0290
     53 H          -3.6098   -2.0063    1.7382 H       1  UNL1        0.0427
     54 H          -2.3150   -1.6288    0.5333 H       1  UNL1        0.0427
     55 H          -4.6023   -2.6107   -0.9330 H       1  UNL1        0.0462
     56 H          -5.9782   -0.1804   -1.6113 H       1  UNL1        0.0280
     57 H          -6.6405   -1.8720   -1.9427 H       1  UNL1        0.0280
     58 H          -8.0958   -1.3387   -0.0794 H       1  UNL1        0.0266
     59 H          -6.7867   -0.1963    0.6225 H       1  UNL1        0.0266
     60 H          -6.5870   -3.2608    0.2368 H       1  UNL1        0.0280
     61 H          -5.9672   -2.2567    1.6584 H       1  UNL1        0.0280
     62 H          -4.0412   -0.5091   -1.9586 H       1  UNL1        0.0439
     63 H          -3.8994    0.9529   -0.9645 H       1  UNL1        0.0439
     64 H          -1.9789   -1.3967   -1.4468 H       1  UNL1        0.0439
     65 H          -1.8181    0.3014   -2.0241 H       1  UNL1        0.0439
     66 H          -0.2655    2.0125   -1.5402 H       1  UNL1        0.0621
     67 H           1.2250    3.9863   -1.4947 H       1  UNL1        0.0625
@<TRIPOS>BOND
     1     1     2    1
     2     2     3   am
     3     3     4    2
     4     3     5    1
     5     5     6   ar
     6     6     7   ar
     7     7     8   ar
     8     8     9    1
     9     9    10    1
    10    10    11   ar
    11    11    12   ar
    12    12    13   ar
    13    13    14   ar
    14    14    15    1
    15    15    16    1
    16    16    17   ar
    17    17    18   ar
    18    18    19   ar
    19    19    20   ar
    20    20    21   ar
    21     9    22    1
    22    22    23    1
    23    23    24    1
    24    24    25    1
    25    25    26    1
    26    26    27    1
    27    27    28    1
    28    28    29    1
    29    29    30    1
    30    26    31    1
    31    31    32    1
    32     8    33   ar
    33    33    34   ar
    34    34     5   ar
    35    14    10   ar
    36    21    16   ar
    37    32    22    1
    38    30    27    1
    39     1    35    1
    40     1    36    1
    41     1    37    1
    42     2    38    1
    43     6    39    1
    44     7    40    1
    45     9    41    1
    46    15    42    1
    47    15    43    1
    48    17    44    1
    49    18    45    1
    50    19    46    1
    51    20    47    1
    52    21    48    1
    53    23    49    1
    54    23    50    1
    55    24    51    1
    56    24    52    1
    57    25    53    1
    58    25    54    1
    59    27    55    1
    60    28    56    1
    61    28    57    1
    62    29    58    1
    63    29    59    1
    64    30    60    1
    65    30    61    1
    66    31    62    1
    67    31    63    1
    68    32    64    1
    69    32    65    1
    70    33    66    1
    71    34    67    1
