
     RDKit          3D

 58 61  0  0  0  0  0  0  0  0999 V2000
    6.2649   -1.7730    0.6393 C   0  0  0  0  0  0  0  0  0  0  0  0
    5.9804   -0.5530   -0.0928 N   0  0  0  0  0  0  0  0  0  0  0  0
    5.0542   -0.7734   -1.1562 C   0  0  0  0  0  0  0  0  0  0  0  0
    4.3640    0.5213   -1.4860 C   0  0  0  0  0  0  0  0  0  0  0  0
    3.4691    0.9296   -0.3000 C   0  0  0  0  0  0  0  0  0  0  0  0
    2.2631    0.1418   -0.4021 N   0  0  0  0  0  0  0  0  0  0  0  0
    1.0176    0.7249   -0.8403 C   0  0  0  0  0  0  0  0  0  0  0  0
    1.0855    1.9178   -1.1063 O   0  0  0  0  0  0  0  0  0  0  0  0
   -0.1945   -0.0713   -0.9419 C   0  0  0  0  0  0  0  0  0  0  0  0
   -0.0389   -1.4512   -1.2152 C   0  0  0  0  0  0  0  0  0  0  0  0
   -1.0847   -2.2375   -1.4821 N   0  0  0  0  0  0  0  0  0  0  0  0
   -2.3427   -1.7738   -1.5094 C   0  0  0  0  0  0  0  0  0  0  0  0
   -3.4688   -2.6377   -1.7999 N   0  0  0  0  0  0  0  0  0  0  0  0
   -4.4554   -2.9198   -0.8373 C   0  0  0  0  0  0  0  0  0  0  0  0
   -5.5120   -3.7331   -1.1573 C   0  0  0  0  0  0  0  0  0  0  0  0
   -6.5176   -4.0183   -0.2300 C   0  0  0  0  0  0  0  0  0  0  0  0
   -7.8647   -5.0525   -0.6431 Cl  0  0  0  0  0  0  0  0  0  0  0  0
   -6.4598   -3.4781    1.0376 C   0  0  0  0  0  0  0  0  0  0  0  0
   -5.4059   -2.6633    1.3683 C   0  0  0  0  0  0  0  0  0  0  0  0
   -5.3255   -1.9792    2.9628 Cl  0  0  0  0  0  0  0  0  0  0  0  0
   -4.4113   -2.3891    0.4321 C   0  0  0  0  0  0  0  0  0  0  0  0
   -2.5096   -0.4912   -1.2550 N   0  0  0  0  0  0  0  0  0  0  0  0
   -1.4671    0.3968   -0.9631 C   0  0  0  0  0  0  0  0  0  0  0  0
   -1.8430    1.6748   -0.5532 N   0  0  0  0  0  0  0  0  0  0  0  0
   -1.2601    2.7954    0.0891 C   0  0  2  0  0  0  0  0  0  0  0  0
   -0.6608    2.3723    1.3930 C   0  0  0  0  0  0  0  0  0  0  0  0
   -1.2513    3.0124    2.4355 O   0  0  0  0  0  0  0  0  0  0  0  0
   -2.3456    3.6898    2.0012 C   0  0  0  0  0  0  0  0  0  0  0  0
   -2.3755    3.7807    0.5322 C   0  0  1  0  0  0  0  0  0  0  0  0
   -2.0711    5.0573    0.0864 O   0  0  0  0  0  0  0  0  0  0  0  0
    4.2074    0.7949    0.9836 C   0  0  0  0  0  0  0  0  0  0  0  0
    5.6844    0.5751    0.7265 C   0  0  0  0  0  0  0  0  0  0  0  0
    7.0466   -1.5420    1.3657 H   0  0  0  0  0  0  0  0  0  0  0  0
    5.3247   -2.1358    1.0630 H   0  0  0  0  0  0  0  0  0  0  0  0
    6.6292   -2.5070   -0.1149 H   0  0  0  0  0  0  0  0  0  0  0  0
    4.3135   -1.5675   -0.9356 H   0  0  0  0  0  0  0  0  0  0  0  0
    5.6075   -1.1187   -2.0564 H   0  0  0  0  0  0  0  0  0  0  0  0
    3.7439    0.3442   -2.3870 H   0  0  0  0  0  0  0  0  0  0  0  0
    5.0812    1.3076   -1.7196 H   0  0  0  0  0  0  0  0  0  0  0  0
    3.1803    2.0003   -0.4389 H   0  0  0  0  0  0  0  0  0  0  0  0
    2.2560   -0.8582   -0.1545 H   0  0  0  0  0  0  0  0  0  0  0  0
    0.9813   -1.8397   -1.2043 H   0  0  0  0  0  0  0  0  0  0  0  0
   -3.5601   -3.0730   -2.7510 H   0  0  0  0  0  0  0  0  0  0  0  0
   -5.5598   -4.1569   -2.1466 H   0  0  0  0  0  0  0  0  0  0  0  0
   -7.2618   -3.7149    1.7491 H   0  0  0  0  0  0  0  0  0  0  0  0
   -3.5680   -1.7455    0.6764 H   0  0  0  0  0  0  0  0  0  0  0  0
   -2.8951    1.8857   -0.8218 H   0  0  0  0  0  0  0  0  0  0  0  0
   -0.6345    3.4278   -0.5490 H   0  0  0  0  0  0  0  0  0  0  0  0
    0.4349    2.6424    1.4231 H   0  0  0  0  0  0  0  0  0  0  0  0
   -0.6715    1.2646    1.4831 H   0  0  0  0  0  0  0  0  0  0  0  0
   -3.3094    3.3218    2.4160 H   0  0  0  0  0  0  0  0  0  0  0  0
   -2.2626    4.7377    2.4158 H   0  0  0  0  0  0  0  0  0  0  0  0
   -3.3398    3.4678    0.0733 H   0  0  0  0  0  0  0  0  0  0  0  0
   -2.2935    5.7654    0.7446 H   0  0  0  0  0  0  0  0  0  0  0  0
    4.1224    1.7197    1.5870 H   0  0  0  0  0  0  0  0  0  0  0  0
    3.8622   -0.0310    1.6254 H   0  0  0  0  0  0  0  0  0  0  0  0
    6.0487    1.5328    0.2549 H   0  0  0  0  0  0  0  0  0  0  0  0
    6.1989    0.4832    1.6856 H   0  0  0  0  0  0  0  0  0  0  0  0
  1  2  1  0
  2  3  1  0
  3  4  1  0
  4  5  1  0
  5  6  1  0
  6  7  1  0
  7  8  2  0
  7  9  1  0
  9 10  2  0
 10 11  1  0
 11 12  2  0
 12 13  1  0
 13 14  1  0
 14 15  2  0
 15 16  1  0
 16 17  1  0
 16 18  2  0
 18 19  1  0
 19 20  1  0
 19 21  2  0
 12 22  1  0
 22 23  2  0
 23 24  1  0
 24 25  1  0
 25 26  1  0
 26 27  1  0
 27 28  1  0
 28 29  1  0
 29 30  1  0
  5 31  1  0
 31 32  1  0
 32  2  1  0
 23  9  1  0
 29 25  1  0
 21 14  1  0
  1 33  1  0
  1 34  1  0
  1 35  1  0
  3 36  1  0
  3 37  1  0
  4 38  1  0
  4 39  1  0
  5 40  1  0
  6 41  1  0
 10 42  1  0
 13 43  1  0
 15 44  1  0
 18 45  1  0
 21 46  1  0
 24 47  1  0
 25 48  1  6
 26 49  1  0
 26 50  1  0
 28 51  1  0
 28 52  1  0
 29 53  1  6
 30 54  1  0
 31 55  1  0
 31 56  1  0
 32 57  1  0
 32 58  1  0
M  END
$$$$
