@<TRIPOS>MOLECULE
*****
 58 61 0 0 0
SMALL
GASTEIGER

@<TRIPOS>ATOM
      1 C           6.2649   -1.7730    0.6393 C.3     1  UNL1       -0.0128
      2 N           5.9804   -0.5530   -0.0928 N.3     1  UNL1       -0.3052
      3 C           5.0542   -0.7734   -1.1562 C.3     1  UNL1        0.0003
      4 C           4.3640    0.5213   -1.4860 C.3     1  UNL1       -0.0216
      5 C           3.4691    0.9296   -0.3000 C.3     1  UNL1        0.0257
      6 N           2.2631    0.1418   -0.4021 N.am    1  UNL1       -0.3083
      7 C           1.0176    0.7249   -0.8403 C.2     1  UNL1        0.2491
      8 O           1.0855    1.9178   -1.1063 O.2     1  UNL1       -0.2700
      9 C          -0.1945   -0.0713   -0.9419 C.ar    1  UNL1        0.0945
     10 C          -0.0389   -1.4512   -1.2152 C.ar    1  UNL1        0.0466
     11 N          -1.0847   -2.2375   -1.4821 N.ar    1  UNL1       -0.2218
     12 C          -2.3427   -1.7738   -1.5094 C.ar    1  UNL1        0.2212
     13 N          -3.4688   -2.6377   -1.7999 N.pl3   1  UNL1       -0.2835
     14 C          -4.4554   -2.9198   -0.8373 C.ar    1  UNL1        0.0363
     15 C          -5.5120   -3.7331   -1.1573 C.ar    1  UNL1       -0.0220
     16 C          -6.5176   -4.0183   -0.2300 C.ar    1  UNL1        0.0441
     17 CL         -7.8647   -5.0525   -0.6431 Cl      1  UNL1       -0.0834
     18 C          -6.4598   -3.4781    1.0376 C.ar    1  UNL1       -0.0249
     19 C          -5.4059   -2.6633    1.3683 C.ar    1  UNL1        0.0441
     20 CL         -5.3255   -1.9792    2.9628 Cl      1  UNL1       -0.0834
     21 C          -4.4113   -2.3891    0.4321 C.ar    1  UNL1       -0.0220
     22 N          -2.5096   -0.4912   -1.2550 N.ar    1  UNL1       -0.1987
     23 C          -1.4671    0.3968   -0.9631 C.ar    1  UNL1        0.1364
     24 N          -1.8430    1.6748   -0.5532 N.pl3   1  UNL1       -0.3207
     25 C          -1.2601    2.7954    0.0891 C.3     1  UNL1        0.0733
     26 C          -0.6608    2.3723    1.3930 C.3     1  UNL1        0.0686
     27 O          -1.2513    3.0124    2.4355 O.3     1  UNL1       -0.3752
     28 C          -2.3456    3.6898    2.0012 C.3     1  UNL1        0.0755
     29 C          -2.3755    3.7807    0.5322 C.3     1  UNL1        0.0988
     30 O          -2.0711    5.0573    0.0864 O.3     1  UNL1       -0.3876
     31 C           4.2074    0.7949    0.9836 C.3     1  UNL1       -0.0216
     32 C           5.6844    0.5751    0.7265 C.3     1  UNL1        0.0003
     33 H           7.0466   -1.5420    1.3657 H       1  UNL1        0.0391
     34 H           5.3247   -2.1358    1.0630 H       1  UNL1        0.0391
     35 H           6.6292   -2.5070   -0.1149 H       1  UNL1        0.0391
     36 H           4.3135   -1.5675   -0.9356 H       1  UNL1        0.0427
     37 H           5.6075   -1.1187   -2.0564 H       1  UNL1        0.0427
     38 H           3.7439    0.3442   -2.3870 H       1  UNL1        0.0295
     39 H           5.0812    1.3076   -1.7196 H       1  UNL1        0.0295
     40 H           3.1803    2.0003   -0.4389 H       1  UNL1        0.0499
     41 H           2.2560   -0.8582   -0.1545 H       1  UNL1        0.1493
     42 H           0.9813   -1.8397   -1.2043 H       1  UNL1        0.0839
     43 H          -3.5601   -3.0730   -2.7510 H       1  UNL1        0.1550
     44 H          -5.5598   -4.1569   -2.1466 H       1  UNL1        0.0651
     45 H          -7.2618   -3.7149    1.7491 H       1  UNL1        0.0647
     46 H          -3.5680   -1.7455    0.6764 H       1  UNL1        0.0651
     47 H          -2.8951    1.8857   -0.8218 H       1  UNL1        0.1479
     48 H          -0.6345    3.4278   -0.5490 H       1  UNL1        0.0547
     49 H           0.4349    2.6424    1.4231 H       1  UNL1        0.0579
     50 H          -0.6715    1.2646    1.4831 H       1  UNL1        0.0579
     51 H          -3.3094    3.3218    2.4160 H       1  UNL1        0.0586
     52 H          -2.2626    4.7377    2.4158 H       1  UNL1        0.0586
     53 H          -3.3398    3.4678    0.0733 H       1  UNL1        0.0635
     54 H          -2.2935    5.7654    0.7446 H       1  UNL1        0.2100
     55 H           4.1224    1.7197    1.5870 H       1  UNL1        0.0295
     56 H           3.8622   -0.0310    1.6254 H       1  UNL1        0.0295
     57 H           6.0487    1.5328    0.2549 H       1  UNL1        0.0427
     58 H           6.1989    0.4832    1.6856 H       1  UNL1        0.0427
@<TRIPOS>BOND
     1     1     2    1
     2     2     3    1
     3     3     4    1
     4     4     5    1
     5     5     6    1
     6     6     7   am
     7     7     8    2
     8     7     9    1
     9     9    10   ar
    10    10    11   ar
    11    11    12   ar
    12    12    13    1
    13    13    14    1
    14    14    15   ar
    15    15    16   ar
    16    16    17    1
    17    16    18   ar
    18    18    19   ar
    19    19    20    1
    20    19    21   ar
    21    12    22   ar
    22    22    23   ar
    23    23    24    1
    24    24    25    1
    25    25    26    1
    26    26    27    1
    27    27    28    1
    28    28    29    1
    29    29    30    1
    30     5    31    1
    31    31    32    1
    32    32     2    1
    33    23     9   ar
    34    29    25    1
    35    21    14   ar
    36     1    33    1
    37     1    34    1
    38     1    35    1
    39     3    36    1
    40     3    37    1
    41     4    38    1
    42     4    39    1
    43     5    40    1
    44     6    41    1
    45    10    42    1
    46    13    43    1
    47    15    44    1
    48    18    45    1
    49    21    46    1
    50    24    47    1
    51    25    48    1
    52    26    49    1
    53    26    50    1
    54    28    51    1
    55    28    52    1
    56    29    53    1
    57    30    54    1
    58    31    55    1
    59    31    56    1
    60    32    57    1
    61    32    58    1
