
     RDKit          3D

 52 54  0  0  0  0  0  0  0  0999 V2000
   -7.1669   -0.6853   -2.5381 C   0  0  0  0  0  0  0  0  0  0  0  0
   -5.9766   -0.0633   -2.0393 O   0  0  0  0  0  0  0  0  0  0  0  0
   -5.8369    0.3512   -0.7396 C   0  0  0  0  0  0  0  0  0  0  0  0
   -6.8501    0.1458    0.0148 O   0  0  0  0  0  0  0  0  0  0  0  0
   -4.6835    0.9608   -0.2505 N   0  0  0  0  0  0  0  0  0  0  0  0
   -4.7115    1.4087    1.1629 C   0  0  0  0  0  0  0  0  0  0  0  0
   -5.2120    2.7903    1.1745 C   0  0  0  0  0  0  0  0  0  0  0  0
   -5.3326    3.4127    2.2693 O   0  0  0  0  0  0  0  0  0  0  0  0
   -5.5598    3.4431    0.0213 O   0  0  0  0  0  0  0  0  0  0  0  0
   -3.4657    1.1626   -0.9641 C   0  0  0  0  0  0  0  0  0  0  0  0
   -2.4567    0.0518   -0.7801 C   0  0  0  0  0  0  0  0  0  0  0  0
   -1.4602    0.2407    0.1482 C   0  0  0  0  0  0  0  0  0  0  0  0
   -0.4808   -0.7258    0.4247 C   0  0  0  0  0  0  0  0  0  0  0  0
    0.4120   -0.4272    1.3282 O   0  0  0  0  0  0  0  0  0  0  0  0
    1.4556   -0.5643    2.1125 C   0  0  0  0  0  0  0  0  0  0  0  0
    2.7634   -0.7608    1.4223 C   0  0  0  0  0  0  0  0  0  0  0  0
    3.6891    0.1878    1.1343 N   0  0  0  0  0  0  0  0  0  0  0  0
    4.7102   -0.3945    0.4835 C   0  0  0  0  0  0  0  0  0  0  0  0
    5.9027    0.3028    0.0046 C   0  0  0  0  0  0  0  0  0  0  0  0
    6.0842    1.6554    0.1837 C   0  0  0  0  0  0  0  0  0  0  0  0
    7.2196    2.2831   -0.2786 C   0  0  0  0  0  0  0  0  0  0  0  0
    8.2056    1.5819   -0.9320 C   0  0  0  0  0  0  0  0  0  0  0  0
    9.6455    2.4151   -1.5107 Cl  0  0  0  0  0  0  0  0  0  0  0  0
    8.0504    0.2229   -1.1263 C   0  0  0  0  0  0  0  0  0  0  0  0
    6.9118   -0.3851   -0.6582 C   0  0  0  0  0  0  0  0  0  0  0  0
    4.4428   -1.6711    0.3622 O   0  0  0  0  0  0  0  0  0  0  0  0
    3.2589   -1.9223    0.9280 C   0  0  0  0  0  0  0  0  0  0  0  0
    2.6530   -3.2695    0.9730 C   0  0  0  0  0  0  0  0  0  0  0  0
   -0.5762   -1.9023   -0.3034 C   0  0  0  0  0  0  0  0  0  0  0  0
   -1.5501   -2.1263   -1.2333 C   0  0  0  0  0  0  0  0  0  0  0  0
   -2.4960   -1.1261   -1.4642 C   0  0  0  0  0  0  0  0  0  0  0  0
   -3.4355   -1.3619   -2.4064 F   0  0  0  0  0  0  0  0  0  0  0  0
   -7.2220   -1.7376   -2.2591 H   0  0  0  0  0  0  0  0  0  0  0  0
   -8.0433   -0.1059   -2.1584 H   0  0  0  0  0  0  0  0  0  0  0  0
   -7.1411   -0.6067   -3.6515 H   0  0  0  0  0  0  0  0  0  0  0  0
   -3.6995    1.3222    1.6071 H   0  0  0  0  0  0  0  0  0  0  0  0
   -5.4028    0.7393    1.7058 H   0  0  0  0  0  0  0  0  0  0  0  0
   -5.9854    4.3797    0.0152 H   0  0  0  0  0  0  0  0  0  0  0  0
   -2.9692    2.1099   -0.6510 H   0  0  0  0  0  0  0  0  0  0  0  0
   -3.6294    1.2980   -2.0689 H   0  0  0  0  0  0  0  0  0  0  0  0
   -1.4397    1.2009    0.6950 H   0  0  0  0  0  0  0  0  0  0  0  0
    1.6432    0.3437    2.7971 H   0  0  0  0  0  0  0  0  0  0  0  0
    1.3933   -1.3984    2.8895 H   0  0  0  0  0  0  0  0  0  0  0  0
    5.3410    2.2317    0.6852 H   0  0  0  0  0  0  0  0  0  0  0  0
    7.3650    3.3585   -0.1365 H   0  0  0  0  0  0  0  0  0  0  0  0
    8.8431   -0.3127   -1.6457 H   0  0  0  0  0  0  0  0  0  0  0  0
    6.7675   -1.4345   -0.7959 H   0  0  0  0  0  0  0  0  0  0  0  0
    3.3938   -3.9956    1.4053 H   0  0  0  0  0  0  0  0  0  0  0  0
    1.7820   -3.2798    1.6577 H   0  0  0  0  0  0  0  0  0  0  0  0
    2.3417   -3.6431   -0.0006 H   0  0  0  0  0  0  0  0  0  0  0  0
    0.1525   -2.6700   -0.1183 H   0  0  0  0  0  0  0  0  0  0  0  0
   -1.6444   -3.0307   -1.8101 H   0  0  0  0  0  0  0  0  0  0  0  0
  1  2  1  0
  2  3  1  0
  3  4  2  0
  3  5  1  0
  5  6  1  0
  6  7  1  0
  7  8  2  0
  7  9  1  0
  5 10  1  0
 10 11  1  0
 11 12  2  0
 12 13  1  0
 13 14  1  0
 14 15  1  0
 15 16  1  0
 16 17  1  0
 17 18  2  0
 18 19  1  0
 19 20  2  0
 20 21  1  0
 21 22  2  0
 22 23  1  0
 22 24  1  0
 24 25  2  0
 18 26  1  0
 26 27  1  0
 27 28  1  0
 13 29  2  0
 29 30  1  0
 30 31  2  0
 31 32  1  0
 31 11  1  0
 27 16  2  0
 25 19  1  0
  1 33  1  0
  1 34  1  0
  1 35  1  0
  6 36  1  0
  6 37  1  0
  9 38  1  0
 10 39  1  0
 10 40  1  0
 12 41  1  0
 15 42  1  0
 15 43  1  0
 20 44  1  0
 21 45  1  0
 24 46  1  0
 25 47  1  0
 28 48  1  0
 28 49  1  0
 28 50  1  0
 29 51  1  0
 30 52  1  0
M  END
$$$$
