@<TRIPOS>MOLECULE
*****
 52 54 0 0 0
SMALL
GASTEIGER

@<TRIPOS>ATOM
      1 C          -7.1669   -0.6853   -2.5381 C.3     1  UNL1        0.0833
      2 O          -5.9766   -0.0633   -2.0393 O.3     1  UNL1       -0.4535
      3 C          -5.8369    0.3512   -0.7396 C.2     1  UNL1        0.4034
      4 O          -6.8501    0.1458    0.0148 O.2     1  UNL1       -0.2262
      5 N          -4.6835    0.9608   -0.2505 N.am    1  UNL1       -0.2523
      6 C          -4.7115    1.4087    1.1629 C.3     1  UNL1        0.1151
      7 C          -5.2120    2.7903    1.1745 C.2     1  UNL1        0.3224
      8 O          -5.3326    3.4127    2.2693 O.2     1  UNL1       -0.2492
      9 O          -5.5598    3.4431    0.0213 O.3     1  UNL1       -0.4795
     10 C          -3.4657    1.1626   -0.9641 C.3     1  UNL1        0.0463
     11 C          -2.4567    0.0518   -0.7801 C.ar    1  UNL1        0.0086
     12 C          -1.4602    0.2407    0.1482 C.ar    1  UNL1       -0.0125
     13 C          -0.4808   -0.7258    0.4247 C.ar    1  UNL1        0.1215
     14 O           0.4120   -0.4272    1.3282 O.3     1  UNL1       -0.4857
     15 C           1.4556   -0.5643    2.1125 C.3     1  UNL1        0.1347
     16 C           2.7634   -0.7608    1.4223 C.ar    1  UNL1        0.1198
     17 N           3.6891    0.1878    1.1343 N.ar    1  UNL1       -0.2103
     18 C           4.7102   -0.3945    0.4835 C.ar    1  UNL1        0.2278
     19 C           5.9027    0.3028    0.0046 C.ar    1  UNL1        0.0370
     20 C           6.0842    1.6554    0.1837 C.ar    1  UNL1       -0.0481
     21 C           7.2196    2.2831   -0.2786 C.ar    1  UNL1       -0.0427
     22 C           8.2056    1.5819   -0.9320 C.ar    1  UNL1        0.0410
     23 CL          9.6455    2.4151   -1.5107 Cl      1  UNL1       -0.0835
     24 C           8.0504    0.2229   -1.1263 C.ar    1  UNL1       -0.0427
     25 C           6.9118   -0.3851   -0.6582 C.ar    1  UNL1       -0.0481
     26 O           4.4428   -1.6711    0.3622 O.2     1  UNL1       -0.4401
     27 C           3.2589   -1.9223    0.9280 C.ar    1  UNL1        0.1291
     28 C           2.6530   -3.2695    0.9730 C.3     1  UNL1       -0.0044
     29 C          -0.5762   -1.9023   -0.3034 C.ar    1  UNL1       -0.0172
     30 C          -1.5501   -2.1263   -1.2333 C.ar    1  UNL1       -0.0227
     31 C          -2.4960   -1.1261   -1.4642 C.ar    1  UNL1        0.1283
     32 F          -3.4355   -1.3619   -2.4064 F       1  UNL1       -0.2051
     33 H          -7.2220   -1.7376   -2.2591 H       1  UNL1        0.0661
     34 H          -8.0433   -0.1059   -2.1584 H       1  UNL1        0.0661
     35 H          -7.1411   -0.6067   -3.6515 H       1  UNL1        0.0661
     36 H          -3.6995    1.3222    1.6071 H       1  UNL1        0.0581
     37 H          -5.4028    0.7393    1.7058 H       1  UNL1        0.0581
     38 H          -5.9854    4.3797    0.0152 H       1  UNL1        0.2951
     39 H          -2.9692    2.1099   -0.6510 H       1  UNL1        0.0516
     40 H          -3.6294    1.2980   -2.0689 H       1  UNL1        0.0516
     41 H          -1.4397    1.2009    0.6950 H       1  UNL1        0.0658
     42 H           1.6432    0.3437    2.7971 H       1  UNL1        0.0764
     43 H           1.3933   -1.3984    2.8895 H       1  UNL1        0.0764
     44 H           5.3410    2.2317    0.6852 H       1  UNL1        0.0626
     45 H           7.3650    3.3585   -0.1365 H       1  UNL1        0.0632
     46 H           8.8431   -0.3127   -1.6457 H       1  UNL1        0.0632
     47 H           6.7675   -1.4345   -0.7959 H       1  UNL1        0.0626
     48 H           3.3938   -3.9956    1.4053 H       1  UNL1        0.0308
     49 H           1.7820   -3.2798    1.6577 H       1  UNL1        0.0308
     50 H           2.3417   -3.6431   -0.0006 H       1  UNL1        0.0308
     51 H           0.1525   -2.6700   -0.1183 H       1  UNL1        0.0655
     52 H          -1.6444   -3.0307   -1.8101 H       1  UNL1        0.0647
@<TRIPOS>BOND
     1     1     2    1
     2     2     3    1
     3     3     4    2
     4     3     5   am
     5     5     6    1
     6     6     7    1
     7     7     8    2
     8     7     9    1
     9     5    10    1
    10    10    11    1
    11    11    12   ar
    12    12    13   ar
    13    13    14    1
    14    14    15    1
    15    15    16    1
    16    16    17   ar
    17    17    18   ar
    18    18    19    1
    19    19    20   ar
    20    20    21   ar
    21    21    22   ar
    22    22    23    1
    23    22    24   ar
    24    24    25   ar
    25    18    26   ar
    26    26    27   ar
    27    27    28    1
    28    13    29   ar
    29    29    30   ar
    30    30    31   ar
    31    31    32    1
    32    31    11   ar
    33    27    16   ar
    34    25    19   ar
    35     1    33    1
    36     1    34    1
    37     1    35    1
    38     6    36    1
    39     6    37    1
    40     9    38    1
    41    10    39    1
    42    10    40    1
    43    12    41    1
    44    15    42    1
    45    15    43    1
    46    20    44    1
    47    21    45    1
    48    24    46    1
    49    25    47    1
    50    28    48    1
    51    28    49    1
    52    28    50    1
    53    29    51    1
    54    30    52    1
