@<TRIPOS>MOLECULE
*****
 63 67 0 0 0
SMALL
GASTEIGER

@<TRIPOS>ATOM
      1 O          -5.1173   -0.6688   -1.8458 O.3     1  UNL1       -0.3690
      2 C          -4.3019   -0.0848   -0.8487 C.3     1  UNL1        0.2256
      3 C          -3.0243   -0.7889   -0.7373 C.2     1  UNL1        0.3500
      4 O          -3.2578   -1.6592   -1.6375 O.2     1  UNL1       -0.2467
      5 O          -1.8349   -0.8282   -0.0914 O.3     1  UNL1       -0.4532
      6 C          -0.8293   -1.7722   -0.3464 C.3     1  UNL1        0.1457
      7 C           0.3977   -1.0410   -0.8904 C.3     1  UNL1        0.0082
      8 N           1.5980   -1.7844   -0.5678 N.4     1  UNL1        0.2460
      9 C           2.6822   -1.5517   -1.4503 C.3     1  UNL1       -0.0268
     10 C           2.9069   -0.1784   -1.9582 C.3     1  UNL1        0.0218
     11 C           3.2071    0.8792   -0.9517 C.3     1  UNL1        0.0944
     12 O           4.3773    0.6110   -0.1966 O.3     1  UNL1       -0.4918
     13 C           4.8146    1.5001    0.7999 C.ar    1  UNL1        0.1205
     14 C           5.9483    1.2559    1.5427 C.ar    1  UNL1       -0.0199
     15 C           6.3884    2.1138    2.5186 C.ar    1  UNL1       -0.0583
     16 C           5.7023    3.2714    2.7983 C.ar    1  UNL1       -0.0615
     17 C           4.5713    3.5425    2.0774 C.ar    1  UNL1       -0.0583
     18 C           4.1348    2.6677    1.0919 C.ar    1  UNL1       -0.0199
     19 C           1.2414   -3.2111   -0.7864 C.3     1  UNL1       -0.0296
     20 C           0.3875   -3.7484    0.3054 C.3     1  UNL1       -0.0059
     21 C          -0.4033   -2.5491    0.8541 C.3     1  UNL1        0.0108
     22 C           0.5866   -1.7175    1.6312 C.3     1  UNL1       -0.0059
     23 C           1.8808   -1.6659    0.8317 C.3     1  UNL1       -0.0296
     24 C          -5.0601   -0.0927    0.4344 C.ar    1  UNL1        0.0370
     25 C          -6.2962    0.3088    0.8396 C.ar    1  UNL1       -0.0479
     26 C          -6.6517    0.1326    2.1475 C.ar    1  UNL1       -0.0544
     27 C          -5.7394   -0.4571    3.0449 C.ar    1  UNL1       -0.0240
     28 S          -4.3066   -0.7898    2.0327 S.2     1  UNL1       -0.0978
     29 C          -4.0617    1.3307   -1.2051 C.ar    1  UNL1        0.0370
     30 C          -4.8690    2.3519   -1.5793 C.ar    1  UNL1       -0.0479
     31 C          -4.3479    3.5888   -1.8499 C.ar    1  UNL1       -0.0544
     32 C          -2.9845    3.7884   -1.7378 C.ar    1  UNL1       -0.0240
     33 S          -2.3657    2.0861   -1.2027 S.2     1  UNL1       -0.0978
     34 H          -4.6011   -0.7589   -2.6817 H       1  UNL1        0.2117
     35 H          -1.1171   -2.4929   -1.1385 H       1  UNL1        0.0791
     36 H           0.3613   -0.0279   -0.4864 H       1  UNL1        0.0852
     37 H           0.3579   -0.9421   -2.0111 H       1  UNL1        0.0852
     38 H           3.6191   -1.8129   -0.8573 H       1  UNL1        0.0816
     39 H           2.6900   -2.3191   -2.2590 H       1  UNL1        0.0816
     40 H           3.8203   -0.2367   -2.6251 H       1  UNL1        0.0350
     41 H           2.0919    0.1989   -2.6139 H       1  UNL1        0.0350
     42 H           3.4906    1.8025   -1.5577 H       1  UNL1        0.0698
     43 H           2.3591    1.1974   -0.3488 H       1  UNL1        0.0698
     44 H           6.5213    0.3466    1.3500 H       1  UNL1        0.0654
     45 H           7.2891    1.9123    3.1037 H       1  UNL1        0.0619
     46 H           5.9939    3.9873    3.5507 H       1  UNL1        0.0618
     47 H           3.9854    4.4508    2.2578 H       1  UNL1        0.0619
     48 H           3.2422    2.8327    0.4863 H       1  UNL1        0.0654
     49 H           0.6807   -3.2299   -1.7407 H       1  UNL1        0.0815
     50 H           2.1899   -3.8005   -0.9287 H       1  UNL1        0.0815
     51 H          -0.2972   -4.5443   -0.0144 H       1  UNL1        0.0321
     52 H           1.0527   -4.0606    1.1363 H       1  UNL1        0.0321
     53 H          -1.2095   -2.9869    1.4472 H       1  UNL1        0.0342
     54 H           0.7612   -2.2553    2.5823 H       1  UNL1        0.0321
     55 H           0.2183   -0.7091    1.8443 H       1  UNL1        0.0321
     56 H           2.3460   -0.6975    1.0609 H       1  UNL1        0.0815
     57 H           2.5717   -2.4792    1.1992 H       1  UNL1        0.0815
     58 H          -6.8946    0.7432    0.0575 H       1  UNL1        0.0627
     59 H          -7.6506    0.4545    2.4880 H       1  UNL1        0.0623
     60 H          -5.9478   -0.6259    4.0813 H       1  UNL1        0.0693
     61 H          -5.9171    2.1049   -1.6409 H       1  UNL1        0.0627
     62 H          -4.9639    4.4266   -2.1517 H       1  UNL1        0.0623
     63 H          -2.4173    4.6824   -1.9096 H       1  UNL1        0.0693
@<TRIPOS>UNITY_ATOM_ATTR
8 1
charge 1
@<TRIPOS>BOND
     1     1     2    1
     2     2     3    1
     3     3     4    2
     4     3     5    1
     5     5     6    1
     6     6     7    1
     7     7     8    1
     8     8     9    1
     9     9    10    1
    10    10    11    1
    11    11    12    1
    12    12    13    1
    13    13    14   ar
    14    14    15   ar
    15    15    16   ar
    16    16    17   ar
    17    17    18   ar
    18     8    19    1
    19    19    20    1
    20    20    21    1
    21    21    22    1
    22    22    23    1
    23     2    24    1
    24    24    25   ar
    25    25    26   ar
    26    26    27   ar
    27    27    28   ar
    28     2    29    1
    29    29    30   ar
    30    30    31   ar
    31    31    32   ar
    32    32    33   ar
    33    21     6    1
    34    28    24   ar
    35    33    29   ar
    36    23     8    1
    37    18    13   ar
    38     1    34    1
    39     6    35    1
    40     7    36    1
    41     7    37    1
    42     9    38    1
    43     9    39    1
    44    10    40    1
    45    10    41    1
    46    11    42    1
    47    11    43    1
    48    14    44    1
    49    15    45    1
    50    16    46    1
    51    17    47    1
    52    18    48    1
    53    19    49    1
    54    19    50    1
    55    20    51    1
    56    20    52    1
    57    21    53    1
    58    22    54    1
    59    22    55    1
    60    23    56    1
    61    23    57    1
    62    25    58    1
    63    26    59    1
    64    27    60    1
    65    30    61    1
    66    31    62    1
    67    32    63    1
