
     RDKit          3D

 50 50  0  0  0  0  0  0  0  0999 V2000
   -5.0493   -1.4454   -0.5606 C   0  0  1  0  0  0  0  0  0  0  0  0
   -4.7086   -2.7802   -1.0780 N   0  0  0  0  0  0  0  0  0  0  0  0
   -3.7124   -0.7635   -0.2625 C   0  0  0  0  0  0  0  0  0  0  0  0
   -2.9429   -1.5558    0.7545 C   0  0  0  0  0  0  0  0  0  0  0  0
   -1.6131   -0.9320    1.0917 C   0  0  0  0  0  0  0  0  0  0  0  0
   -0.8985   -1.6852    2.0397 O   0  0  0  0  0  0  0  0  0  0  0  0
   -1.1341    0.1565    0.6047 N   0  0  0  0  0  0  0  0  0  0  0  0
    0.1365    0.6981    0.9648 C   0  0  1  0  0  0  0  0  0  0  0  0
    1.2554    0.2125    0.0617 C   0  0  0  0  0  0  0  0  0  0  0  0
    1.3503   -1.5852    0.1788 S   0  0  0  0  0  0  0  0  0  0  0  0
    2.6609   -2.2396   -0.8664 C   0  0  0  0  0  0  0  0  0  0  0  0
    3.9666   -1.7822   -0.3385 C   0  0  0  0  0  0  0  0  0  0  0  0
    4.6590   -0.7543   -0.9723 C   0  0  0  0  0  0  0  0  0  0  0  0
    5.8642   -0.2437   -0.5863 C   0  0  0  0  0  0  0  0  0  0  0  0
    6.4436   -0.8066    0.5404 C   0  0  0  0  0  0  0  0  0  0  0  0
    5.7981   -1.8220    1.1978 C   0  0  0  0  0  0  0  0  0  0  0  0
    4.5774   -2.3156    0.7797 C   0  0  0  0  0  0  0  0  0  0  0  0
    3.5961   -3.8731    1.7958 I   0  0  0  0  0  0  0  0  0  0  0  0
    0.0308    2.1993    0.8733 C   0  0  0  0  0  0  0  0  0  0  0  0
   -0.9319    2.8137    1.6871 O   0  0  0  0  0  0  0  0  0  0  0  0
    0.7802    2.8684    0.0961 N   0  0  0  0  0  0  0  0  0  0  0  0
    0.7040    4.3002   -0.0140 C   0  0  0  0  0  0  0  0  0  0  0  0
   -0.0875    4.6422   -1.2456 C   0  0  0  0  0  0  0  0  0  0  0  0
   -0.8214    4.5483   -2.3957 O   0  0  0  0  0  0  0  0  0  0  0  0
   -0.2101    5.8968   -1.4131 O   0  0  0  0  0  0  0  0  0  0  0  0
   -5.7806   -0.7590   -1.6377 C   0  0  0  0  0  0  0  0  0  0  0  0
   -6.4542    0.3113   -2.2058 O   0  0  0  0  0  0  0  0  0  0  0  0
   -5.6817   -1.7701   -2.3807 O   0  0  0  0  0  0  0  0  0  0  0  0
   -5.6126   -1.5377    0.3799 H   0  0  0  0  0  0  0  0  0  0  0  0
   -4.6009   -3.4731   -0.3315 H   0  0  0  0  0  0  0  0  0  0  0  0
   -3.8690   -2.6383   -1.6854 H   0  0  0  0  0  0  0  0  0  0  0  0
   -3.8737    0.2774    0.0844 H   0  0  0  0  0  0  0  0  0  0  0  0
   -3.1546   -0.6776   -1.2308 H   0  0  0  0  0  0  0  0  0  0  0  0
   -2.7977   -2.5942    0.3945 H   0  0  0  0  0  0  0  0  0  0  0  0
   -3.5897   -1.6339    1.6665 H   0  0  0  0  0  0  0  0  0  0  0  0
   -0.2546   -1.2372    2.6868 H   0  0  0  0  0  0  0  0  0  0  0  0
    0.4610    0.5138    2.0049 H   0  0  0  0  0  0  0  0  0  0  0  0
    2.2004    0.6081    0.5165 H   0  0  0  0  0  0  0  0  0  0  0  0
    1.1377    0.5213   -0.9870 H   0  0  0  0  0  0  0  0  0  0  0  0
    2.5753   -1.9013   -1.9150 H   0  0  0  0  0  0  0  0  0  0  0  0
    2.6268   -3.3514   -0.8106 H   0  0  0  0  0  0  0  0  0  0  0  0
    4.1927   -0.3215   -1.8559 H   0  0  0  0  0  0  0  0  0  0  0  0
    6.3158    0.5599   -1.1548 H   0  0  0  0  0  0  0  0  0  0  0  0
    7.4057   -0.3929    0.8416 H   0  0  0  0  0  0  0  0  0  0  0  0
    6.2798   -2.2397    2.0761 H   0  0  0  0  0  0  0  0  0  0  0  0
   -1.3776    3.6619    1.3537 H   0  0  0  0  0  0  0  0  0  0  0  0
    1.7594    4.6676   -0.1424 H   0  0  0  0  0  0  0  0  0  0  0  0
    0.2222    4.8029    0.8300 H   0  0  0  0  0  0  0  0  0  0  0  0
   -1.7482    4.1622   -2.3692 H   0  0  0  0  0  0  0  0  0  0  0  0
   -6.0954    0.6899   -3.0975 H   0  0  0  0  0  0  0  0  0  0  0  0
  1  2  1  0
  1  3  1  0
  3  4  1  0
  4  5  1  0
  5  6  1  0
  5  7  2  3
  7  8  1  0
  8  9  1  0
  9 10  1  0
 10 11  1  0
 11 12  1  0
 12 13  2  0
 13 14  1  0
 14 15  2  0
 15 16  1  0
 16 17  2  0
 17 18  1  0
  8 19  1  0
 19 20  1  0
 19 21  2  3
 21 22  1  0
 22 23  1  0
 23 24  1  0
 23 25  2  0
  1 26  1  0
 26 27  1  0
 26 28  2  0
 17 12  1  0
  1 29  1  1
  2 30  1  0
  2 31  1  0
  3 32  1  0
  3 33  1  0
  4 34  1  0
  4 35  1  0
  6 36  1  0
  8 37  1  1
  9 38  1  0
  9 39  1  0
 11 40  1  0
 11 41  1  0
 13 42  1  0
 14 43  1  0
 15 44  1  0
 16 45  1  0
 20 46  1  0
 22 47  1  0
 22 48  1  0
 24 49  1  0
 27 50  1  0
M  END
$$$$
