@<TRIPOS>MOLECULE
*****
 50 50 0 0 0
SMALL
GASTEIGER

@<TRIPOS>ATOM
      1 C          -5.0493   -1.4454   -0.5606 C.3     1  UNK1        0.1037
      2 N          -4.7086   -2.7802   -1.0780 N.3     1  UNK1       -0.3184
      3 C          -3.7124   -0.7635   -0.2625 C.3     1  UNK1       -0.0190
      4 C          -2.9429   -1.5558    0.7545 C.3     1  UNK1        0.0249
      5 C          -1.6131   -0.9320    1.0917 C.2     1  UNK1        0.1832
      6 O          -0.8985   -1.6852    2.0397 O.2     1  UNK1       -0.4956
      7 N          -1.1341    0.1565    0.6047 N.2     1  UNK1       -0.2411
      8 C           0.1365    0.6981    0.9648 C.3     1  UNK1        0.1378
      9 C           1.2554    0.2125    0.0617 C.3     1  UNK1        0.0251
     10 S           1.3503   -1.5852    0.1788 S.3     1  UNK1       -0.1534
     11 C           2.6609   -2.2396   -0.8664 C.3     1  UNK1        0.0199
     12 C           3.9666   -1.7822   -0.3385 C.ar    1  UNK1       -0.0245
     13 C           4.6590   -0.7543   -0.9723 C.ar    1  UNK1       -0.0568
     14 C           5.8642   -0.2437   -0.5863 C.ar    1  UNK1       -0.0614
     15 C           6.4436   -0.8066    0.5404 C.ar    1  UNK1       -0.0608
     16 C           5.7981   -1.8220    1.1978 C.ar    1  UNK1       -0.0483
     17 C           4.5774   -2.3156    0.7797 C.ar    1  UNK1        0.0173
     18 I           3.5961   -3.8731    1.7958 I       1  UNK1       -0.0435
     19 C           0.0308    2.1993    0.8733 C.2     1  UNK1        0.2092
     20 O          -0.9319    2.8137    1.6871 O.2     1  UNK1       -0.4942
     21 N           0.7802    2.8684    0.0961 N.2     2  GLY2       -0.2416
     22 CA          0.7040    4.3002   -0.0140 C.3     2  GLY2        0.1398
     23 C          -0.0875    4.6422   -1.2456 C.2     2  GLY2        0.3264
     24 O          -0.8214    4.5483   -2.3957 O.3     2  GLY2       -0.4793
     25 OXT        -0.2101    5.8968   -1.4131 O.2     2  GLY2       -0.2489
     26 C          -5.7806   -0.7590   -1.6377 C.2     1  UNK1        0.3217
     27 O          -6.4542    0.3113   -2.2058 O.3     1  UNK1       -0.4795
     28 O          -5.6817   -1.7701   -2.3807 O.2     1  UNK1       -0.2493
     29 H          -5.6126   -1.5377    0.3799 H       1  UNK1        0.0574
     30 H          -4.6009   -3.4731   -0.3315 H       1  UNK1        0.1190
     31 H          -3.8690   -2.6383   -1.6854 H       1  UNK1        0.1190
     32 H          -3.8737    0.2774    0.0844 H       1  UNK1        0.0290
     33 H          -3.1546   -0.6776   -1.2308 H       1  UNK1        0.0290
     34 H          -2.7977   -2.5942    0.3945 H       1  UNK1        0.0360
     35 H          -3.5897   -1.6339    1.6665 H       1  UNK1        0.0360
     36 H          -0.2546   -1.2372    2.6868 H       1  UNK1        0.2934
     37 H           0.4610    0.5138    2.0049 H       1  UNK1        0.0651
     38 H           2.2004    0.6081    0.5165 H       1  UNK1        0.0402
     39 H           1.1377    0.5213   -0.9870 H       1  UNK1        0.0402
     40 H           2.5753   -1.9013   -1.9150 H       1  UNK1        0.0425
     41 H           2.6268   -3.3514   -0.8106 H       1  UNK1        0.0425
     42 H           4.1927   -0.3215   -1.8559 H       1  UNK1        0.0621
     43 H           6.3158    0.5599   -1.1548 H       1  UNK1        0.0618
     44 H           7.4057   -0.3929    0.8416 H       1  UNK1        0.0618
     45 H           6.2798   -2.2397    2.0761 H       1  UNK1        0.0628
     46 H          -1.3776    3.6619    1.3537 H       1  UNK1        0.2935
     47 HA1         1.7594    4.6676   -0.1424 H       2  GLY2        0.0625
     48 HA2         0.2222    4.8029    0.8300 H       2  GLY2        0.0625
     49 H          -1.7482    4.1622   -2.3692 H       2  GLY2        0.2951
     50 H          -6.0954    0.6899   -3.0975 H       1  UNK1        0.2951
@<TRIPOS>BOND
     1     1     2    1
     2     1     3    1
     3     3     4    1
     4     4     5    1
     5     5     6    1
     6     5     7    2
     7     7     8    1
     8     8     9    1
     9     9    10    1
    10    10    11    1
    11    11    12    1
    12    12    13   ar
    13    13    14   ar
    14    14    15   ar
    15    15    16   ar
    16    16    17   ar
    17    17    18    1
    18     8    19    1
    19    19    20    1
    20    19    21    2
    21    21    22    1
    22    22    23    1
    23    23    24    1
    24    23    25    2
    25     1    26    1
    26    26    27    1
    27    26    28    2
    28    17    12   ar
    29     1    29    1
    30     2    30    1
    31     2    31    1
    32     3    32    1
    33     3    33    1
    34     4    34    1
    35     4    35    1
    36     6    36    1
    37     8    37    1
    38     9    38    1
    39     9    39    1
    40    11    40    1
    41    11    41    1
    42    13    42    1
    43    14    43    1
    44    15    44    1
    45    16    45    1
    46    20    46    1
    47    22    47    1
    48    22    48    1
    49    24    49    1
    50    27    50    1
