@<TRIPOS>MOLECULE
*****
 37 39 0 0 0
SMALL
GASTEIGER

@<TRIPOS>ATOM
      1 O           6.1065    1.0166    0.3076 O.3     1  UNL1       -0.5066
      2 C           4.7249    0.7970    0.1939 C.ar    1  UNL1        0.1204
      3 C           4.1821    0.4114    1.3982 C.ar    1  UNL1        0.0220
      4 C           2.8361    0.1408    1.5244 C.ar    1  UNL1        0.1295
      5 O           2.1066   -0.2553    2.6339 O.3     1  UNL1       -0.5060
      6 C           2.0664    0.2801    0.3696 C.ar    1  UNL1        0.0443
      7 C           2.5984    0.6648   -0.8390 C.ar    1  UNL1       -0.0455
      8 C           3.9433    0.9278   -0.9345 C.ar    1  UNL1       -0.0193
      9 C           0.6230    0.0325    0.3303 C.ar    1  UNL1        0.1039
     10 N          -0.3083    0.5604    1.1144 N.ar    1  UNL1       -0.1696
     11 N          -1.5346    0.1032    0.7900 N.ar    1  UNL1       -0.2588
     12 C          -2.6348    0.5980    1.5429 C.3     1  UNL1        0.0601
     13 C          -3.0830    1.8817    0.9061 C.2     1  UNL1       -0.0700
     14 C          -2.9724    2.8157   -0.0308 C.2     1  UNL1       -0.1009
     15 C          -1.3837   -0.7454   -0.2353 C.ar    1  UNL1        0.0815
     16 C          -0.0381   -0.7951   -0.5281 C.ar    1  UNL1        0.0283
     17 C           0.3976   -1.6111   -1.5437 C.ar    1  UNL1       -0.0504
     18 C          -0.4977   -2.3707   -2.2602 C.ar    1  UNL1       -0.0605
     19 C          -1.8237   -2.2600   -1.8998 C.ar    1  UNL1       -0.0480
     20 C          -2.3716   -1.4560   -0.8793 C.ar    1  UNL1        0.0804
     21 C          -3.8055   -1.4199   -0.6081 C.3     1  UNL1        0.4194
     22 F          -4.4756   -0.2636   -0.7806 F       1  UNL1       -0.1658
     23 F          -4.3810   -2.1542   -1.6794 F       1  UNL1       -0.1658
     24 F          -4.2186   -2.2285    0.4422 F       1  UNL1       -0.1658
     25 H           6.4932    1.9091   -0.0231 H       1  UNL1        0.2921
     26 H           4.7228    0.2811    2.3450 H       1  UNL1        0.0691
     27 H           2.4555   -1.0354    3.1727 H       1  UNL1        0.2922
     28 H           2.0194    0.7788   -1.7450 H       1  UNL1        0.0626
     29 H           4.4955    1.2373   -1.8149 H       1  UNL1        0.0654
     30 H          -2.3541    0.9640    2.5561 H       1  UNL1        0.0553
     31 H          -3.5425   -0.0119    1.5747 H       1  UNL1        0.0553
     32 H          -3.9223    2.4366    1.3302 H       1  UNL1        0.0584
     33 H          -3.0066    3.6444   -0.7184 H       1  UNL1        0.0532
     34 H          -2.1778    2.6530   -0.7502 H       1  UNL1        0.0532
     35 H           1.4547   -1.6363   -1.7589 H       1  UNL1        0.0625
     36 H          -0.1858   -3.0097   -3.0499 H       1  UNL1        0.0618
     37 H          -2.5084   -2.8812   -2.4936 H       1  UNL1        0.0624
@<TRIPOS>BOND
     1     1     2    1
     2     2     3   ar
     3     3     4   ar
     4     4     5    1
     5     4     6   ar
     6     6     7   ar
     7     7     8   ar
     8     6     9    1
     9     9    10   ar
    10    10    11   ar
    11    11    12    1
    12    12    13    1
    13    13    14    2
    14    11    15   ar
    15    15    16   ar
    16    16    17   ar
    17    17    18   ar
    18    18    19   ar
    19    19    20   ar
    20    20    21    1
    21    21    22    1
    22    21    23    1
    23    21    24    1
    24     8     2   ar
    25    16     9   ar
    26    20    15   ar
    27     1    25    1
    28     3    26    1
    29     5    27    1
    30     7    28    1
    31     8    29    1
    32    12    30    1
    33    12    31    1
    34    13    32    1
    35    14    33    1
    36    14    34    1
    37    17    35    1
    38    18    36    1
    39    19    37    1
