@<TRIPOS>MOLECULE
*****
 67 72 0 0 0
SMALL
GASTEIGER

@<TRIPOS>ATOM
      1 C          -4.8759   -2.1965    0.9824 C.3     1  UNL1       -0.0390
      2 C          -3.9103   -1.2796    0.3253 C.ar    1  UNL1       -0.0378
      3 C          -2.5482   -1.5120    0.3900 C.ar    1  UNL1       -0.0502
      4 C          -1.6107   -0.6842   -0.2053 C.ar    1  UNL1       -0.0125
      5 C          -0.1749   -0.9184   -0.1406 C.ar    1  UNL1        0.0463
      6 C           0.5085   -2.0922   -0.3346 C.ar    1  UNL1        0.0598
      7 N           1.8427   -1.8788   -0.1881 N.ar    1  UNL1       -0.1699
      8 N           2.0003   -0.5987    0.0925 N.ar    1  UNL1       -0.1827
      9 C           3.1417    0.0900    0.3239 C.ar    1  UNL1        0.2226
     10 N           4.3726   -0.6158    0.2690 N.pl3   1  UNL1       -0.3130
     11 C           5.1029   -0.6391   -0.9712 C.3     1  UNL1        0.0148
     12 C           6.3812   -1.4405   -0.8598 C.3     1  UNL1       -0.0213
     13 C           6.0895   -2.8737   -0.4830 C.3     1  UNL1       -0.0251
     14 C           7.3863   -3.5919   -0.2699 C.3     1  UNL1        0.0480
     15 O           8.1874   -3.0342    0.7070 O.3     1  UNL1       -0.3797
     16 C           7.6427   -1.8828    1.2616 C.3     1  UNL1        0.0480
     17 C           7.2753   -0.8657    0.2146 C.3     1  UNL1       -0.0251
     18 N           3.0547    1.3831    0.5893 N.ar    1  UNL1       -0.1609
     19 C           1.8519    2.0586    0.6402 C.ar    1  UNL1        0.3284
     20 O           1.8712    3.3911    0.9221 O.3     1  UNL1       -0.4205
     21 C           0.8050    4.2251    1.0414 C.ar    1  UNL1        0.1698
     22 C          -0.5017    3.8499    0.9089 C.ar    1  UNL1       -0.0162
     23 C          -1.5783    4.7442    1.0413 C.ar    1  UNL1       -0.0554
     24 C          -1.2963    6.0622    1.3176 C.ar    1  UNL1       -0.0233
     25 C           0.0255    6.4683    1.4565 C.ar    1  UNL1        0.1621
     26 F           0.2527    7.7547    1.7242 F       1  UNL1       -0.2024
     27 C           1.0390    5.5905    1.3249 C.ar    1  UNL1        0.2004
     28 F           2.3301    5.9644    1.4554 F       1  UNL1       -0.1986
     29 N           0.7813    1.3074    0.4005 N.ar    1  UNL1       -0.1746
     30 C           0.8003    0.0155    0.1300 C.ar    1  UNL1        0.1720
     31 C          -2.1079    0.4147   -0.8860 C.ar    1  UNL1       -0.0531
     32 C          -3.4602    0.6679   -0.9649 C.ar    1  UNL1       -0.0488
     33 C          -4.3674   -0.1770   -0.3603 C.ar    1  UNL1        0.0396
     34 C          -5.7683    0.1418   -0.4731 C.2     1  UNL1        0.2445
     35 O          -6.2038    1.2587   -0.1093 O.2     1  UNL1       -0.2702
     36 N          -6.6702   -0.7986   -0.9950 N.am    1  UNL1       -0.3085
     37 C          -8.0808   -0.4728   -1.1060 C.3     1  UNL1        0.0235
     38 C          -9.0860   -1.5352   -0.8016 C.3     1  UNL1       -0.0328
     39 C          -8.8235   -1.1583   -2.2239 C.3     1  UNL1       -0.0328
     40 H          -5.2018   -3.0197    0.3231 H       1  UNL1        0.0278
     41 H          -5.7121   -1.5695    1.3485 H       1  UNL1        0.0278
     42 H          -4.3787   -2.5995    1.9119 H       1  UNL1        0.0278
     43 H          -2.1512   -2.3666    0.9179 H       1  UNL1        0.0626
     44 H           0.1029   -3.0612   -0.5679 H       1  UNL1        0.0855
     45 H           4.7244   -1.1001    1.1154 H       1  UNL1        0.1489
     46 H           4.4584   -1.0430   -1.7572 H       1  UNL1        0.0465
     47 H           5.3861    0.3996   -1.2339 H       1  UNL1        0.0465
     48 H           6.8802   -1.4307   -1.8266 H       1  UNL1        0.0317
     49 H           5.4089   -2.8998    0.3691 H       1  UNL1        0.0290
     50 H           5.6096   -3.3383   -1.3767 H       1  UNL1        0.0290
     51 H           7.1661   -4.6458    0.0243 H       1  UNL1        0.0560
     52 H           7.9352   -3.6286   -1.2217 H       1  UNL1        0.0560
     53 H           8.4289   -1.4241    1.9061 H       1  UNL1        0.0560
     54 H           6.7745   -2.1003    1.9254 H       1  UNL1        0.0560
     55 H           6.7491   -0.0336    0.7250 H       1  UNL1        0.0290
     56 H           8.1941   -0.4383   -0.2368 H       1  UNL1        0.0290
     57 H          -0.7823    2.8158    0.6895 H       1  UNL1        0.0655
     58 H          -2.5796    4.3638    0.9205 H       1  UNL1        0.0620
     59 H          -2.0995    6.7606    1.4237 H       1  UNL1        0.0647
     60 H          -1.3655    1.0755   -1.3593 H       1  UNL1        0.0624
     61 H          -3.8155    1.5224   -1.4949 H       1  UNL1        0.0625
     62 H          -6.3738   -1.7606   -1.3247 H       1  UNL1        0.1493
     63 H          -8.3342    0.5613   -0.8314 H       1  UNL1        0.0498
     64 H         -10.0591   -1.1861   -0.3978 H       1  UNL1        0.0284
     65 H          -8.7904   -2.5388   -0.4774 H       1  UNL1        0.0284
     66 H          -8.3012   -1.9076   -2.8573 H       1  UNL1        0.0284
     67 H          -9.5519   -0.5488   -2.7827 H       1  UNL1        0.0284
@<TRIPOS>BOND
     1     1     2    1
     2     2     3   ar
     3     3     4   ar
     4     4     5    1
     5     5     6   ar
     6     6     7   ar
     7     7     8   ar
     8     8     9   ar
     9     9    10    1
    10    10    11    1
    11    11    12    1
    12    12    13    1
    13    13    14    1
    14    14    15    1
    15    15    16    1
    16    16    17    1
    17     9    18   ar
    18    18    19   ar
    19    19    20    1
    20    20    21    1
    21    21    22   ar
    22    22    23   ar
    23    23    24   ar
    24    24    25   ar
    25    25    26    1
    26    25    27   ar
    27    27    28    1
    28    19    29   ar
    29    29    30   ar
    30     4    31   ar
    31    31    32   ar
    32    32    33   ar
    33    33    34    1
    34    34    35    2
    35    34    36   am
    36    36    37    1
    37    37    38    1
    38    38    39    1
    39    33     2   ar
    40    39    37    1
    41    30     5   ar
    42    30     8   ar
    43    17    12    1
    44    27    21   ar
    45     1    40    1
    46     1    41    1
    47     1    42    1
    48     3    43    1
    49     6    44    1
    50    10    45    1
    51    11    46    1
    52    11    47    1
    53    12    48    1
    54    13    49    1
    55    13    50    1
    56    14    51    1
    57    14    52    1
    58    16    53    1
    59    16    54    1
    60    17    55    1
    61    17    56    1
    62    22    57    1
    63    23    58    1
    64    24    59    1
    65    31    60    1
    66    32    61    1
    67    36    62    1
    68    37    63    1
    69    38    64    1
    70    38    65    1
    71    39    66    1
    72    39    67    1
