
     RDKit          3D

 67 72  0  0  0  0  0  0  0  0999 V2000
   -4.8759   -2.1965    0.9824 C   0  0  0  0  0  0  0  0  0  0  0  0
   -3.9103   -1.2796    0.3253 C   0  0  0  0  0  0  0  0  0  0  0  0
   -2.5482   -1.5120    0.3900 C   0  0  0  0  0  0  0  0  0  0  0  0
   -1.6107   -0.6842   -0.2053 C   0  0  0  0  0  0  0  0  0  0  0  0
   -0.1749   -0.9184   -0.1406 C   0  0  0  0  0  0  0  0  0  0  0  0
    0.5085   -2.0922   -0.3346 C   0  0  0  0  0  0  0  0  0  0  0  0
    1.8427   -1.8788   -0.1881 N   0  0  0  0  0  0  0  0  0  0  0  0
    2.0003   -0.5987    0.0925 N   0  0  0  0  0  0  0  0  0  0  0  0
    3.1417    0.0900    0.3239 C   0  0  0  0  0  0  0  0  0  0  0  0
    4.3726   -0.6158    0.2690 N   0  0  0  0  0  0  0  0  0  0  0  0
    5.1029   -0.6391   -0.9712 C   0  0  0  0  0  0  0  0  0  0  0  0
    6.3812   -1.4405   -0.8598 C   0  0  0  0  0  0  0  0  0  0  0  0
    6.0895   -2.8737   -0.4830 C   0  0  0  0  0  0  0  0  0  0  0  0
    7.3863   -3.5919   -0.2699 C   0  0  0  0  0  0  0  0  0  0  0  0
    8.1874   -3.0342    0.7070 O   0  0  0  0  0  0  0  0  0  0  0  0
    7.6427   -1.8828    1.2616 C   0  0  0  0  0  0  0  0  0  0  0  0
    7.2753   -0.8657    0.2146 C   0  0  0  0  0  0  0  0  0  0  0  0
    3.0547    1.3831    0.5893 N   0  0  0  0  0  0  0  0  0  0  0  0
    1.8519    2.0586    0.6402 C   0  0  0  0  0  0  0  0  0  0  0  0
    1.8712    3.3911    0.9221 O   0  0  0  0  0  0  0  0  0  0  0  0
    0.8050    4.2251    1.0414 C   0  0  0  0  0  0  0  0  0  0  0  0
   -0.5017    3.8499    0.9089 C   0  0  0  0  0  0  0  0  0  0  0  0
   -1.5783    4.7442    1.0413 C   0  0  0  0  0  0  0  0  0  0  0  0
   -1.2963    6.0622    1.3176 C   0  0  0  0  0  0  0  0  0  0  0  0
    0.0255    6.4683    1.4565 C   0  0  0  0  0  0  0  0  0  0  0  0
    0.2527    7.7547    1.7242 F   0  0  0  0  0  0  0  0  0  0  0  0
    1.0390    5.5905    1.3249 C   0  0  0  0  0  0  0  0  0  0  0  0
    2.3301    5.9644    1.4554 F   0  0  0  0  0  0  0  0  0  0  0  0
    0.7813    1.3074    0.4005 N   0  0  0  0  0  0  0  0  0  0  0  0
    0.8003    0.0155    0.1300 C   0  0  0  0  0  0  0  0  0  0  0  0
   -2.1079    0.4147   -0.8860 C   0  0  0  0  0  0  0  0  0  0  0  0
   -3.4602    0.6679   -0.9649 C   0  0  0  0  0  0  0  0  0  0  0  0
   -4.3674   -0.1770   -0.3603 C   0  0  0  0  0  0  0  0  0  0  0  0
   -5.7683    0.1418   -0.4731 C   0  0  0  0  0  0  0  0  0  0  0  0
   -6.2038    1.2587   -0.1093 O   0  0  0  0  0  0  0  0  0  0  0  0
   -6.6702   -0.7986   -0.9950 N   0  0  0  0  0  0  0  0  0  0  0  0
   -8.0808   -0.4728   -1.1060 C   0  0  0  0  0  0  0  0  0  0  0  0
   -9.0860   -1.5352   -0.8016 C   0  0  0  0  0  0  0  0  0  0  0  0
   -8.8235   -1.1583   -2.2239 C   0  0  0  0  0  0  0  0  0  0  0  0
   -5.2018   -3.0197    0.3231 H   0  0  0  0  0  0  0  0  0  0  0  0
   -5.7121   -1.5695    1.3485 H   0  0  0  0  0  0  0  0  0  0  0  0
   -4.3787   -2.5995    1.9119 H   0  0  0  0  0  0  0  0  0  0  0  0
   -2.1512   -2.3666    0.9179 H   0  0  0  0  0  0  0  0  0  0  0  0
    0.1029   -3.0612   -0.5679 H   0  0  0  0  0  0  0  0  0  0  0  0
    4.7244   -1.1001    1.1154 H   0  0  0  0  0  0  0  0  0  0  0  0
    4.4584   -1.0430   -1.7572 H   0  0  0  0  0  0  0  0  0  0  0  0
    5.3861    0.3996   -1.2339 H   0  0  0  0  0  0  0  0  0  0  0  0
    6.8802   -1.4307   -1.8266 H   0  0  0  0  0  0  0  0  0  0  0  0
    5.4089   -2.8998    0.3691 H   0  0  0  0  0  0  0  0  0  0  0  0
    5.6096   -3.3383   -1.3767 H   0  0  0  0  0  0  0  0  0  0  0  0
    7.1661   -4.6458    0.0243 H   0  0  0  0  0  0  0  0  0  0  0  0
    7.9352   -3.6286   -1.2217 H   0  0  0  0  0  0  0  0  0  0  0  0
    8.4289   -1.4241    1.9061 H   0  0  0  0  0  0  0  0  0  0  0  0
    6.7745   -2.1003    1.9254 H   0  0  0  0  0  0  0  0  0  0  0  0
    6.7491   -0.0336    0.7250 H   0  0  0  0  0  0  0  0  0  0  0  0
    8.1941   -0.4383   -0.2368 H   0  0  0  0  0  0  0  0  0  0  0  0
   -0.7823    2.8158    0.6895 H   0  0  0  0  0  0  0  0  0  0  0  0
   -2.5796    4.3638    0.9205 H   0  0  0  0  0  0  0  0  0  0  0  0
   -2.0995    6.7606    1.4237 H   0  0  0  0  0  0  0  0  0  0  0  0
   -1.3655    1.0755   -1.3593 H   0  0  0  0  0  0  0  0  0  0  0  0
   -3.8155    1.5224   -1.4949 H   0  0  0  0  0  0  0  0  0  0  0  0
   -6.3738   -1.7606   -1.3247 H   0  0  0  0  0  0  0  0  0  0  0  0
   -8.3342    0.5613   -0.8314 H   0  0  0  0  0  0  0  0  0  0  0  0
  -10.0591   -1.1861   -0.3978 H   0  0  0  0  0  0  0  0  0  0  0  0
   -8.7904   -2.5388   -0.4774 H   0  0  0  0  0  0  0  0  0  0  0  0
   -8.3012   -1.9076   -2.8573 H   0  0  0  0  0  0  0  0  0  0  0  0
   -9.5519   -0.5488   -2.7827 H   0  0  0  0  0  0  0  0  0  0  0  0
  1  2  1  0
  2  3  2  0
  3  4  1  0
  4  5  1  0
  5  6  1  0
  6  7  2  0
  7  8  1  0
  8  9  1  0
  9 10  1  0
 10 11  1  0
 11 12  1  0
 12 13  1  0
 13 14  1  0
 14 15  1  0
 15 16  1  0
 16 17  1  0
  9 18  2  0
 18 19  1  0
 19 20  1  0
 20 21  1  0
 21 22  2  0
 22 23  1  0
 23 24  2  0
 24 25  1  0
 25 26  1  0
 25 27  2  0
 27 28  1  0
 19 29  2  0
 29 30  1  0
  4 31  2  0
 31 32  1  0
 32 33  2  0
 33 34  1  0
 34 35  2  0
 34 36  1  0
 36 37  1  0
 37 38  1  0
 38 39  1  0
 33  2  1  0
 39 37  1  0
 30  5  2  0
 30  8  1  0
 17 12  1  0
 27 21  1  0
  1 40  1  0
  1 41  1  0
  1 42  1  0
  3 43  1  0
  6 44  1  0
 10 45  1  0
 11 46  1  0
 11 47  1  0
 12 48  1  0
 13 49  1  0
 13 50  1  0
 14 51  1  0
 14 52  1  0
 16 53  1  0
 16 54  1  0
 17 55  1  0
 17 56  1  0
 22 57  1  0
 23 58  1  0
 24 59  1  0
 31 60  1  0
 32 61  1  0
 36 62  1  0
 37 63  1  0
 38 64  1  0
 38 65  1  0
 39 66  1  0
 39 67  1  0
M  END
$$$$
