
     RDKit          3D

116124  0  0  0  0  0  0  0  0999 V2000
   -7.1509    3.6106   -1.9338 C   0  0  0  0  0  0  0  0  0  0  0  0
   -6.5541    2.3427   -2.5111 C   0  0  0  0  0  0  0  0  0  0  0  0
   -6.4240    1.3472   -1.3477 C   0  0  2  0  0  0  0  0  0  0  0  0
   -7.7399    1.1854   -0.8954 O   0  0  0  0  0  0  0  0  0  0  0  0
   -5.5473    2.0621   -0.3310 C   0  0  0  0  0  0  0  0  0  0  0  0
   -4.4814    0.9990    0.0007 C   0  0  2  0  0  0  0  0  0  0  0  0
   -5.3236   -0.2232    0.2855 C   0  0  0  0  0  0  0  0  0  0  0  0
   -5.3845   -0.8798   -0.9737 N   0  0  0  0  0  0  0  0  0  0  0  0
   -5.8318    0.1091   -1.9328 C   0  0  0  0  0  0  0  0  0  0  0  0
   -4.3255   -1.6801   -1.3548 C   0  0  0  0  0  0  0  0  0  0  0  0
   -2.9452   -1.5000   -0.8522 C   0  0  0  0  0  0  0  0  0  0  0  0
   -2.7182   -1.6409    0.5857 C   0  0  0  0  0  0  0  0  0  0  0  0
   -2.4459   -0.7264    1.5743 C   0  0  0  0  0  0  0  0  0  0  0  0
   -2.3221   -1.4338    2.7433 N   0  0  0  0  0  0  0  0  0  0  0  0
   -2.4945   -2.7336    2.5827 C   0  0  0  0  0  0  0  0  0  0  0  0
   -2.4596   -3.7928    3.4653 C   0  0  0  0  0  0  0  0  0  0  0  0
   -2.6784   -5.0794    3.0273 C   0  0  0  0  0  0  0  0  0  0  0  0
   -2.9319   -5.2838    1.6930 C   0  0  0  0  0  0  0  0  0  0  0  0
   -2.9578   -4.2062    0.8508 C   0  0  0  0  0  0  0  0  0  0  0  0
   -2.7393   -2.8811    1.2616 C   0  0  0  0  0  0  0  0  0  0  0  0
   -2.3335    0.7597    1.3460 C   0  0  1  0  0  0  0  0  0  0  0  0
   -3.6121    1.3984    1.1156 C   0  0  0  0  0  0  0  0  0  0  0  0
   -1.9845    1.3814    2.7205 C   0  0  0  0  0  0  0  0  0  0  0  0
   -2.4550    2.2233    3.5516 O   0  0  0  0  0  0  0  0  0  0  0  0
   -0.8548    1.0494    3.4242 O   0  0  0  0  0  0  0  0  0  0  0  0
   -0.6367    1.6810    4.6713 C   0  0  0  0  0  0  0  0  0  0  0  0
   -1.1204    1.0334    0.6233 C   0  0  0  0  0  0  0  0  0  0  0  0
   -0.7674    2.3340    0.2583 C   0  0  0  0  0  0  0  0  0  0  0  0
   -1.5818    3.3757    0.5616 O   0  0  0  0  0  0  0  0  0  0  0  0
   -1.2159    4.6860    0.1884 C   0  0  0  0  0  0  0  0  0  0  0  0
    0.4190    2.5903   -0.4196 C   0  0  0  0  0  0  0  0  0  0  0  0
    1.3180    1.6113   -0.7765 C   0  0  0  0  0  0  0  0  0  0  0  0
    2.5681    1.4952   -1.4399 N   0  0  0  0  0  0  0  0  0  0  0  0
    3.4036    2.6225   -1.5684 C   0  0  0  0  0  0  0  0  0  0  0  0
    4.2905    3.4596   -1.7991 O   0  0  0  0  0  0  0  0  0  0  0  0
    2.7715    0.1454   -1.8980 C   0  0  2  0  0  0  0  0  0  0  0  0
    2.0544   -0.6671   -0.8687 C   0  0  1  0  0  0  0  0  0  0  0  0
    1.4278   -1.9095   -1.4263 C   0  0  0  0  0  0  0  0  0  0  0  0
    1.7132   -3.0037   -0.3966 C   0  0  0  0  0  0  0  0  0  0  0  0
    2.9725   -2.5317    0.1377 N   0  0  0  0  0  0  0  0  0  0  0  0
    3.3143   -3.1136    1.4143 C   0  0  0  0  0  0  0  0  0  0  0  0
    4.7515   -2.7273    1.6595 C   0  0  0  0  0  0  0  0  0  0  0  0
    5.0108   -1.4920    1.2135 C   0  0  0  0  0  0  0  0  0  0  0  0
    4.1442   -0.4788    0.5414 C   0  0  2  0  0  0  0  0  0  0  0  0
    4.0988    0.6804    1.5391 C   0  0  0  0  0  0  0  0  0  0  0  0
    3.5268    0.2872    2.8626 C   0  0  0  0  0  0  0  0  0  0  0  0
    2.8247   -1.0976    0.3108 C   0  0  1  0  0  0  0  0  0  0  0  0
    4.8640   -0.0089   -0.6745 C   0  0  1  0  0  0  0  0  0  0  0  0
    6.1992   -0.5577   -0.7322 O   0  0  0  0  0  0  0  0  0  0  0  0
    7.3116    0.2571   -0.7299 C   0  0  0  0  0  0  0  0  0  0  0  0
    8.6954   -0.2513   -0.7870 C   0  0  0  0  0  0  0  0  0  0  0  0
    7.1619    1.5224   -0.6759 O   0  0  0  0  0  0  0  0  0  0  0  0
    4.1819   -0.3170   -1.9628 C   0  0  1  0  0  0  0  0  0  0  0  0
    4.2026   -1.6957   -2.1960 O   0  0  0  0  0  0  0  0  0  0  0  0
    4.9773    0.2837   -3.0697 C   0  0  0  0  0  0  0  0  0  0  0  0
    5.4656    1.2863   -3.6550 O   0  0  0  0  0  0  0  0  0  0  0  0
    5.5795   -0.4388   -4.0826 O   0  0  0  0  0  0  0  0  0  0  0  0
    6.3312    0.1436   -5.1260 C   0  0  0  0  0  0  0  0  0  0  0  0
    0.9967    0.3185   -0.4293 C   0  0  0  0  0  0  0  0  0  0  0  0
   -0.1947    0.0718    0.2500 C   0  0  0  0  0  0  0  0  0  0  0  0
   -8.1958    3.7746   -2.3244 H   0  0  0  0  0  0  0  0  0  0  0  0
   -6.5151    4.5043   -2.1011 H   0  0  0  0  0  0  0  0  0  0  0  0
   -7.2918    3.5537   -0.8239 H   0  0  0  0  0  0  0  0  0  0  0  0
   -7.2549    1.9305   -3.2713 H   0  0  0  0  0  0  0  0  0  0  0  0
   -5.5641    2.6186   -2.9065 H   0  0  0  0  0  0  0  0  0  0  0  0
   -7.8935    1.7440   -0.0953 H   0  0  0  0  0  0  0  0  0  0  0  0
   -5.0472    2.9501   -0.7132 H   0  0  0  0  0  0  0  0  0  0  0  0
   -6.0965    2.2709    0.6090 H   0  0  0  0  0  0  0  0  0  0  0  0
   -3.9404    1.0002   -0.9435 H   0  0  0  0  0  0  0  0  0  0  0  0
   -6.3704    0.0084    0.5807 H   0  0  0  0  0  0  0  0  0  0  0  0
   -4.9644   -0.8292    1.1337 H   0  0  0  0  0  0  0  0  0  0  0  0
   -5.0718    0.3559   -2.7078 H   0  0  0  0  0  0  0  0  0  0  0  0
   -6.6667   -0.3848   -2.4785 H   0  0  0  0  0  0  0  0  0  0  0  0
   -4.2598   -1.6719   -2.4773 H   0  0  0  0  0  0  0  0  0  0  0  0
   -4.6103   -2.7553   -1.1406 H   0  0  0  0  0  0  0  0  0  0  0  0
   -2.4060   -2.3696   -1.3687 H   0  0  0  0  0  0  0  0  0  0  0  0
   -2.3733   -0.6833   -1.3467 H   0  0  0  0  0  0  0  0  0  0  0  0
   -2.1101   -1.0273    3.7083 H   0  0  0  0  0  0  0  0  0  0  0  0
   -2.2617   -3.6405    4.5129 H   0  0  0  0  0  0  0  0  0  0  0  0
   -2.6429   -5.8832    3.7480 H   0  0  0  0  0  0  0  0  0  0  0  0
   -3.1086   -6.2784    1.3096 H   0  0  0  0  0  0  0  0  0  0  0  0
   -3.1602   -4.4115   -0.1899 H   0  0  0  0  0  0  0  0  0  0  0  0
   -3.5654    2.4955    1.2679 H   0  0  0  0  0  0  0  0  0  0  0  0
   -4.2342    1.1059    2.0381 H   0  0  0  0  0  0  0  0  0  0  0  0
   -1.4871    1.5057    5.3673 H   0  0  0  0  0  0  0  0  0  0  0  0
   -0.5154    2.7646    4.5900 H   0  0  0  0  0  0  0  0  0  0  0  0
    0.2901    1.2496    5.0835 H   0  0  0  0  0  0  0  0  0  0  0  0
   -1.9873    5.4358    0.4323 H   0  0  0  0  0  0  0  0  0  0  0  0
   -1.1171    4.7074   -0.9298 H   0  0  0  0  0  0  0  0  0  0  0  0
   -0.2207    4.9408    0.6001 H   0  0  0  0  0  0  0  0  0  0  0  0
    0.6985    3.6014   -0.7061 H   0  0  0  0  0  0  0  0  0  0  0  0
    3.2503    3.6119   -1.2301 H   0  0  0  0  0  0  0  0  0  0  0  0
    2.2411   -0.0461   -2.8663 H   0  0  0  0  0  0  0  0  0  0  0  0
    1.8141   -2.2157   -2.4165 H   0  0  0  0  0  0  0  0  0  0  0  0
    0.3306   -1.7706   -1.4375 H   0  0  0  0  0  0  0  0  0  0  0  0
    1.8868   -3.9832   -0.8747 H   0  0  0  0  0  0  0  0  0  0  0  0
    0.9421   -3.0364    0.3894 H   0  0  0  0  0  0  0  0  0  0  0  0
    2.7213   -2.5955    2.2003 H   0  0  0  0  0  0  0  0  0  0  0  0
    3.2174   -4.2005    1.4043 H   0  0  0  0  0  0  0  0  0  0  0  0
    5.5682   -3.2664    2.1183 H   0  0  0  0  0  0  0  0  0  0  0  0
    6.0359   -1.1015    1.3412 H   0  0  0  0  0  0  0  0  0  0  0  0
    5.1703    0.9728    1.7429 H   0  0  0  0  0  0  0  0  0  0  0  0
    3.6193    1.5768    1.1511 H   0  0  0  0  0  0  0  0  0  0  0  0
    2.4110    0.3514    2.8506 H   0  0  0  0  0  0  0  0  0  0  0  0
    3.9063   -0.6598    3.2420 H   0  0  0  0  0  0  0  0  0  0  0  0
    3.8475    1.0750    3.5982 H   0  0  0  0  0  0  0  0  0  0  0  0
    2.2099   -0.9386    1.2274 H   0  0  0  0  0  0  0  0  0  0  0  0
    5.0456    1.0957   -0.6359 H   0  0  0  0  0  0  0  0  0  0  0  0
    8.6449   -1.3522   -0.7108 H   0  0  0  0  0  0  0  0  0  0  0  0
    9.1960    0.0402   -1.7296 H   0  0  0  0  0  0  0  0  0  0  0  0
    9.1989    0.1061    0.1298 H   0  0  0  0  0  0  0  0  0  0  0  0
    5.0336   -2.0984   -1.8383 H   0  0  0  0  0  0  0  0  0  0  0  0
    6.7437   -0.6708   -5.7889 H   0  0  0  0  0  0  0  0  0  0  0  0
    7.2278    0.6450   -4.7003 H   0  0  0  0  0  0  0  0  0  0  0  0
    5.7148    0.8318   -5.7400 H   0  0  0  0  0  0  0  0  0  0  0  0
   -0.3974   -0.9563    0.5028 H   0  0  0  0  0  0  0  0  0  0  0  0
  1  2  1  0
  2  3  1  0
  3  4  1  1
  3  5  1  0
  5  6  1  0
  6  7  1  0
  7  8  1  0
  8  9  1  0
  8 10  1  0
 10 11  1  0
 11 12  1  0
 12 13  2  0
 13 14  1  0
 14 15  1  0
 15 16  2  0
 16 17  1  0
 17 18  2  0
 18 19  1  0
 19 20  2  0
 13 21  1  0
 21 22  1  0
 21 23  1  1
 23 24  2  0
 23 25  1  0
 25 26  1  0
 21 27  1  0
 27 28  2  0
 28 29  1  0
 29 30  1  0
 28 31  1  0
 31 32  2  0
 32 33  1  0
 33 34  1  0
 34 35  2  0
 33 36  1  0
 36 37  1  0
 37 38  1  6
 38 39  1  0
 39 40  1  0
 40 41  1  0
 41 42  1  0
 42 43  2  0
 43 44  1  0
 44 45  1  1
 45 46  1  0
 44 47  1  0
 44 48  1  0
 48 49  1  0
 49 50  1  0
 50 51  1  0
 50 52  2  0
 48 53  1  0
 53 54  1  6
 53 55  1  0
 55 56  2  0
 55 57  1  0
 57 58  1  0
 37 59  1  0
 59 60  2  0
  9  3  1  0
 20 12  1  0
 60 27  1  0
 22  6  1  0
 59 32  1  0
 20 15  1  0
 53 36  1  0
 47 37  1  0
 47 40  1  0
  1 61  1  0
  1 62  1  0
  1 63  1  0
  2 64  1  0
  2 65  1  0
  4 66  1  0
  5 67  1  0
  5 68  1  0
  6 69  1  6
  7 70  1  0
  7 71  1  0
  9 72  1  0
  9 73  1  0
 10 74  1  0
 10 75  1  0
 11 76  1  0
 11 77  1  0
 14 78  1  0
 16 79  1  0
 17 80  1  0
 18 81  1  0
 19 82  1  0
 22 83  1  0
 22 84  1  0
 26 85  1  0
 26 86  1  0
 26 87  1  0
 30 88  1  0
 30 89  1  0
 30 90  1  0
 31 91  1  0
 34 92  1  0
 36 93  1  6
 38 94  1  0
 38 95  1  0
 39 96  1  0
 39 97  1  0
 41 98  1  0
 41 99  1  0
 42100  1  0
 43101  1  0
 45102  1  0
 45103  1  0
 46104  1  0
 46105  1  0
 46106  1  0
 47107  1  1
 48108  1  1
 51109  1  0
 51110  1  0
 51111  1  0
 54112  1  0
 58113  1  0
 58114  1  0
 58115  1  0
 60116  1  0
M  END
$$$$
