@<TRIPOS>MOLECULE
*****
 78 82 0 0 0
SMALL
GASTEIGER

@<TRIPOS>ATOM
      1 C          -3.5387    6.9656    1.8899 C.2     1  UNL1       -0.1026
      2 C          -3.4472    6.7629    0.5898 C.2     1  UNL1       -0.0896
      3 C          -4.5668    6.1221   -0.1308 C.3     1  UNL1       -0.0194
      4 C          -4.0509    4.8533   -0.7711 C.3     1  UNL1        0.0152
      5 N          -3.5515    3.9824    0.2624 N.pl3   1  UNL1       -0.3130
      6 C          -3.0042    2.7218   -0.0632 C.ar    1  UNL1        0.2211
      7 N          -3.7847    1.6128   -0.1106 N.ar    1  UNL1       -0.1810
      8 C          -3.2887    0.4010   -0.4172 C.ar    1  UNL1        0.2214
      9 N          -4.1261   -0.7762   -0.4626 N.pl3   1  UNL1       -0.3077
     10 C          -4.2711   -1.4574    0.8133 C.3     1  UNL1        0.0547
     11 C          -5.1516   -2.6876    0.5740 C.ar    1  UNL1        0.0662
     12 C          -6.5316   -2.5639    0.6787 C.ar    1  UNL1        0.0005
     13 S          -7.0823   -4.2342    0.3251 S.2     1  UNL1       -0.0748
     14 C          -5.3595   -4.8802    0.0817 C.ar    1  UNL1        0.1151
     15 C          -5.1625   -6.2747   -0.2480 C.ar    1  UNL1        0.0443
     16 C          -6.0494   -7.3218   -0.4472 C.ar    1  UNL1       -0.0449
     17 C          -5.5690   -8.5199   -0.7411 C.ar    1  UNL1       -0.0541
     18 C          -4.2413   -8.7441   -0.8506 C.ar    1  UNL1       -0.0237
     19 S          -3.5639   -7.0788   -0.5015 S.2     1  UNL1       -0.0946
     20 N          -4.7188   -3.8731    0.2776 N.ar    1  UNL1       -0.2419
     21 N          -1.9732    0.3166   -0.6809 N.ar    1  UNL1       -0.1809
     22 C          -1.1336    1.3867   -0.6519 C.ar    1  UNL1        0.2239
     23 N           0.2322    1.2405   -0.9401 N.pl3   1  UNL1       -0.2952
     24 C           0.8944    0.0381   -1.3527 C.3     1  UNL1        0.0153
     25 C           1.8465    0.5249   -2.4231 C.3     1  UNL1       -0.0354
     26 C           1.9613    2.0124   -2.2044 C.3     1  UNL1       -0.0316
     27 C           1.2325    2.2718   -0.8750 C.3     1  UNL1        0.0403
     28 C           2.1935    2.0350    0.2750 C.3     1  UNL1        0.0361
     29 N           3.1561    3.1119    0.2626 N.3     1  UNL1       -0.1882
     30 S           4.2411    2.8264    1.5719 S.O2    1  UNL1        0.0585
     31 O           5.2009    3.9728    1.7137 O.2     1  UNL1       -0.1530
     32 O           3.4408    2.7658    2.8414 O.2     1  UNL1       -0.1530
     33 C           5.0904    1.3042    1.3630 C.ar    1  UNL1        0.1053
     34 C           6.2859    1.2566    0.6597 C.ar    1  UNL1       -0.0351
     35 C           6.9639    0.0652    0.4867 C.ar    1  UNL1       -0.0567
     36 C           6.4869   -1.1304    1.0028 C.ar    1  UNL1       -0.0473
     37 C           7.2276   -2.4088    0.8079 C.3     1  UNL1       -0.0279
     38 C           6.7844   -3.1178   -0.4647 C.3     1  UNL1       -0.0519
     39 C           5.2957   -3.4223   -0.3646 C.3     1  UNL1       -0.0650
     40 C           5.2988   -1.0770    1.7005 C.ar    1  UNL1       -0.0567
     41 C           4.6233    0.1125    1.8724 C.ar    1  UNL1       -0.0351
     42 N          -1.7107    2.5620   -0.3360 N.ar    1  UNL1       -0.1809
     43 H          -2.7519    7.4309    2.4768 H       1  UNL1        0.0532
     44 H          -4.4226    6.6699    2.4411 H       1  UNL1        0.0532
     45 H          -2.5286    7.0839    0.0960 H       1  UNL1        0.0567
     46 H          -5.3261    5.8046    0.6076 H       1  UNL1        0.0322
     47 H          -5.0023    6.7909   -0.9061 H       1  UNL1        0.0322
     48 H          -3.1833    5.0944   -1.4300 H       1  UNL1        0.0465
     49 H          -4.8440    4.3000   -1.3164 H       1  UNL1        0.0465
     50 H          -3.5997    4.2936    1.2506 H       1  UNL1        0.1489
     51 H          -4.5769   -1.0998   -1.3229 H       1  UNL1        0.1493
     52 H          -3.2681   -1.7773    1.1345 H       1  UNL1        0.0527
     53 H          -4.7213   -0.8336    1.5981 H       1  UNL1        0.0527
     54 H          -7.1691   -1.6921    0.9146 H       1  UNL1        0.0712
     55 H          -7.1426   -7.0995   -0.3483 H       1  UNL1        0.0630
     56 H          -6.2553   -9.4174   -0.9153 H       1  UNL1        0.0623
     57 H          -3.6428   -9.5781   -1.0662 H       1  UNL1        0.0693
     58 H           0.1896   -0.7230   -1.7543 H       1  UNL1        0.0465
     59 H           1.5357   -0.3891   -0.5446 H       1  UNL1        0.0465
     60 H           1.3630    0.2848   -3.4051 H       1  UNL1        0.0281
     61 H           2.8341    0.0201   -2.3573 H       1  UNL1        0.0281
     62 H           2.9913    2.3816   -2.1796 H       1  UNL1        0.0284
     63 H           1.3597    2.5549   -2.9697 H       1  UNL1        0.0284
     64 H           0.8436    3.2893   -0.8417 H       1  UNL1        0.0514
     65 H           2.7627    1.1029    0.0896 H       1  UNL1        0.0460
     66 H           1.6310    2.0142    1.2172 H       1  UNL1        0.0460
     67 H           2.7331    4.0423    0.2821 H       1  UNL1        0.1481
     68 H           6.6505    2.1850    0.2625 H       1  UNL1        0.0637
     69 H           7.8961    0.0163   -0.0597 H       1  UNL1        0.0621
     70 H           8.3131   -2.2473    0.8323 H       1  UNL1        0.0313
     71 H           7.0087   -3.1272    1.6429 H       1  UNL1        0.0313
     72 H           7.3237   -4.0967   -0.4822 H       1  UNL1        0.0266
     73 H           7.0370   -2.5714   -1.3717 H       1  UNL1        0.0266
     74 H           4.7513   -2.4692   -0.2762 H       1  UNL1        0.0230
     75 H           4.9644   -3.9169   -1.3067 H       1  UNL1        0.0230
     76 H           5.0916   -4.1252    0.4479 H       1  UNL1        0.0230
     77 H           4.8957   -1.9932    2.1178 H       1  UNL1        0.0621
     78 H           3.6800    0.1402    2.4295 H       1  UNL1        0.0637
@<TRIPOS>BOND
     1     1     2    2
     2     2     3    1
     3     3     4    1
     4     4     5    1
     5     5     6    1
     6     6     7   ar
     7     7     8   ar
     8     8     9    1
     9     9    10    1
    10    10    11    1
    11    11    12   ar
    12    12    13   ar
    13    13    14   ar
    14    14    15    1
    15    15    16   ar
    16    16    17   ar
    17    17    18   ar
    18    18    19   ar
    19    14    20   ar
    20     8    21   ar
    21    21    22   ar
    22    22    23    1
    23    23    24    1
    24    24    25    1
    25    25    26    1
    26    26    27    1
    27    27    28    1
    28    28    29    1
    29    29    30    1
    30    30    31    2
    31    30    32    2
    32    30    33    1
    33    33    34   ar
    34    34    35   ar
    35    35    36   ar
    36    36    37    1
    37    37    38    1
    38    38    39    1
    39    36    40   ar
    40    40    41   ar
    41    22    42   ar
    42    42     6   ar
    43    20    11   ar
    44    27    23    1
    45    41    33   ar
    46    19    15   ar
    47     1    43    1
    48     1    44    1
    49     2    45    1
    50     3    46    1
    51     3    47    1
    52     4    48    1
    53     4    49    1
    54     5    50    1
    55     9    51    1
    56    10    52    1
    57    10    53    1
    58    12    54    1
    59    16    55    1
    60    17    56    1
    61    18    57    1
    62    24    58    1
    63    24    59    1
    64    25    60    1
    65    25    61    1
    66    26    62    1
    67    26    63    1
    68    27    64    1
    69    28    65    1
    70    28    66    1
    71    29    67    1
    72    34    68    1
    73    35    69    1
    74    37    70    1
    75    37    71    1
    76    38    72    1
    77    38    73    1
    78    39    74    1
    79    39    75    1
    80    39    76    1
    81    40    77    1
    82    41    78    1
