
     RDKit          3D

 78 82  0  0  0  0  0  0  0  0999 V2000
   -3.5387    6.9656    1.8899 C   0  0  0  0  0  0  0  0  0  0  0  0
   -3.4472    6.7629    0.5898 C   0  0  0  0  0  0  0  0  0  0  0  0
   -4.5668    6.1221   -0.1308 C   0  0  0  0  0  0  0  0  0  0  0  0
   -4.0509    4.8533   -0.7711 C   0  0  0  0  0  0  0  0  0  0  0  0
   -3.5515    3.9824    0.2624 N   0  0  0  0  0  0  0  0  0  0  0  0
   -3.0042    2.7218   -0.0632 C   0  0  0  0  0  0  0  0  0  0  0  0
   -3.7847    1.6128   -0.1106 N   0  0  0  0  0  0  0  0  0  0  0  0
   -3.2887    0.4010   -0.4172 C   0  0  0  0  0  0  0  0  0  0  0  0
   -4.1261   -0.7762   -0.4626 N   0  0  0  0  0  0  0  0  0  0  0  0
   -4.2711   -1.4574    0.8133 C   0  0  0  0  0  0  0  0  0  0  0  0
   -5.1516   -2.6876    0.5740 C   0  0  0  0  0  0  0  0  0  0  0  0
   -6.5316   -2.5639    0.6787 C   0  0  0  0  0  0  0  0  0  0  0  0
   -7.0823   -4.2342    0.3251 S   0  0  0  0  0  0  0  0  0  0  0  0
   -5.3595   -4.8802    0.0817 C   0  0  0  0  0  0  0  0  0  0  0  0
   -5.1625   -6.2747   -0.2480 C   0  0  0  0  0  0  0  0  0  0  0  0
   -6.0494   -7.3218   -0.4472 C   0  0  0  0  0  0  0  0  0  0  0  0
   -5.5690   -8.5199   -0.7411 C   0  0  0  0  0  0  0  0  0  0  0  0
   -4.2413   -8.7441   -0.8506 C   0  0  0  0  0  0  0  0  0  0  0  0
   -3.5639   -7.0788   -0.5015 S   0  0  0  0  0  0  0  0  0  0  0  0
   -4.7188   -3.8731    0.2776 N   0  0  0  0  0  0  0  0  0  0  0  0
   -1.9732    0.3166   -0.6809 N   0  0  0  0  0  0  0  0  0  0  0  0
   -1.1336    1.3867   -0.6519 C   0  0  0  0  0  0  0  0  0  0  0  0
    0.2322    1.2405   -0.9401 N   0  0  0  0  0  0  0  0  0  0  0  0
    0.8944    0.0381   -1.3527 C   0  0  0  0  0  0  0  0  0  0  0  0
    1.8465    0.5249   -2.4231 C   0  0  0  0  0  0  0  0  0  0  0  0
    1.9613    2.0124   -2.2044 C   0  0  0  0  0  0  0  0  0  0  0  0
    1.2325    2.2718   -0.8750 C   0  0  2  0  0  0  0  0  0  0  0  0
    2.1935    2.0350    0.2750 C   0  0  0  0  0  0  0  0  0  0  0  0
    3.1561    3.1119    0.2626 N   0  0  0  0  0  0  0  0  0  0  0  0
    4.2411    2.8264    1.5719 S   0  0  0  0  0  6  0  0  0  0  0  0
    5.2009    3.9728    1.7137 O   0  0  0  0  0  0  0  0  0  0  0  0
    3.4408    2.7658    2.8414 O   0  0  0  0  0  0  0  0  0  0  0  0
    5.0904    1.3042    1.3630 C   0  0  0  0  0  0  0  0  0  0  0  0
    6.2859    1.2566    0.6597 C   0  0  0  0  0  0  0  0  0  0  0  0
    6.9639    0.0652    0.4867 C   0  0  0  0  0  0  0  0  0  0  0  0
    6.4869   -1.1304    1.0028 C   0  0  0  0  0  0  0  0  0  0  0  0
    7.2276   -2.4088    0.8079 C   0  0  0  0  0  0  0  0  0  0  0  0
    6.7844   -3.1178   -0.4647 C   0  0  0  0  0  0  0  0  0  0  0  0
    5.2957   -3.4223   -0.3646 C   0  0  0  0  0  0  0  0  0  0  0  0
    5.2988   -1.0770    1.7005 C   0  0  0  0  0  0  0  0  0  0  0  0
    4.6233    0.1125    1.8724 C   0  0  0  0  0  0  0  0  0  0  0  0
   -1.7107    2.5620   -0.3360 N   0  0  0  0  0  0  0  0  0  0  0  0
   -2.7519    7.4309    2.4768 H   0  0  0  0  0  0  0  0  0  0  0  0
   -4.4226    6.6699    2.4411 H   0  0  0  0  0  0  0  0  0  0  0  0
   -2.5286    7.0839    0.0960 H   0  0  0  0  0  0  0  0  0  0  0  0
   -5.3261    5.8046    0.6076 H   0  0  0  0  0  0  0  0  0  0  0  0
   -5.0023    6.7909   -0.9061 H   0  0  0  0  0  0  0  0  0  0  0  0
   -3.1833    5.0944   -1.4300 H   0  0  0  0  0  0  0  0  0  0  0  0
   -4.8440    4.3000   -1.3164 H   0  0  0  0  0  0  0  0  0  0  0  0
   -3.5997    4.2936    1.2506 H   0  0  0  0  0  0  0  0  0  0  0  0
   -4.5769   -1.0998   -1.3229 H   0  0  0  0  0  0  0  0  0  0  0  0
   -3.2681   -1.7773    1.1345 H   0  0  0  0  0  0  0  0  0  0  0  0
   -4.7213   -0.8336    1.5981 H   0  0  0  0  0  0  0  0  0  0  0  0
   -7.1691   -1.6921    0.9146 H   0  0  0  0  0  0  0  0  0  0  0  0
   -7.1426   -7.0995   -0.3483 H   0  0  0  0  0  0  0  0  0  0  0  0
   -6.2553   -9.4174   -0.9153 H   0  0  0  0  0  0  0  0  0  0  0  0
   -3.6428   -9.5781   -1.0662 H   0  0  0  0  0  0  0  0  0  0  0  0
    0.1896   -0.7230   -1.7543 H   0  0  0  0  0  0  0  0  0  0  0  0
    1.5357   -0.3891   -0.5446 H   0  0  0  0  0  0  0  0  0  0  0  0
    1.3630    0.2848   -3.4051 H   0  0  0  0  0  0  0  0  0  0  0  0
    2.8341    0.0201   -2.3573 H   0  0  0  0  0  0  0  0  0  0  0  0
    2.9913    2.3816   -2.1796 H   0  0  0  0  0  0  0  0  0  0  0  0
    1.3597    2.5549   -2.9697 H   0  0  0  0  0  0  0  0  0  0  0  0
    0.8436    3.2893   -0.8417 H   0  0  0  0  0  0  0  0  0  0  0  0
    2.7627    1.1029    0.0896 H   0  0  0  0  0  0  0  0  0  0  0  0
    1.6310    2.0142    1.2172 H   0  0  0  0  0  0  0  0  0  0  0  0
    2.7331    4.0423    0.2821 H   0  0  0  0  0  0  0  0  0  0  0  0
    6.6505    2.1850    0.2625 H   0  0  0  0  0  0  0  0  0  0  0  0
    7.8961    0.0163   -0.0597 H   0  0  0  0  0  0  0  0  0  0  0  0
    8.3131   -2.2473    0.8323 H   0  0  0  0  0  0  0  0  0  0  0  0
    7.0087   -3.1272    1.6429 H   0  0  0  0  0  0  0  0  0  0  0  0
    7.3237   -4.0967   -0.4822 H   0  0  0  0  0  0  0  0  0  0  0  0
    7.0370   -2.5714   -1.3717 H   0  0  0  0  0  0  0  0  0  0  0  0
    4.7513   -2.4692   -0.2762 H   0  0  0  0  0  0  0  0  0  0  0  0
    4.9644   -3.9169   -1.3067 H   0  0  0  0  0  0  0  0  0  0  0  0
    5.0916   -4.1252    0.4479 H   0  0  0  0  0  0  0  0  0  0  0  0
    4.8957   -1.9932    2.1178 H   0  0  0  0  0  0  0  0  0  0  0  0
    3.6800    0.1402    2.4295 H   0  0  0  0  0  0  0  0  0  0  0  0
  1  2  2  3
  2  3  1  0
  3  4  1  0
  4  5  1  0
  5  6  1  0
  6  7  2  0
  7  8  1  0
  8  9  1  0
  9 10  1  0
 10 11  1  0
 11 12  2  0
 12 13  1  0
 13 14  1  0
 14 15  1  0
 15 16  2  0
 16 17  1  0
 17 18  2  0
 18 19  1  0
 14 20  2  0
  8 21  2  0
 21 22  1  0
 22 23  1  0
 23 24  1  0
 24 25  1  0
 25 26  1  0
 26 27  1  0
 27 28  1  0
 28 29  1  0
 29 30  1  0
 30 31  2  0
 30 32  2  0
 30 33  1  0
 33 34  2  0
 34 35  1  0
 35 36  2  0
 36 37  1  0
 37 38  1  0
 38 39  1  0
 36 40  1  0
 40 41  2  0
 22 42  2  0
 42  6  1  0
 20 11  1  0
 27 23  1  0
 41 33  1  0
 19 15  1  0
  1 43  1  0
  1 44  1  0
  2 45  1  0
  3 46  1  0
  3 47  1  0
  4 48  1  0
  4 49  1  0
  5 50  1  0
  9 51  1  0
 10 52  1  0
 10 53  1  0
 12 54  1  0
 16 55  1  0
 17 56  1  0
 18 57  1  0
 24 58  1  0
 24 59  1  0
 25 60  1  0
 25 61  1  0
 26 62  1  0
 26 63  1  0
 27 64  1  6
 28 65  1  0
 28 66  1  0
 29 67  1  0
 34 68  1  0
 35 69  1  0
 37 70  1  0
 37 71  1  0
 38 72  1  0
 38 73  1  0
 39 74  1  0
 39 75  1  0
 39 76  1  0
 40 77  1  0
 41 78  1  0
M  END
$$$$
