
     RDKit          3D

 61 64  0  0  0  0  0  0  0  0999 V2000
   -1.5264   -5.5852    0.5893 C   0  0  0  0  0  0  0  0  0  0  0  0
   -2.2316   -5.4429   -0.6400 O   0  0  0  0  0  0  0  0  0  0  0  0
   -2.6461   -4.1934   -1.0806 C   0  0  0  0  0  0  0  0  0  0  0  0
   -3.3218   -4.1181   -2.2760 C   0  0  0  0  0  0  0  0  0  0  0  0
   -3.7361   -2.8819   -2.7190 C   0  0  0  0  0  0  0  0  0  0  0  0
   -3.4701   -1.7321   -1.9623 C   0  0  0  0  0  0  0  0  0  0  0  0
   -2.7966   -1.8025   -0.7699 C   0  0  0  0  0  0  0  0  0  0  0  0
   -2.5134   -0.6159    0.0381 C   0  0  0  0  0  0  0  0  0  0  0  0
   -1.2788    0.0366   -0.3134 N   0  0  0  0  0  0  0  0  0  0  0  0
   -1.2692    1.0596   -1.3228 C   0  0  0  0  0  0  0  0  0  0  0  0
   -1.3681    2.4230   -0.7409 C   0  0  0  0  0  0  0  0  0  0  0  0
   -2.5816    2.6316   -0.0104 N   0  0  0  0  0  0  0  0  0  0  0  0
   -2.4797    3.9044    0.7382 C   0  0  0  0  0  0  0  0  0  0  0  0
   -3.3361    4.9822    0.1609 C   0  0  0  0  0  0  0  0  0  0  0  0
   -3.0508    5.0835   -1.2010 O   0  0  0  0  0  0  0  0  0  0  0  0
   -3.5335    3.9579   -1.8620 C   0  0  0  0  0  0  0  0  0  0  0  0
   -3.6869    2.7739   -0.9662 C   0  0  0  0  0  0  0  0  0  0  0  0
   -0.0209   -0.3296    0.2928 C   0  0  0  0  0  0  0  0  0  0  0  0
   -0.0119   -1.2565    1.1403 O   0  0  0  0  0  0  0  0  0  0  0  0
    1.1858    0.3011   -0.0198 N   0  0  0  0  0  0  0  0  0  0  0  0
    2.4717    0.0232    0.5080 C   0  0  0  0  0  0  0  0  0  0  0  0
    3.5622    0.7614    0.0239 C   0  0  0  0  0  0  0  0  0  0  0  0
    4.8468    0.5597    0.4696 C   0  0  0  0  0  0  0  0  0  0  0  0
    5.1388   -0.3851    1.4238 C   0  0  0  0  0  0  0  0  0  0  0  0
    6.4997   -0.6220    1.8907 C   0  0  0  0  0  0  0  0  0  0  0  0
    7.0722   -1.7900    2.3443 C   0  0  0  0  0  0  0  0  0  0  0  0
    8.3594   -1.5446    2.6548 N   0  0  0  0  0  0  0  0  0  0  0  0
    8.6308   -0.2628    2.4160 N   0  0  0  0  0  0  0  0  0  0  0  0
    7.5016    0.3143    1.9482 C   0  0  0  0  0  0  0  0  0  0  0  0
    4.0838   -1.1151    1.9084 C   0  0  0  0  0  0  0  0  0  0  0  0
    2.7692   -0.9155    1.4586 C   0  0  0  0  0  0  0  0  0  0  0  0
   -2.3939   -3.0420   -0.3474 C   0  0  0  0  0  0  0  0  0  0  0  0
   -1.3764   -6.6426    0.8402 H   0  0  0  0  0  0  0  0  0  0  0  0
   -2.1122   -5.0745    1.3768 H   0  0  0  0  0  0  0  0  0  0  0  0
   -0.5299   -5.1042    0.4346 H   0  0  0  0  0  0  0  0  0  0  0  0
   -3.5270   -5.0268   -2.8653 H   0  0  0  0  0  0  0  0  0  0  0  0
   -4.2662   -2.8318   -3.6591 H   0  0  0  0  0  0  0  0  0  0  0  0
   -3.8269   -0.7827   -2.3748 H   0  0  0  0  0  0  0  0  0  0  0  0
   -3.3418    0.1149   -0.0046 H   0  0  0  0  0  0  0  0  0  0  0  0
   -2.4232   -0.8659    1.1347 H   0  0  0  0  0  0  0  0  0  0  0  0
   -2.1112    0.8501   -2.0481 H   0  0  0  0  0  0  0  0  0  0  0  0
   -0.3668    0.9557   -1.9722 H   0  0  0  0  0  0  0  0  0  0  0  0
   -0.5361    2.6406   -0.0090 H   0  0  0  0  0  0  0  0  0  0  0  0
   -1.2639    3.2053   -1.5338 H   0  0  0  0  0  0  0  0  0  0  0  0
   -1.4092    4.2630    0.6906 H   0  0  0  0  0  0  0  0  0  0  0  0
   -2.6706    3.6813    1.7847 H   0  0  0  0  0  0  0  0  0  0  0  0
   -3.0252    5.9570    0.6186 H   0  0  0  0  0  0  0  0  0  0  0  0
   -4.4085    4.8155    0.3244 H   0  0  0  0  0  0  0  0  0  0  0  0
   -2.9185    3.7662   -2.7598 H   0  0  0  0  0  0  0  0  0  0  0  0
   -4.5643    4.2246   -2.2258 H   0  0  0  0  0  0  0  0  0  0  0  0
   -3.7181    1.8613   -1.5711 H   0  0  0  0  0  0  0  0  0  0  0  0
   -4.6397    2.8083   -0.3890 H   0  0  0  0  0  0  0  0  0  0  0  0
    1.1172    1.0898   -0.7383 H   0  0  0  0  0  0  0  0  0  0  0  0
    3.3524    1.5180   -0.7328 H   0  0  0  0  0  0  0  0  0  0  0  0
    5.6776    1.1394    0.0846 H   0  0  0  0  0  0  0  0  0  0  0  0
    6.5611   -2.7499    2.4348 H   0  0  0  0  0  0  0  0  0  0  0  0
    9.5657    0.1843    2.5741 H   0  0  0  0  0  0  0  0  0  0  0  0
    7.4630    1.3741    1.6759 H   0  0  0  0  0  0  0  0  0  0  0  0
    4.2894   -1.8770    2.6728 H   0  0  0  0  0  0  0  0  0  0  0  0
    2.0066   -1.5162    1.8795 H   0  0  0  0  0  0  0  0  0  0  0  0
   -1.8662   -3.1552    0.5830 H   0  0  0  0  0  0  0  0  0  0  0  0
  1  2  1  0
  2  3  1  0
  3  4  2  0
  4  5  1  0
  5  6  2  0
  6  7  1  0
  7  8  1  0
  8  9  1  0
  9 10  1  0
 10 11  1  0
 11 12  1  0
 12 13  1  0
 13 14  1  0
 14 15  1  0
 15 16  1  0
 16 17  1  0
  9 18  1  0
 18 19  2  0
 18 20  1  0
 20 21  1  0
 21 22  2  0
 22 23  1  0
 23 24  2  0
 24 25  1  0
 25 26  1  0
 26 27  2  0
 27 28  1  0
 28 29  1  0
 24 30  1  0
 30 31  2  0
  7 32  2  0
 32  3  1  0
 17 12  1  0
 31 21  1  0
 29 25  2  0
  1 33  1  0
  1 34  1  0
  1 35  1  0
  4 36  1  0
  5 37  1  0
  6 38  1  0
  8 39  1  0
  8 40  1  0
 10 41  1  0
 10 42  1  0
 11 43  1  0
 11 44  1  0
 13 45  1  0
 13 46  1  0
 14 47  1  0
 14 48  1  0
 16 49  1  0
 16 50  1  0
 17 51  1  0
 17 52  1  0
 20 53  1  0
 22 54  1  0
 23 55  1  0
 26 56  1  0
 28 57  1  0
 29 58  1  0
 30 59  1  0
 31 60  1  0
 32 61  1  0
M  END
$$$$
