@<TRIPOS>MOLECULE
*****
 61 64 0 0 0
SMALL
GASTEIGER

@<TRIPOS>ATOM
      1 C          -1.5264   -5.5852    0.5893 C.3     1  UNL1        0.0788
      2 O          -2.2316   -5.4429   -0.6400 O.3     1  UNL1       -0.4951
      3 C          -2.6461   -4.1934   -1.0806 C.ar    1  UNL1        0.1204
      4 C          -3.3218   -4.1181   -2.2760 C.ar    1  UNL1       -0.0199
      5 C          -3.7361   -2.8819   -2.7190 C.ar    1  UNL1       -0.0580
      6 C          -3.4701   -1.7321   -1.9623 C.ar    1  UNL1       -0.0568
      7 C          -2.7966   -1.8025   -0.7699 C.ar    1  UNL1       -0.0266
      8 C          -2.5134   -0.6159    0.0381 C.3     1  UNL1        0.0413
      9 N          -1.2788    0.0366   -0.3134 N.am    1  UNL1       -0.2798
     10 C          -1.2692    1.0596   -1.3228 C.3     1  UNL1        0.0293
     11 C          -1.3681    2.4230   -0.7409 C.3     1  UNL1        0.0149
     12 N          -2.5816    2.6316   -0.0104 N.3     1  UNL1       -0.2965
     13 C          -2.4797    3.9044    0.7382 C.3     1  UNL1        0.0225
     14 C          -3.3361    4.9822    0.1609 C.3     1  UNL1        0.0604
     15 O          -3.0508    5.0835   -1.2010 O.3     1  UNL1       -0.3772
     16 C          -3.5335    3.9579   -1.8620 C.3     1  UNL1        0.0604
     17 C          -3.6869    2.7739   -0.9662 C.3     1  UNL1        0.0225
     18 C          -0.0209   -0.3296    0.2928 C.2     1  UNL1        0.3068
     19 O          -0.0119   -1.2565    1.1403 O.2     1  UNL1       -0.2523
     20 N           1.1858    0.3011   -0.0198 N.am    1  UNL1       -0.2693
     21 C           2.4717    0.0232    0.5080 C.ar    1  UNL1        0.0348
     22 C           3.5622    0.7614    0.0239 C.ar    1  UNL1       -0.0399
     23 C           4.8468    0.5597    0.4696 C.ar    1  UNL1       -0.0522
     24 C           5.1388   -0.3851    1.4238 C.ar    1  UNL1       -0.0148
     25 C           6.4997   -0.6220    1.8907 C.ar    1  UNL1        0.0193
     26 C           7.0722   -1.7900    2.3443 C.ar    1  UNL1        0.0568
     27 N           8.3594   -1.5446    2.6548 N.ar    1  UNL1       -0.1817
     28 N           8.6308   -0.2628    2.4160 N.ar    1  UNL1       -0.2841
     29 C           7.5016    0.3143    1.9482 C.ar    1  UNL1        0.0300
     30 C           4.0838   -1.1151    1.9084 C.ar    1  UNL1       -0.0522
     31 C           2.7692   -0.9155    1.4586 C.ar    1  UNL1       -0.0399
     32 C          -2.3939   -3.0420   -0.3474 C.ar    1  UNL1       -0.0153
     33 H          -1.3764   -6.6426    0.8402 H       1  UNL1        0.0660
     34 H          -2.1122   -5.0745    1.3768 H       1  UNL1        0.0660
     35 H          -0.5299   -5.1042    0.4346 H       1  UNL1        0.0660
     36 H          -3.5270   -5.0268   -2.8653 H       1  UNL1        0.0654
     37 H          -4.2662   -2.8318   -3.6591 H       1  UNL1        0.0619
     38 H          -3.8269   -0.7827   -2.3748 H       1  UNL1        0.0621
     39 H          -3.3418    0.1149   -0.0046 H       1  UNL1        0.0514
     40 H          -2.4232   -0.8659    1.1347 H       1  UNL1        0.0514
     41 H          -2.1112    0.8501   -2.0481 H       1  UNL1        0.0478
     42 H          -0.3668    0.9557   -1.9722 H       1  UNL1        0.0478
     43 H          -0.5361    2.6406   -0.0090 H       1  UNL1        0.0442
     44 H          -1.2639    3.2053   -1.5338 H       1  UNL1        0.0442
     45 H          -1.4092    4.2630    0.6906 H       1  UNL1        0.0449
     46 H          -2.6706    3.6813    1.7847 H       1  UNL1        0.0449
     47 H          -3.0252    5.9570    0.6186 H       1  UNL1        0.0572
     48 H          -4.4085    4.8155    0.3244 H       1  UNL1        0.0572
     49 H          -2.9185    3.7662   -2.7598 H       1  UNL1        0.0572
     50 H          -4.5643    4.2246   -2.2258 H       1  UNL1        0.0572
     51 H          -3.7181    1.8613   -1.5711 H       1  UNL1        0.0449
     52 H          -4.6397    2.8083   -0.3890 H       1  UNL1        0.0449
     53 H           1.1172    1.0898   -0.7383 H       1  UNL1        0.1564
     54 H           3.3524    1.5180   -0.7328 H       1  UNL1        0.0636
     55 H           5.6776    1.1394    0.0846 H       1  UNL1        0.0624
     56 H           6.5611   -2.7499    2.4348 H       1  UNL1        0.0854
     57 H           9.5657    0.1843    2.5741 H       1  UNL1        0.1882
     58 H           7.4630    1.3741    1.6759 H       1  UNL1        0.0830
     59 H           4.2894   -1.8770    2.6728 H       1  UNL1        0.0624
     60 H           2.0066   -1.5162    1.8795 H       1  UNL1        0.0636
     61 H          -1.8662   -3.1552    0.5830 H       1  UNL1        0.0657
@<TRIPOS>BOND
     1     1     2    1
     2     2     3    1
     3     3     4   ar
     4     4     5   ar
     5     5     6   ar
     6     6     7   ar
     7     7     8    1
     8     8     9    1
     9     9    10    1
    10    10    11    1
    11    11    12    1
    12    12    13    1
    13    13    14    1
    14    14    15    1
    15    15    16    1
    16    16    17    1
    17     9    18   am
    18    18    19    2
    19    18    20   am
    20    20    21    1
    21    21    22   ar
    22    22    23   ar
    23    23    24   ar
    24    24    25    1
    25    25    26   ar
    26    26    27   ar
    27    27    28   ar
    28    28    29   ar
    29    24    30   ar
    30    30    31   ar
    31     7    32   ar
    32    32     3   ar
    33    17    12    1
    34    31    21   ar
    35    29    25   ar
    36     1    33    1
    37     1    34    1
    38     1    35    1
    39     4    36    1
    40     5    37    1
    41     6    38    1
    42     8    39    1
    43     8    40    1
    44    10    41    1
    45    10    42    1
    46    11    43    1
    47    11    44    1
    48    13    45    1
    49    13    46    1
    50    14    47    1
    51    14    48    1
    52    16    49    1
    53    16    50    1
    54    17    51    1
    55    17    52    1
    56    20    53    1
    57    22    54    1
    58    23    55    1
    59    26    56    1
    60    28    57    1
    61    29    58    1
    62    30    59    1
    63    31    60    1
    64    32    61    1
