@<TRIPOS>MOLECULE
*****
 40 41 0 0 0
SMALL
GASTEIGER

@<TRIPOS>ATOM
      1 C          -1.8814   -2.7510    0.9311 C.3     1  UNL1       -0.0544
      2 C          -1.0728   -2.3903   -0.2718 C.3     1  UNL1        0.0301
      3 C          -1.6213   -3.2942   -1.4113 C.3     1  UNL1       -0.0544
      4 C          -1.0889   -1.0010   -0.6722 C.2     1  UNL1        0.2187
      5 O          -1.7535   -0.8008   -1.7919 O.2     1  UNL1       -0.2753
      6 N          -0.5340    0.1704   -0.1077 N.am    1  UNL1       -0.2926
      7 C           0.2659    0.3045    1.0510 C.3     1  UNL1        0.0415
      8 C           1.7138    0.0774    0.9902 C.ar    1  UNL1       -0.0104
      9 C           2.6397    0.9103    0.4273 C.ar    1  UNL1       -0.0556
     10 C           4.0032    0.6104    0.3022 C.ar    1  UNL1       -0.0600
     11 C           4.4713   -0.5834    0.7621 C.ar    1  UNL1       -0.0420
     12 C           3.5812   -1.4610    1.3406 C.ar    1  UNL1        0.0596
     13 CL          4.1669   -3.0188    1.9523 Cl      1  UNL1       -0.0820
     14 C           2.2464   -1.1345    1.4504 C.ar    1  UNL1        0.0639
     15 CL          1.1984   -2.2250    2.3271 Cl      1  UNL1       -0.0817
     16 C          -1.0140    1.3792   -0.7633 C.3     1  UNL1        0.0400
     17 C          -1.8895    2.2241    0.2103 C.3     1  UNL1       -0.0205
     18 C          -2.2252    3.3312   -0.8066 C.3     1  UNL1       -0.0023
     19 N          -1.0226    3.5488   -1.5629 N.3     1  UNL1       -0.3142
     20 C          -0.0861    2.4468   -1.1604 C.3     1  UNL1        0.0146
     21 H          -1.7212   -2.0702    1.7595 H       1  UNL1        0.0237
     22 H          -2.9865   -2.7039    0.6939 H       1  UNL1        0.0237
     23 H          -1.6807   -3.8272    1.2172 H       1  UNL1        0.0237
     24 H          -0.0174   -2.7387   -0.1680 H       1  UNL1        0.0389
     25 H          -0.7802   -3.5516   -2.1023 H       1  UNL1        0.0237
     26 H          -2.4406   -2.7955   -1.9486 H       1  UNL1        0.0237
     27 H          -2.0222   -4.2140   -0.9453 H       1  UNL1        0.0237
     28 H           0.1592    1.3578    1.4481 H       1  UNL1        0.0514
     29 H          -0.2037   -0.3105    1.8573 H       1  UNL1        0.0514
     30 H           2.3484    1.8722    0.0589 H       1  UNL1        0.0621
     31 H           4.6926    1.3205   -0.1560 H       1  UNL1        0.0618
     32 H           5.5411   -0.8553    0.6756 H       1  UNL1        0.0633
     33 H          -1.7153    1.1556   -1.6056 H       1  UNL1        0.0513
     34 H          -2.7530    1.6810    0.5625 H       1  UNL1        0.0296
     35 H          -1.2483    2.6900    0.9549 H       1  UNL1        0.0296
     36 H          -2.9690    2.8534   -1.4818 H       1  UNL1        0.0425
     37 H          -2.6278    4.2341   -0.3137 H       1  UNL1        0.0425
     38 H          -0.6513    4.4760   -1.2833 H       1  UNL1        0.1220
     39 H           0.4225    2.9254   -0.2797 H       1  UNL1        0.0442
     40 H           0.5558    2.1581   -1.9783 H       1  UNL1        0.0442
@<TRIPOS>BOND
     1     1     2    1
     2     2     3    1
     3     2     4    1
     4     4     5    2
     5     4     6   am
     6     6     7    1
     7     7     8    1
     8     8     9   ar
     9     9    10   ar
    10    10    11   ar
    11    11    12   ar
    12    12    13    1
    13    12    14   ar
    14    14    15    1
    15     6    16    1
    16    16    17    1
    17    17    18    1
    18    18    19    1
    19    19    20    1
    20    14     8   ar
    21    20    16    1
    22     1    21    1
    23     1    22    1
    24     1    23    1
    25     2    24    1
    26     3    25    1
    27     3    26    1
    28     3    27    1
    29     7    28    1
    30     7    29    1
    31     9    30    1
    32    10    31    1
    33    11    32    1
    34    16    33    1
    35    17    34    1
    36    17    35    1
    37    18    36    1
    38    18    37    1
    39    19    38    1
    40    20    39    1
    41    20    40    1
