
     RDKit          3D

 40 42  0  0  0  0  0  0  0  0999 V2000
    2.8583    0.7251    0.9182 C   0  0  1  0  0  0  0  0  0  0  0  0
    3.6202   -0.4463    1.5498 C   0  0  0  0  0  0  0  0  0  0  0  0
    3.8105    1.2371   -0.1627 C   0  0  0  0  0  0  0  0  0  0  0  0
    3.6869    0.1431   -1.1614 C   0  0  0  0  0  0  0  0  0  0  0  0
    4.4990   -0.3598   -2.1495 C   0  0  0  0  0  0  0  0  0  0  0  0
    4.1349   -1.4183   -2.9713 C   0  0  0  0  0  0  0  0  0  0  0  0
    2.9000   -1.9936   -2.7888 C   0  0  0  0  0  0  0  0  0  0  0  0
    2.0606   -1.5058   -1.7989 C   0  0  0  0  0  0  0  0  0  0  0  0
    2.4474   -0.4360   -0.9796 C   0  0  0  0  0  0  0  0  0  0  0  0
    1.7705    0.2402    0.0992 N   0  0  0  0  0  0  0  0  0  0  0  0
    0.3865    0.3365    0.2177 N   0  0  0  0  0  0  0  0  0  0  0  0
   -0.3119    0.9901    1.2655 C   0  0  0  0  0  0  0  0  0  0  0  0
    0.3467    1.5312    2.1683 O   0  0  0  0  0  0  0  0  0  0  0  0
   -1.7646    1.0754    1.3633 C   0  0  0  0  0  0  0  0  0  0  0  0
   -2.3030    1.7431    2.4389 C   0  0  0  0  0  0  0  0  0  0  0  0
   -3.6870    1.8688    2.6047 C   0  0  0  0  0  0  0  0  0  0  0  0
   -4.5626    1.3240    1.6895 C   0  0  0  0  0  0  0  0  0  0  0  0
   -6.2870    1.5075    1.9401 Cl  0  0  0  0  0  0  0  0  0  0  0  0
   -4.0257    0.6542    0.6105 C   0  0  0  0  0  0  0  0  0  0  0  0
   -2.6597    0.5399    0.4628 C   0  0  0  0  0  0  0  0  0  0  0  0
   -5.1382   -0.0358   -0.5487 S   0  0  0  0  0  0  0  0  0  0  0  0
   -6.1452    1.1592   -1.2716 N   0  0  0  0  0  0  0  0  0  0  0  0
   -5.9743   -1.0681    0.1884 O   0  0  0  0  0  0  0  0  0  0  0  0
   -4.3275   -0.7643   -1.5809 O   0  0  0  0  0  0  0  0  0  0  0  0
    2.6052    1.4878    1.6440 H   0  0  0  0  0  0  0  0  0  0  0  0
    3.2271   -0.6850    2.5495 H   0  0  0  0  0  0  0  0  0  0  0  0
    3.5478   -1.2768    0.8332 H   0  0  0  0  0  0  0  0  0  0  0  0
    4.6992   -0.2077    1.6614 H   0  0  0  0  0  0  0  0  0  0  0  0
    4.8385    1.3438    0.2337 H   0  0  0  0  0  0  0  0  0  0  0  0
    3.3773    2.1774   -0.5202 H   0  0  0  0  0  0  0  0  0  0  0  0
    5.4738    0.0835   -2.3041 H   0  0  0  0  0  0  0  0  0  0  0  0
    4.7560   -1.8297   -3.7535 H   0  0  0  0  0  0  0  0  0  0  0  0
    2.5795   -2.8196   -3.4081 H   0  0  0  0  0  0  0  0  0  0  0  0
    1.0875   -1.9731   -1.6694 H   0  0  0  0  0  0  0  0  0  0  0  0
   -0.2329   -0.0939   -0.5023 H   0  0  0  0  0  0  0  0  0  0  0  0
   -1.7201    2.2104    3.2192 H   0  0  0  0  0  0  0  0  0  0  0  0
   -4.1060    2.3991    3.4593 H   0  0  0  0  0  0  0  0  0  0  0  0
   -2.2589    0.0109   -0.3901 H   0  0  0  0  0  0  0  0  0  0  0  0
   -6.1182    1.1571   -2.3070 H   0  0  0  0  0  0  0  0  0  0  0  0
   -7.0908    1.2195   -0.8493 H   0  0  0  0  0  0  0  0  0  0  0  0
  1  2  1  0
  1  3  1  0
  3  4  1  0
  4  5  2  0
  5  6  1  0
  6  7  2  0
  7  8  1  0
  8  9  2  0
  9 10  1  0
 10 11  1  0
 11 12  1  0
 12 13  2  0
 12 14  1  0
 14 15  2  0
 15 16  1  0
 16 17  2  0
 17 18  1  0
 17 19  1  0
 19 20  2  0
 19 21  1  0
 21 22  1  0
 21 23  2  0
 21 24  2  0
 10  1  1  0
 20 14  1  0
  9  4  1  0
  1 25  1  1
  2 26  1  0
  2 27  1  0
  2 28  1  0
  3 29  1  0
  3 30  1  0
  5 31  1  0
  6 32  1  0
  7 33  1  0
  8 34  1  0
 11 35  1  0
 15 36  1  0
 16 37  1  0
 20 38  1  0
 22 39  1  0
 22 40  1  0
M  END
$$$$
