
     RDKit          3D

 38 40  0  0  0  0  0  0  0  0999 V2000
   -5.7666    0.7987   -1.5768 C   0  0  0  0  0  0  0  0  0  0  0  0
   -4.4975    0.6626   -2.2052 O   0  0  0  0  0  0  0  0  0  0  0  0
   -3.5031   -0.0127   -1.4936 C   0  0  0  0  0  0  0  0  0  0  0  0
   -3.7240   -0.5334   -0.2312 C   0  0  0  0  0  0  0  0  0  0  0  0
   -2.7354   -1.2010    0.4684 C   0  0  0  0  0  0  0  0  0  0  0  0
   -1.4812   -1.3645   -0.0912 C   0  0  0  0  0  0  0  0  0  0  0  0
   -0.4769   -2.0933    0.7242 C   0  0  0  0  0  0  0  0  0  0  0  0
    0.2182   -1.1324    1.5445 N   0  0  0  0  0  0  0  0  0  0  0  0
   -0.1944   -0.7738    2.7735 C   0  0  0  0  0  0  0  0  0  0  0  0
    0.7013    0.1550    3.2506 C   0  0  0  0  0  0  0  0  0  0  0  0
    1.6508    0.3310    2.2671 C   0  0  0  0  0  0  0  0  0  0  0  0
    2.7712    1.1267    2.1913 C   0  0  0  0  0  0  0  0  0  0  0  0
    3.5667    1.1000    1.0484 C   0  0  0  0  0  0  0  0  0  0  0  0
    3.2777    0.2984   -0.0297 C   0  0  0  0  0  0  0  0  0  0  0  0
    4.0942    0.2565   -1.2294 C   0  0  0  0  0  0  0  0  0  0  0  0
    3.7925   -0.4967   -2.2011 O   0  0  0  0  0  0  0  0  0  0  0  0
    5.2640    1.0406   -1.3945 N   0  0  0  0  0  0  0  0  0  0  0  0
    6.0096    0.9836   -2.5245 O   0  0  0  0  0  0  0  0  0  0  0  0
    2.1460   -0.4974    0.0614 C   0  0  0  0  0  0  0  0  0  0  0  0
    1.3421   -0.4852    1.1889 C   0  0  0  0  0  0  0  0  0  0  0  0
   -1.2381   -0.8542   -1.3476 C   0  0  0  0  0  0  0  0  0  0  0  0
   -2.2410   -0.1848   -2.0406 C   0  0  0  0  0  0  0  0  0  0  0  0
   -6.4915    1.3215   -2.1983 H   0  0  0  0  0  0  0  0  0  0  0  0
   -5.5931    1.2801   -0.5911 H   0  0  0  0  0  0  0  0  0  0  0  0
   -6.2031   -0.2171   -1.3674 H   0  0  0  0  0  0  0  0  0  0  0  0
   -4.7272   -0.3920    0.1940 H   0  0  0  0  0  0  0  0  0  0  0  0
   -2.9710   -1.5919    1.4665 H   0  0  0  0  0  0  0  0  0  0  0  0
    0.2422   -2.6142    0.0535 H   0  0  0  0  0  0  0  0  0  0  0  0
   -1.0026   -2.8734    1.3159 H   0  0  0  0  0  0  0  0  0  0  0  0
   -1.0550   -1.1122    3.3356 H   0  0  0  0  0  0  0  0  0  0  0  0
    0.7162    0.6742    4.1865 H   0  0  0  0  0  0  0  0  0  0  0  0
    3.0700    1.7948    3.0102 H   0  0  0  0  0  0  0  0  0  0  0  0
    4.4462    1.7341    1.0061 H   0  0  0  0  0  0  0  0  0  0  0  0
    5.5963    1.6916   -0.6530 H   0  0  0  0  0  0  0  0  0  0  0  0
    5.3876    0.9383   -3.3043 H   0  0  0  0  0  0  0  0  0  0  0  0
    1.9097   -1.1374   -0.7887 H   0  0  0  0  0  0  0  0  0  0  0  0
   -0.2589   -0.9822   -1.7853 H   0  0  0  0  0  0  0  0  0  0  0  0
   -2.0420    0.2159   -3.0330 H   0  0  0  0  0  0  0  0  0  0  0  0
  1  2  1  0
  2  3  1  0
  3  4  2  0
  4  5  1  0
  5  6  2  0
  6  7  1  0
  7  8  1  0
  8  9  1  0
  9 10  2  0
 10 11  1  0
 11 12  2  0
 12 13  1  0
 13 14  2  0
 14 15  1  0
 15 16  2  0
 15 17  1  0
 17 18  1  0
 14 19  1  0
 19 20  2  0
  6 21  1  0
 21 22  2  0
 22  3  1  0
 20  8  1  0
 20 11  1  0
  1 23  1  0
  1 24  1  0
  1 25  1  0
  4 26  1  0
  5 27  1  0
  7 28  1  0
  7 29  1  0
  9 30  1  0
 10 31  1  0
 12 32  1  0
 13 33  1  0
 17 34  1  0
 18 35  1  0
 19 36  1  0
 21 37  1  0
 22 38  1  0
M  END
$$$$
