@<TRIPOS>MOLECULE
*****
 38 40 0 0 0
SMALL
GASTEIGER

@<TRIPOS>ATOM
      1 C          -5.7666    0.7987   -1.5768 C.3     1  UNL1        0.0788
      2 O          -4.4975    0.6626   -2.2052 O.3     1  UNL1       -0.4951
      3 C          -3.5031   -0.0127   -1.4936 C.ar    1  UNL1        0.1201
      4 C          -3.7240   -0.5334   -0.2312 C.ar    1  UNL1       -0.0196
      5 C          -2.7354   -1.2010    0.4684 C.ar    1  UNL1       -0.0534
      6 C          -1.4812   -1.3645   -0.0912 C.ar    1  UNL1       -0.0275
      7 C          -0.4769   -2.0933    0.7242 C.3     1  UNL1        0.0483
      8 N           0.2182   -1.1324    1.5445 N.ar    1  UNL1       -0.3423
      9 C          -0.1944   -0.7738    2.7735 C.ar    1  UNL1        0.0061
     10 C           0.7013    0.1550    3.2506 C.ar    1  UNL1       -0.0364
     11 C           1.6508    0.3310    2.2671 C.ar    1  UNL1       -0.0001
     12 C           2.7712    1.1267    2.1913 C.ar    1  UNL1       -0.0519
     13 C           3.5667    1.1000    1.0484 C.ar    1  UNL1       -0.0489
     14 C           3.2777    0.2984   -0.0297 C.ar    1  UNL1        0.0407
     15 C           4.0942    0.2565   -1.2294 C.2     1  UNL1        0.2666
     16 O           3.7925   -0.4967   -2.2011 O.2     1  UNL1       -0.2681
     17 N           5.2640    1.0406   -1.3945 N.am    1  UNL1       -0.1935
     18 O           6.0096    0.9836   -2.5245 O.3     1  UNL1       -0.2949
     19 C           2.1460   -0.4974    0.0614 C.ar    1  UNL1       -0.0254
     20 C           1.3421   -0.4852    1.1889 C.ar    1  UNL1        0.0501
     21 C          -1.2381   -0.8542   -1.3476 C.ar    1  UNL1       -0.0534
     22 C          -2.2410   -0.1848   -2.0406 C.ar    1  UNL1       -0.0196
     23 H          -6.4915    1.3215   -2.1983 H       1  UNL1        0.0660
     24 H          -5.5931    1.2801   -0.5911 H       1  UNL1        0.0660
     25 H          -6.2031   -0.2171   -1.3674 H       1  UNL1        0.0660
     26 H          -4.7272   -0.3920    0.1940 H       1  UNL1        0.0654
     27 H          -2.9710   -1.5919    1.4665 H       1  UNL1        0.0622
     28 H           0.2422   -2.6142    0.0535 H       1  UNL1        0.0541
     29 H          -1.0026   -2.8734    1.3159 H       1  UNL1        0.0541
     30 H          -1.0550   -1.1122    3.3356 H       1  UNL1        0.0809
     31 H           0.7162    0.6742    4.1865 H       1  UNL1        0.0639
     32 H           3.0700    1.7948    3.0102 H       1  UNL1        0.0624
     33 H           4.4462    1.7341    1.0061 H       1  UNL1        0.0625
     34 H           5.5963    1.6916   -0.6530 H       1  UNL1        0.1825
     35 H           5.3876    0.9383   -3.3043 H       1  UNL1        0.2414
     36 H           1.9097   -1.1374   -0.7887 H       1  UNL1        0.0646
     37 H          -0.2589   -0.9822   -1.7853 H       1  UNL1        0.0622
     38 H          -2.0420    0.2159   -3.0330 H       1  UNL1        0.0654
@<TRIPOS>BOND
     1     1     2    1
     2     2     3    1
     3     3     4   ar
     4     4     5   ar
     5     5     6   ar
     6     6     7    1
     7     7     8    1
     8     8     9   ar
     9     9    10   ar
    10    10    11   ar
    11    11    12   ar
    12    12    13   ar
    13    13    14   ar
    14    14    15    1
    15    15    16    2
    16    15    17   am
    17    17    18    1
    18    14    19   ar
    19    19    20   ar
    20     6    21   ar
    21    21    22   ar
    22    22     3   ar
    23    20     8   ar
    24    20    11   ar
    25     1    23    1
    26     1    24    1
    27     1    25    1
    28     4    26    1
    29     5    27    1
    30     7    28    1
    31     7    29    1
    32     9    30    1
    33    10    31    1
    34    12    32    1
    35    13    33    1
    36    17    34    1
    37    18    35    1
    38    19    36    1
    39    21    37    1
    40    22    38    1
