@<TRIPOS>MOLECULE
*****
 47 50 0 0 0
SMALL
GASTEIGER

@<TRIPOS>ATOM
      1 C           0.5734   -0.6550    1.1936 C.3     1  UNL1        0.0034
      2 C           0.9254   -1.9362    0.5230 C.3     1  UNL1       -0.0467
      3 C          -0.3542   -2.7426    0.4128 C.3     1  UNL1       -0.0498
      4 C          -1.3577   -2.0108   -0.4362 C.3     1  UNL1       -0.0381
      5 C          -2.5675   -2.8732   -0.5779 C.3     1  UNL1       -0.0621
      6 C          -1.7335   -0.6914    0.2035 C.3     1  UNL1       -0.0010
      7 C          -2.6100    0.1070   -0.7051 C.3     1  UNL1       -0.0421
      8 C          -2.6508    1.5600   -0.4657 C.3     1  UNL1        0.0043
      9 C          -1.4036    2.3232   -0.3473 C.3     1  UNL1        0.2027
     10 C          -1.7424    3.7785   -0.6159 C.3     1  UNL1       -0.0077
     11 O          -0.8611    2.3177    0.9579 O.3     1  UNL1       -0.1989
     12 O          -0.8758    1.1038    1.3598 O.3     1  UNL1       -0.2196
     13 C          -0.4749    0.1446    0.4396 C.3     1  UNL1        0.1612
     14 C           0.0669    0.6546   -0.8481 C.3     1  UNL1        0.1976
     15 O           1.4053    0.4376   -1.0599 O.3     1  UNL1       -0.3194
     16 C           2.2573    0.5933   -0.0206 C.3     1  UNL1        0.1647
     17 O           3.3497   -0.2495   -0.2334 O.3     1  UNL1       -0.3541
     18 C           4.5223    0.4581   -0.4577 C.3     1  UNL1        0.0394
     19 C           1.7366    0.3012    1.3388 C.3     1  UNL1        0.0131
     20 C           2.7607   -0.1745    2.3136 C.3     1  UNL1       -0.0575
     21 O          -0.3549    1.9520   -1.1555 O.3     1  UNL1       -0.3144
     22 H           0.1895   -0.9096    2.2042 H       1  UNL1        0.0335
     23 H           1.5901   -2.4943    1.2136 H       1  UNL1        0.0269
     24 H           1.3211   -1.8420   -0.4865 H       1  UNL1        0.0269
     25 H          -0.8215   -2.9090    1.4217 H       1  UNL1        0.0268
     26 H          -0.1544   -3.7273   -0.0773 H       1  UNL1        0.0268
     27 H          -0.9168   -1.9012   -1.4458 H       1  UNL1        0.0302
     28 H          -2.6986   -3.5279    0.3275 H       1  UNL1        0.0233
     29 H          -2.4896   -3.5941   -1.4315 H       1  UNL1        0.0233
     30 H          -3.5179   -2.3493   -0.7155 H       1  UNL1        0.0233
     31 H          -2.1686   -0.9042    1.1795 H       1  UNL1        0.0334
     32 H          -2.4321   -0.1436   -1.7853 H       1  UNL1        0.0271
     33 H          -3.6633   -0.2611   -0.5390 H       1  UNL1        0.0271
     34 H          -3.2433    2.0052   -1.3048 H       1  UNL1        0.0318
     35 H          -3.2696    1.7483    0.4420 H       1  UNL1        0.0318
     36 H          -2.1413    4.2177    0.3222 H       1  UNL1        0.0282
     37 H          -2.5760    3.8155   -1.3575 H       1  UNL1        0.0282
     38 H          -0.8691    4.3697   -0.9430 H       1  UNL1        0.0282
     39 H          -0.4020    0.0638   -1.6705 H       1  UNL1        0.0943
     40 H           2.6747    1.6393   -0.0985 H       1  UNL1        0.0913
     41 H           4.8347    1.1186    0.3509 H       1  UNL1        0.0525
     42 H           4.3994    1.0247   -1.4249 H       1  UNL1        0.0525
     43 H           5.3181   -0.2849   -0.6711 H       1  UNL1        0.0525
     44 H           1.2937    1.2656    1.7228 H       1  UNL1        0.0351
     45 H           2.3973   -1.0352    2.9283 H       1  UNL1        0.0234
     46 H           3.7119   -0.4299    1.8010 H       1  UNL1        0.0234
     47 H           3.0226    0.6468    3.0413 H       1  UNL1        0.0234
@<TRIPOS>BOND
     1     1     2    1
     2     2     3    1
     3     3     4    1
     4     4     5    1
     5     4     6    1
     6     6     7    1
     7     7     8    1
     8     8     9    1
     9     9    10    1
    10     9    11    1
    11    11    12    1
    12    13    12    1
    13    13    14    1
    14    14    15    1
    15    15    16    1
    16    16    17    1
    17    17    18    1
    18    16    19    1
    19    19    20    1
    20    14    21    1
    21    13     1    1
    22    19     1    1
    23    13     6    1
    24    21     9    1
    25     1    22    1
    26     2    23    1
    27     2    24    1
    28     3    25    1
    29     3    26    1
    30     4    27    1
    31     5    28    1
    32     5    29    1
    33     5    30    1
    34     6    31    1
    35     7    32    1
    36     7    33    1
    37     8    34    1
    38     8    35    1
    39    10    36    1
    40    10    37    1
    41    10    38    1
    42    14    39    1
    43    16    40    1
    44    18    41    1
    45    18    42    1
    46    18    43    1
    47    19    44    1
    48    20    45    1
    49    20    46    1
    50    20    47    1
