@<TRIPOS>MOLECULE
*****
 31 32 0 0 0
SMALL
GASTEIGER

@<TRIPOS>ATOM
      1 C          -3.2865   -0.4737   -1.6513 C.3     1  UNL1        0.0004
      2 N          -2.6611    0.0911   -0.4462 N.pl3   1  UNL1       -0.3355
      3 C          -3.5857    0.3347    0.6706 C.3     1  UNL1        0.0004
      4 C          -1.3073    0.4478   -0.1646 C.ar    1  UNL1        0.0371
      5 C          -0.2217   -0.3854   -0.1806 C.ar    1  UNL1        0.0050
      6 C          -0.4642   -1.7044   -0.5022 C.ar    1  UNL1       -0.0521
      7 C           0.6307   -2.5526   -0.5200 C.ar    1  UNL1       -0.0593
      8 C           1.9199   -2.1003   -0.2276 C.ar    1  UNL1       -0.0347
      9 C           2.0731   -0.7634    0.0844 C.ar    1  UNL1        0.1127
     10 C           1.0201    0.1298    0.1183 C.ar    1  UNL1        0.0102
     11 C           1.1992    1.4469    0.4298 C.ar    1  UNL1       -0.0520
     12 C           0.0852    2.2916    0.4440 C.ar    1  UNL1       -0.0594
     13 C          -1.1742    1.7827    0.1438 C.ar    1  UNL1       -0.0401
     14 S           3.6590   -0.1418    0.4582 S.O2    1  UNL1        0.0565
     15 N           4.1513    1.0991   -0.6150 N.3     1  UNL1       -0.2035
     16 O           3.5943    0.4216    1.8458 O.2     1  UNL1       -0.1532
     17 O           4.6764   -1.2477    0.4342 O.2     1  UNL1       -0.1532
     18 H          -4.1519    0.1700   -1.9241 H       1  UNL1        0.0428
     19 H          -3.7063   -1.4816   -1.4491 H       1  UNL1        0.0428
     20 H          -2.5877   -0.4881   -2.4949 H       1  UNL1        0.0428
     21 H          -3.0880    0.3640    1.6425 H       1  UNL1        0.0428
     22 H          -4.4267   -0.3795    0.6377 H       1  UNL1        0.0428
     23 H          -4.0212    1.3503    0.4735 H       1  UNL1        0.0428
     24 H          -1.4628   -2.0490   -0.7274 H       1  UNL1        0.0624
     25 H           0.5106   -3.6130   -0.7672 H       1  UNL1        0.0618
     26 H           2.7973   -2.7251   -0.2300 H       1  UNL1        0.0637
     27 H           2.1701    1.8526    0.6641 H       1  UNL1        0.0624
     28 H           0.2714    3.3426    0.6992 H       1  UNL1        0.0618
     29 H          -1.9822    2.5089    0.1786 H       1  UNL1        0.0636
     30 H           4.5692    0.7509   -1.5048 H       1  UNL1        0.1442
     31 H           4.7997    1.7209   -0.0823 H       1  UNL1        0.1442
@<TRIPOS>BOND
     1     1     2    1
     2     2     3    1
     3     2     4    1
     4     4     5   ar
     5     5     6   ar
     6     6     7   ar
     7     7     8   ar
     8     8     9   ar
     9     9    10   ar
    10    10    11   ar
    11    11    12   ar
    12    12    13   ar
    13     9    14    1
    14    14    15    1
    15    14    16    2
    16    14    17    2
    17    13     4   ar
    18    10     5   ar
    19     1    18    1
    20     1    19    1
    21     1    20    1
    22     3    21    1
    23     3    22    1
    24     3    23    1
    25     6    24    1
    26     7    25    1
    27     8    26    1
    28    11    27    1
    29    12    28    1
    30    13    29    1
    31    15    30    1
    32    15    31    1
