@<TRIPOS>MOLECULE
*****
 37 38 0 0 0
SMALL
GASTEIGER

@<TRIPOS>ATOM
      1 C          -2.5314    0.6773    2.8745 C.3     1  UNL1        0.0790
      2 O          -1.8402    0.4445    1.6619 O.3     1  UNL1       -0.4914
      3 C          -2.5572    0.1961    0.4825 C.ar    1  UNL1        0.1635
      4 C          -3.9354    0.1759    0.4925 C.ar    1  UNL1        0.0020
      5 C          -4.6693   -0.0640   -0.6547 C.ar    1  UNL1        0.0447
      6 CL         -6.4276   -0.0909   -0.6524 Cl      1  UNL1       -0.0834
      7 C          -4.0232   -0.2916   -1.8516 C.ar    1  UNL1       -0.0397
      8 C          -2.6417   -0.2717   -1.8616 C.ar    1  UNL1       -0.0143
      9 C          -1.9067   -0.0311   -0.7101 C.ar    1  UNL1        0.1699
     10 O          -0.5361   -0.0102   -0.7210 O.3     1  UNL1       -0.4519
     11 C           0.2995   -0.8704   -0.0198 C.ar    1  UNL1        0.1359
     12 C          -0.2057   -1.8889    0.7567 C.ar    1  UNL1       -0.0009
     13 C           0.6902   -2.7042    1.4275 C.ar    1  UNL1        0.0310
     14 N           2.0140   -2.5070    1.3229 N.ar    1  UNL1       -0.2627
     15 C           2.5190   -1.5274    0.5762 C.ar    1  UNL1        0.0355
     16 C           1.6661   -0.6973   -0.1041 C.ar    1  UNL1        0.0269
     17 C           2.1561    0.4248   -0.9697 C.3     1  UNL1        0.0284
     18 N           3.5736    0.6028   -0.8903 N.3     1  UNL1       -0.3040
     19 C           3.8883    1.6895   -1.8354 C.3     1  UNL1       -0.0127
     20 C           3.9076    1.0902    0.4338 C.3     1  UNL1       -0.0127
     21 H          -2.8541   -0.3011    3.2854 H       1  UNL1        0.0660
     22 H          -3.3686    1.3877    2.7745 H       1  UNL1        0.0660
     23 H          -1.8537    1.1156    3.6416 H       1  UNL1        0.0660
     24 H          -4.4623    0.3495    1.4116 H       1  UNL1        0.0670
     25 H          -4.6092   -0.4777   -2.7413 H       1  UNL1        0.0633
     26 H          -2.1493   -0.4550   -2.8244 H       1  UNL1        0.0656
     27 H          -1.2910   -2.0706    0.8477 H       1  UNL1        0.0670
     28 H           0.3149   -3.5209    2.0516 H       1  UNL1        0.0831
     29 H           3.5928   -1.3514    0.4743 H       1  UNL1        0.0834
     30 H           1.8163    0.2072   -1.9981 H       1  UNL1        0.0477
     31 H           1.6615    1.3756   -0.6333 H       1  UNL1        0.0477
     32 H           3.5070    2.6272   -1.4320 H       1  UNL1        0.0391
     33 H           3.3235    1.4082   -2.7699 H       1  UNL1        0.0391
     34 H           4.9699    1.6520   -1.9924 H       1  UNL1        0.0391
     35 H           4.0335    2.1795    0.3903 H       1  UNL1        0.0391
     36 H           4.8575    0.6489    0.8088 H       1  UNL1        0.0391
     37 H           3.0713    0.8787    1.1518 H       1  UNL1        0.0391
@<TRIPOS>BOND
     1     1     2    1
     2     2     3    1
     3     3     4   ar
     4     4     5   ar
     5     5     6    1
     6     5     7   ar
     7     7     8   ar
     8     8     9   ar
     9     9    10    1
    10    10    11    1
    11    11    12   ar
    12    12    13   ar
    13    13    14   ar
    14    14    15   ar
    15    15    16   ar
    16    16    17    1
    17    17    18    1
    18    18    19    1
    19    18    20    1
    20     9     3   ar
    21    16    11   ar
    22     1    21    1
    23     1    22    1
    24     1    23    1
    25     4    24    1
    26     7    25    1
    27     8    26    1
    28    12    27    1
    29    13    28    1
    30    15    29    1
    31    17    30    1
    32    17    31    1
    33    19    32    1
    34    19    33    1
    35    19    34    1
    36    20    35    1
    37    20    36    1
    38    20    37    1
