
     RDKit          3D

 37 38  0  0  0  0  0  0  0  0999 V2000
   -2.5314    0.6773    2.8745 C   0  0  0  0  0  0  0  0  0  0  0  0
   -1.8402    0.4445    1.6619 O   0  0  0  0  0  0  0  0  0  0  0  0
   -2.5572    0.1961    0.4825 C   0  0  0  0  0  0  0  0  0  0  0  0
   -3.9354    0.1759    0.4925 C   0  0  0  0  0  0  0  0  0  0  0  0
   -4.6693   -0.0640   -0.6547 C   0  0  0  0  0  0  0  0  0  0  0  0
   -6.4276   -0.0909   -0.6524 Cl  0  0  0  0  0  0  0  0  0  0  0  0
   -4.0232   -0.2916   -1.8516 C   0  0  0  0  0  0  0  0  0  0  0  0
   -2.6417   -0.2717   -1.8616 C   0  0  0  0  0  0  0  0  0  0  0  0
   -1.9067   -0.0311   -0.7101 C   0  0  0  0  0  0  0  0  0  0  0  0
   -0.5361   -0.0102   -0.7210 O   0  0  0  0  0  0  0  0  0  0  0  0
    0.2995   -0.8704   -0.0198 C   0  0  0  0  0  0  0  0  0  0  0  0
   -0.2057   -1.8889    0.7567 C   0  0  0  0  0  0  0  0  0  0  0  0
    0.6902   -2.7042    1.4275 C   0  0  0  0  0  0  0  0  0  0  0  0
    2.0140   -2.5070    1.3229 N   0  0  0  0  0  0  0  0  0  0  0  0
    2.5190   -1.5274    0.5762 C   0  0  0  0  0  0  0  0  0  0  0  0
    1.6661   -0.6973   -0.1041 C   0  0  0  0  0  0  0  0  0  0  0  0
    2.1561    0.4248   -0.9697 C   0  0  0  0  0  0  0  0  0  0  0  0
    3.5736    0.6028   -0.8903 N   0  0  0  0  0  0  0  0  0  0  0  0
    3.8883    1.6895   -1.8354 C   0  0  0  0  0  0  0  0  0  0  0  0
    3.9076    1.0902    0.4338 C   0  0  0  0  0  0  0  0  0  0  0  0
   -2.8541   -0.3011    3.2854 H   0  0  0  0  0  0  0  0  0  0  0  0
   -3.3686    1.3877    2.7745 H   0  0  0  0  0  0  0  0  0  0  0  0
   -1.8537    1.1156    3.6416 H   0  0  0  0  0  0  0  0  0  0  0  0
   -4.4623    0.3495    1.4116 H   0  0  0  0  0  0  0  0  0  0  0  0
   -4.6092   -0.4777   -2.7413 H   0  0  0  0  0  0  0  0  0  0  0  0
   -2.1493   -0.4550   -2.8244 H   0  0  0  0  0  0  0  0  0  0  0  0
   -1.2910   -2.0706    0.8477 H   0  0  0  0  0  0  0  0  0  0  0  0
    0.3149   -3.5209    2.0516 H   0  0  0  0  0  0  0  0  0  0  0  0
    3.5928   -1.3514    0.4743 H   0  0  0  0  0  0  0  0  0  0  0  0
    1.8163    0.2072   -1.9981 H   0  0  0  0  0  0  0  0  0  0  0  0
    1.6615    1.3756   -0.6333 H   0  0  0  0  0  0  0  0  0  0  0  0
    3.5070    2.6272   -1.4320 H   0  0  0  0  0  0  0  0  0  0  0  0
    3.3235    1.4082   -2.7699 H   0  0  0  0  0  0  0  0  0  0  0  0
    4.9699    1.6520   -1.9924 H   0  0  0  0  0  0  0  0  0  0  0  0
    4.0335    2.1795    0.3903 H   0  0  0  0  0  0  0  0  0  0  0  0
    4.8575    0.6489    0.8088 H   0  0  0  0  0  0  0  0  0  0  0  0
    3.0713    0.8787    1.1518 H   0  0  0  0  0  0  0  0  0  0  0  0
  1  2  1  0
  2  3  1  0
  3  4  2  0
  4  5  1  0
  5  6  1  0
  5  7  2  0
  7  8  1  0
  8  9  2  0
  9 10  1  0
 10 11  1  0
 11 12  2  0
 12 13  1  0
 13 14  2  0
 14 15  1  0
 15 16  2  0
 16 17  1  0
 17 18  1  0
 18 19  1  0
 18 20  1  0
  9  3  1  0
 16 11  1  0
  1 21  1  0
  1 22  1  0
  1 23  1  0
  4 24  1  0
  7 25  1  0
  8 26  1  0
 12 27  1  0
 13 28  1  0
 15 29  1  0
 17 30  1  0
 17 31  1  0
 19 32  1  0
 19 33  1  0
 19 34  1  0
 20 35  1  0
 20 36  1  0
 20 37  1  0
M  END
$$$$
