@<TRIPOS>MOLECULE
*****
 56 59 0 0 0
SMALL
GASTEIGER

@<TRIPOS>ATOM
      1 C           8.5833    2.8346   -0.7434 C.3     1  UNL1        0.0788
      2 O           8.3735    1.8845    0.2773 O.3     1  UNL1       -0.4945
      3 C           7.1736    1.1555    0.2697 C.ar    1  UNL1        0.1318
      4 C           6.2349    1.3777   -0.7209 C.ar    1  UNL1       -0.0187
      5 C           5.0484    0.6629   -0.7362 C.ar    1  UNL1       -0.0461
      6 C           4.7628   -0.2859    0.2253 C.ar    1  UNL1        0.0378
      7 C           3.5207   -1.0430    0.2204 C.2     1  UNL1        0.2483
      8 O           3.3422   -1.8920    1.1393 O.2     1  UNL1       -0.2699
      9 N           2.5012   -0.9001   -0.7331 N.am    1  UNL1       -0.2815
     10 C           1.2926   -1.6483   -0.7235 C.ar    1  UNL1        0.0340
     11 C           1.2533   -2.8469   -1.4043 C.ar    1  UNL1       -0.0405
     12 C           0.1080   -3.6285   -1.4372 C.ar    1  UNL1       -0.0597
     13 C          -0.9920   -3.1820   -0.7744 C.ar    1  UNL1       -0.0570
     14 C          -1.0110   -1.9922   -0.0773 C.ar    1  UNL1       -0.0286
     15 C          -2.2522   -1.6073    0.6016 C.3     1  UNL1        0.0357
     16 N          -3.1357   -0.8226   -0.2447 N.pl3   1  UNL1       -0.3244
     17 C          -4.3769   -0.3692    0.2559 C.ar    1  UNL1        0.1300
     18 N          -4.7114   -0.6885    1.5394 N.ar    1  UNL1       -0.2203
     19 C          -5.8602   -0.3006    2.0852 C.ar    1  UNL1        0.1187
     20 N          -6.7489    0.4290    1.3895 N.ar    1  UNL1       -0.2345
     21 C          -6.4962    0.7809    0.1316 C.ar    1  UNL1        0.0881
     22 C          -7.3971    1.5285   -0.5943 C.ar    1  UNL1        0.0625
     23 C          -8.6331    1.9223    0.0540 C.2     1  UNL1        0.2436
     24 N          -8.9329    1.5650    1.3899 N.am    1  UNL1       -0.3253
     25 O          -9.4686    2.6033   -0.5872 O.2     1  UNL1       -0.2703
     26 C          -7.1397    1.8971   -1.9018 C.ar    1  UNL1       -0.0475
     27 C          -5.9517    1.4906   -2.4521 C.ar    1  UNL1       -0.0603
     28 C          -5.0236    0.7299   -1.7290 C.ar    1  UNL1       -0.0492
     29 C          -5.2904    0.3748   -0.4440 C.ar    1  UNL1        0.0409
     30 C           0.1447   -1.2509   -0.0716 C.ar    1  UNL1       -0.0358
     31 C           5.7264   -0.4729    1.1910 C.ar    1  UNL1       -0.0344
     32 C           6.9107    0.2152    1.2377 C.ar    1  UNL1        0.0970
     33 C           7.9086   -0.0214    2.2913 C.3     1  UNL1        0.4208
     34 F           7.5390   -0.9737    3.1930 F       1  UNL1       -0.1658
     35 F           9.1122   -0.4354    1.7254 F       1  UNL1       -0.1658
     36 F           8.1264    1.1861    2.9365 F       1  UNL1       -0.1658
     37 H           9.5839    3.2922   -0.6594 H       1  UNL1        0.0660
     38 H           7.8525    3.6702   -0.6412 H       1  UNL1        0.0660
     39 H           8.4499    2.2975   -1.7160 H       1  UNL1        0.0660
     40 H           6.4285    2.1256   -1.5027 H       1  UNL1        0.0654
     41 H           4.3590    0.8859   -1.5378 H       1  UNL1        0.0626
     42 H           2.6397   -0.1984   -1.4994 H       1  UNL1        0.1551
     43 H           2.1113   -3.2317   -1.9424 H       1  UNL1        0.0636
     44 H           0.1052   -4.5771   -1.9865 H       1  UNL1        0.0618
     45 H          -1.8846   -3.8110   -0.8116 H       1  UNL1        0.0621
     46 H          -2.0515   -1.0717    1.5578 H       1  UNL1        0.0511
     47 H          -2.8024   -2.5298    0.8733 H       1  UNL1        0.0511
     48 H          -2.8176   -0.6244   -1.1912 H       1  UNL1        0.1478
     49 H          -6.1349   -0.5554    3.1199 H       1  UNL1        0.1048
     50 H          -8.5047    2.1299    2.1528 H       1  UNL1        0.1453
     51 H          -9.5549    0.7727    1.6647 H       1  UNL1        0.1453
     52 H          -7.8829    2.4806   -2.4144 H       1  UNL1        0.0626
     53 H          -5.7280    1.7673   -3.4753 H       1  UNL1        0.0618
     54 H          -4.1039    0.4299   -2.1933 H       1  UNL1        0.0625
     55 H           0.1422   -0.3173    0.4709 H       1  UNL1        0.0639
     56 H           5.5520   -1.2113    1.9757 H       1  UNL1        0.0632
@<TRIPOS>BOND
     1     1     2    1
     2     2     3    1
     3     3     4   ar
     4     4     5   ar
     5     5     6   ar
     6     6     7    1
     7     7     8    2
     8     7     9   am
     9     9    10    1
    10    10    11   ar
    11    11    12   ar
    12    12    13   ar
    13    13    14   ar
    14    14    15    1
    15    15    16    1
    16    16    17    1
    17    17    18   ar
    18    18    19   ar
    19    19    20   ar
    20    20    21   ar
    21    21    22   ar
    22    22    23    1
    23    23    24   am
    24    23    25    2
    25    22    26   ar
    26    26    27   ar
    27    27    28   ar
    28    28    29   ar
    29    14    30   ar
    30     6    31   ar
    31    31    32   ar
    32    32    33    1
    33    33    34    1
    34    33    35    1
    35    33    36    1
    36    32     3   ar
    37    30    10   ar
    38    29    17   ar
    39    29    21   ar
    40     1    37    1
    41     1    38    1
    42     1    39    1
    43     4    40    1
    44     5    41    1
    45     9    42    1
    46    11    43    1
    47    12    44    1
    48    13    45    1
    49    15    46    1
    50    15    47    1
    51    16    48    1
    52    19    49    1
    53    24    50    1
    54    24    51    1
    55    26    52    1
    56    27    53    1
    57    28    54    1
    58    30    55    1
    59    31    56    1
