
     RDKit          3D

 56 59  0  0  0  0  0  0  0  0999 V2000
    8.5833    2.8346   -0.7434 C   0  0  0  0  0  0  0  0  0  0  0  0
    8.3735    1.8845    0.2773 O   0  0  0  0  0  0  0  0  0  0  0  0
    7.1736    1.1555    0.2697 C   0  0  0  0  0  0  0  0  0  0  0  0
    6.2349    1.3777   -0.7209 C   0  0  0  0  0  0  0  0  0  0  0  0
    5.0484    0.6629   -0.7362 C   0  0  0  0  0  0  0  0  0  0  0  0
    4.7628   -0.2859    0.2253 C   0  0  0  0  0  0  0  0  0  0  0  0
    3.5207   -1.0430    0.2204 C   0  0  0  0  0  0  0  0  0  0  0  0
    3.3422   -1.8920    1.1393 O   0  0  0  0  0  0  0  0  0  0  0  0
    2.5012   -0.9001   -0.7331 N   0  0  0  0  0  0  0  0  0  0  0  0
    1.2926   -1.6483   -0.7235 C   0  0  0  0  0  0  0  0  0  0  0  0
    1.2533   -2.8469   -1.4043 C   0  0  0  0  0  0  0  0  0  0  0  0
    0.1080   -3.6285   -1.4372 C   0  0  0  0  0  0  0  0  0  0  0  0
   -0.9920   -3.1820   -0.7744 C   0  0  0  0  0  0  0  0  0  0  0  0
   -1.0110   -1.9922   -0.0773 C   0  0  0  0  0  0  0  0  0  0  0  0
   -2.2522   -1.6073    0.6016 C   0  0  0  0  0  0  0  0  0  0  0  0
   -3.1357   -0.8226   -0.2447 N   0  0  0  0  0  0  0  0  0  0  0  0
   -4.3769   -0.3692    0.2559 C   0  0  0  0  0  0  0  0  0  0  0  0
   -4.7114   -0.6885    1.5394 N   0  0  0  0  0  0  0  0  0  0  0  0
   -5.8602   -0.3006    2.0852 C   0  0  0  0  0  0  0  0  0  0  0  0
   -6.7489    0.4290    1.3895 N   0  0  0  0  0  0  0  0  0  0  0  0
   -6.4962    0.7809    0.1316 C   0  0  0  0  0  0  0  0  0  0  0  0
   -7.3971    1.5285   -0.5943 C   0  0  0  0  0  0  0  0  0  0  0  0
   -8.6331    1.9223    0.0540 C   0  0  0  0  0  0  0  0  0  0  0  0
   -8.9329    1.5650    1.3899 N   0  0  0  0  0  0  0  0  0  0  0  0
   -9.4686    2.6033   -0.5872 O   0  0  0  0  0  0  0  0  0  0  0  0
   -7.1397    1.8971   -1.9018 C   0  0  0  0  0  0  0  0  0  0  0  0
   -5.9517    1.4906   -2.4521 C   0  0  0  0  0  0  0  0  0  0  0  0
   -5.0236    0.7299   -1.7290 C   0  0  0  0  0  0  0  0  0  0  0  0
   -5.2904    0.3748   -0.4440 C   0  0  0  0  0  0  0  0  0  0  0  0
    0.1447   -1.2509   -0.0716 C   0  0  0  0  0  0  0  0  0  0  0  0
    5.7264   -0.4729    1.1910 C   0  0  0  0  0  0  0  0  0  0  0  0
    6.9107    0.2152    1.2377 C   0  0  0  0  0  0  0  0  0  0  0  0
    7.9086   -0.0214    2.2913 C   0  0  0  0  0  0  0  0  0  0  0  0
    7.5390   -0.9737    3.1930 F   0  0  0  0  0  0  0  0  0  0  0  0
    9.1122   -0.4354    1.7254 F   0  0  0  0  0  0  0  0  0  0  0  0
    8.1264    1.1861    2.9365 F   0  0  0  0  0  0  0  0  0  0  0  0
    9.5839    3.2922   -0.6594 H   0  0  0  0  0  0  0  0  0  0  0  0
    7.8525    3.6702   -0.6412 H   0  0  0  0  0  0  0  0  0  0  0  0
    8.4499    2.2975   -1.7160 H   0  0  0  0  0  0  0  0  0  0  0  0
    6.4285    2.1256   -1.5027 H   0  0  0  0  0  0  0  0  0  0  0  0
    4.3590    0.8859   -1.5378 H   0  0  0  0  0  0  0  0  0  0  0  0
    2.6397   -0.1984   -1.4994 H   0  0  0  0  0  0  0  0  0  0  0  0
    2.1113   -3.2317   -1.9424 H   0  0  0  0  0  0  0  0  0  0  0  0
    0.1052   -4.5771   -1.9865 H   0  0  0  0  0  0  0  0  0  0  0  0
   -1.8846   -3.8110   -0.8116 H   0  0  0  0  0  0  0  0  0  0  0  0
   -2.0515   -1.0717    1.5578 H   0  0  0  0  0  0  0  0  0  0  0  0
   -2.8024   -2.5298    0.8733 H   0  0  0  0  0  0  0  0  0  0  0  0
   -2.8176   -0.6244   -1.1912 H   0  0  0  0  0  0  0  0  0  0  0  0
   -6.1349   -0.5554    3.1199 H   0  0  0  0  0  0  0  0  0  0  0  0
   -8.5047    2.1299    2.1528 H   0  0  0  0  0  0  0  0  0  0  0  0
   -9.5549    0.7727    1.6647 H   0  0  0  0  0  0  0  0  0  0  0  0
   -7.8829    2.4806   -2.4144 H   0  0  0  0  0  0  0  0  0  0  0  0
   -5.7280    1.7673   -3.4753 H   0  0  0  0  0  0  0  0  0  0  0  0
   -4.1039    0.4299   -2.1933 H   0  0  0  0  0  0  0  0  0  0  0  0
    0.1422   -0.3173    0.4709 H   0  0  0  0  0  0  0  0  0  0  0  0
    5.5520   -1.2113    1.9757 H   0  0  0  0  0  0  0  0  0  0  0  0
  1  2  1  0
  2  3  1  0
  3  4  2  0
  4  5  1  0
  5  6  2  0
  6  7  1  0
  7  8  2  0
  7  9  1  0
  9 10  1  0
 10 11  2  0
 11 12  1  0
 12 13  2  0
 13 14  1  0
 14 15  1  0
 15 16  1  0
 16 17  1  0
 17 18  2  0
 18 19  1  0
 19 20  2  0
 20 21  1  0
 21 22  2  0
 22 23  1  0
 23 24  1  0
 23 25  2  0
 22 26  1  0
 26 27  2  0
 27 28  1  0
 28 29  2  0
 14 30  2  0
  6 31  1  0
 31 32  2  0
 32 33  1  0
 33 34  1  0
 33 35  1  0
 33 36  1  0
 32  3  1  0
 30 10  1  0
 29 17  1  0
 29 21  1  0
  1 37  1  0
  1 38  1  0
  1 39  1  0
  4 40  1  0
  5 41  1  0
  9 42  1  0
 11 43  1  0
 12 44  1  0
 13 45  1  0
 15 46  1  0
 15 47  1  0
 16 48  1  0
 19 49  1  0
 24 50  1  0
 24 51  1  0
 26 52  1  0
 27 53  1  0
 28 54  1  0
 30 55  1  0
 31 56  1  0
M  END
$$$$
