@<TRIPOS>MOLECULE
*****
 63 66 0 0 0
SMALL
GASTEIGER

@<TRIPOS>ATOM
      1 C           0.4331   -2.9440   -2.0594 C.3     1  UNL1       -0.0421
      2 C           0.3574   -2.2917   -0.6983 C.3     1  UNL1        0.0515
      3 C           1.6145   -1.5571   -0.4454 C.ar    1  UNL1       -0.0271
      4 C           2.6439   -2.0845    0.3460 C.ar    1  UNL1       -0.0562
      5 C           3.8129   -1.3927    0.5661 C.ar    1  UNL1       -0.0537
      6 C           4.0221   -0.1510    0.0180 C.ar    1  UNL1       -0.0177
      7 C           5.2820    0.5316    0.2891 C.ar    1  UNL1       -0.0114
      8 C           5.8603    1.3937   -0.6227 C.ar    1  UNL1       -0.0376
      9 C           7.0573    2.0193   -0.3215 C.ar    1  UNL1        0.0082
     10 N           7.7079    1.8308    0.8401 N.ar    1  UNL1       -0.3182
     11 C           8.9676    2.4982    1.1394 C.3     1  UNL1        0.0147
     12 C           7.1524    0.9939    1.7329 C.ar    1  UNL1        0.2516
     13 O           7.7681    0.8222    2.8198 O.2     1  UNL1       -0.2677
     14 C           5.9532    0.3417    1.4794 C.ar    1  UNL1        0.0107
     15 C           3.0372    0.3935   -0.7604 C.ar    1  UNL1       -0.0537
     16 C           1.8609   -0.3211   -0.9723 C.ar    1  UNL1       -0.0562
     17 N          -0.8496   -1.5564   -0.4930 N.am    1  UNL1       -0.2605
     18 C          -1.3315   -0.4300   -1.2336 C.3     1  UNL1        0.0224
     19 C          -2.8496   -0.4527   -1.2477 C.3     1  UNL1        0.0075
     20 C          -3.4446   -0.3921    0.1008 C.3     1  UNL1        0.1415
     21 C          -4.7888   -1.1115    0.0401 C.3     1  UNL1       -0.0064
     22 C          -5.6799   -0.4182   -0.9664 C.3     1  UNL1       -0.0258
     23 C          -7.0353   -1.1119   -1.0564 C.3     1  UNL1        0.0443
     24 O          -6.8938   -2.4359   -1.4500 O.3     1  UNL1       -0.3950
     25 C          -3.6410    0.9722    0.6200 C.ar    1  UNL1       -0.0041
     26 C          -4.2206    1.1528    1.8810 C.ar    1  UNL1       -0.0548
     27 C          -4.4045    2.4006    2.3756 C.ar    1  UNL1       -0.0614
     28 C          -4.0349    3.5027    1.6677 C.ar    1  UNL1       -0.0617
     29 C          -3.4630    3.3436    0.4249 C.ar    1  UNL1       -0.0614
     30 C          -3.2616    2.0656   -0.1096 C.ar    1  UNL1       -0.0548
     31 O          -2.6501   -1.0998    1.0715 O.3     1  UNL1       -0.4388
     32 C          -1.7220   -1.9971    0.5766 C.2     1  UNL1        0.4042
     33 O          -1.5877   -3.1858    1.0047 O.2     1  UNL1       -0.2262
     34 H          -0.4188   -3.6530   -2.2147 H       1  UNL1        0.0251
     35 H           0.3848   -2.2252   -2.8890 H       1  UNL1        0.0251
     36 H           1.3936   -3.4792   -2.1266 H       1  UNL1        0.0251
     37 H           0.3972   -3.1604    0.0381 H       1  UNL1        0.0549
     38 H           2.4686   -3.0629    0.7724 H       1  UNL1        0.0621
     39 H           4.6040   -1.8243    1.1880 H       1  UNL1        0.0624
     40 H           5.3383    1.5494   -1.5631 H       1  UNL1        0.0638
     41 H           7.5069    2.6993   -1.0496 H       1  UNL1        0.0810
     42 H           9.6171    1.7329    1.6102 H       1  UNL1        0.0457
     43 H           8.8299    3.2898    1.9319 H       1  UNL1        0.0457
     44 H           9.3822    2.9291    0.2286 H       1  UNL1        0.0457
     45 H           5.5301   -0.3259    2.2165 H       1  UNL1        0.0678
     46 H           3.1895    1.3674   -1.1962 H       1  UNL1        0.0624
     47 H           1.1510    0.1859   -1.6006 H       1  UNL1        0.0621
     48 H          -1.0226    0.4964   -0.7183 H       1  UNL1        0.0467
     49 H          -1.0074   -0.3741   -2.2854 H       1  UNL1        0.0467
     50 H          -3.2141    0.3100   -1.9386 H       1  UNL1        0.0322
     51 H          -3.0993   -1.4387   -1.7717 H       1  UNL1        0.0322
     52 H          -5.2960   -1.1601    1.0014 H       1  UNL1        0.0308
     53 H          -4.6022   -2.1458   -0.3123 H       1  UNL1        0.0308
     54 H          -5.8345    0.6498   -0.7147 H       1  UNL1        0.0289
     55 H          -5.2452   -0.4526   -1.9856 H       1  UNL1        0.0289
     56 H          -7.5671   -1.0910   -0.0707 H       1  UNL1        0.0557
     57 H          -7.6298   -0.6083   -1.8448 H       1  UNL1        0.0557
     58 H          -7.0129   -3.0724   -0.7026 H       1  UNL1        0.2094
     59 H          -4.5129    0.2655    2.4396 H       1  UNL1        0.0622
     60 H          -4.8533    2.5721    3.3546 H       1  UNL1        0.0618
     61 H          -4.1909    4.5042    2.0830 H       1  UNL1        0.0618
     62 H          -3.1583    4.1886   -0.1633 H       1  UNL1        0.0618
     63 H          -2.8002    2.0045   -1.1034 H       1  UNL1        0.0622
@<TRIPOS>BOND
     1     1     2    1
     2     2     3    1
     3     3     4   ar
     4     4     5   ar
     5     5     6   ar
     6     6     7    1
     7     7     8   ar
     8     8     9   ar
     9     9    10   ar
    10    10    11    1
    11    10    12   ar
    12    12    13    2
    13    12    14   ar
    14     6    15   ar
    15    15    16   ar
    16     2    17    1
    17    17    18    1
    18    18    19    1
    19    19    20    1
    20    20    21    1
    21    21    22    1
    22    22    23    1
    23    23    24    1
    24    20    25    1
    25    25    26   ar
    26    26    27   ar
    27    27    28   ar
    28    28    29   ar
    29    29    30   ar
    30    20    31    1
    31    31    32    1
    32    32    33    2
    33    16     3   ar
    34    32    17   am
    35    14     7   ar
    36    30    25   ar
    37     1    34    1
    38     1    35    1
    39     1    36    1
    40     2    37    1
    41     4    38    1
    42     5    39    1
    43     8    40    1
    44     9    41    1
    45    11    42    1
    46    11    43    1
    47    11    44    1
    48    14    45    1
    49    15    46    1
    50    16    47    1
    51    18    48    1
    52    18    49    1
    53    19    50    1
    54    19    51    1
    55    21    52    1
    56    21    53    1
    57    22    54    1
    58    22    55    1
    59    23    56    1
    60    23    57    1
    61    24    58    1
    62    26    59    1
    63    27    60    1
    64    28    61    1
    65    29    62    1
    66    30    63    1
