
     RDKit          3D

 63 66  0  0  0  0  0  0  0  0999 V2000
    0.4331   -2.9440   -2.0594 C   0  0  0  0  0  0  0  0  0  0  0  0
    0.3574   -2.2917   -0.6983 C   0  0  1  0  0  0  0  0  0  0  0  0
    1.6145   -1.5571   -0.4454 C   0  0  0  0  0  0  0  0  0  0  0  0
    2.6439   -2.0845    0.3460 C   0  0  0  0  0  0  0  0  0  0  0  0
    3.8129   -1.3927    0.5661 C   0  0  0  0  0  0  0  0  0  0  0  0
    4.0221   -0.1510    0.0180 C   0  0  0  0  0  0  0  0  0  0  0  0
    5.2820    0.5316    0.2891 C   0  0  0  0  0  0  0  0  0  0  0  0
    5.8603    1.3937   -0.6227 C   0  0  0  0  0  0  0  0  0  0  0  0
    7.0573    2.0193   -0.3215 C   0  0  0  0  0  0  0  0  0  0  0  0
    7.7079    1.8308    0.8401 N   0  0  0  0  0  0  0  0  0  0  0  0
    8.9676    2.4982    1.1394 C   0  0  0  0  0  0  0  0  0  0  0  0
    7.1524    0.9939    1.7329 C   0  0  0  0  0  0  0  0  0  0  0  0
    7.7681    0.8222    2.8198 O   0  0  0  0  0  0  0  0  0  0  0  0
    5.9532    0.3417    1.4794 C   0  0  0  0  0  0  0  0  0  0  0  0
    3.0372    0.3935   -0.7604 C   0  0  0  0  0  0  0  0  0  0  0  0
    1.8609   -0.3211   -0.9723 C   0  0  0  0  0  0  0  0  0  0  0  0
   -0.8496   -1.5564   -0.4930 N   0  0  0  0  0  0  0  0  0  0  0  0
   -1.3315   -0.4300   -1.2336 C   0  0  0  0  0  0  0  0  0  0  0  0
   -2.8496   -0.4527   -1.2477 C   0  0  0  0  0  0  0  0  0  0  0  0
   -3.4446   -0.3921    0.1008 C   0  0  2  0  0  0  0  0  0  0  0  0
   -4.7888   -1.1115    0.0401 C   0  0  0  0  0  0  0  0  0  0  0  0
   -5.6799   -0.4182   -0.9664 C   0  0  0  0  0  0  0  0  0  0  0  0
   -7.0353   -1.1119   -1.0564 C   0  0  0  0  0  0  0  0  0  0  0  0
   -6.8938   -2.4359   -1.4500 O   0  0  0  0  0  0  0  0  0  0  0  0
   -3.6410    0.9722    0.6200 C   0  0  0  0  0  0  0  0  0  0  0  0
   -4.2206    1.1528    1.8810 C   0  0  0  0  0  0  0  0  0  0  0  0
   -4.4045    2.4006    2.3756 C   0  0  0  0  0  0  0  0  0  0  0  0
   -4.0349    3.5027    1.6677 C   0  0  0  0  0  0  0  0  0  0  0  0
   -3.4630    3.3436    0.4249 C   0  0  0  0  0  0  0  0  0  0  0  0
   -3.2616    2.0656   -0.1096 C   0  0  0  0  0  0  0  0  0  0  0  0
   -2.6501   -1.0998    1.0715 O   0  0  0  0  0  0  0  0  0  0  0  0
   -1.7220   -1.9971    0.5766 C   0  0  0  0  0  0  0  0  0  0  0  0
   -1.5877   -3.1858    1.0047 O   0  0  0  0  0  0  0  0  0  0  0  0
   -0.4188   -3.6530   -2.2147 H   0  0  0  0  0  0  0  0  0  0  0  0
    0.3848   -2.2252   -2.8890 H   0  0  0  0  0  0  0  0  0  0  0  0
    1.3936   -3.4792   -2.1266 H   0  0  0  0  0  0  0  0  0  0  0  0
    0.3972   -3.1604    0.0381 H   0  0  0  0  0  0  0  0  0  0  0  0
    2.4686   -3.0629    0.7724 H   0  0  0  0  0  0  0  0  0  0  0  0
    4.6040   -1.8243    1.1880 H   0  0  0  0  0  0  0  0  0  0  0  0
    5.3383    1.5494   -1.5631 H   0  0  0  0  0  0  0  0  0  0  0  0
    7.5069    2.6993   -1.0496 H   0  0  0  0  0  0  0  0  0  0  0  0
    9.6171    1.7329    1.6102 H   0  0  0  0  0  0  0  0  0  0  0  0
    8.8299    3.2898    1.9319 H   0  0  0  0  0  0  0  0  0  0  0  0
    9.3822    2.9291    0.2286 H   0  0  0  0  0  0  0  0  0  0  0  0
    5.5301   -0.3259    2.2165 H   0  0  0  0  0  0  0  0  0  0  0  0
    3.1895    1.3674   -1.1962 H   0  0  0  0  0  0  0  0  0  0  0  0
    1.1510    0.1859   -1.6006 H   0  0  0  0  0  0  0  0  0  0  0  0
   -1.0226    0.4964   -0.7183 H   0  0  0  0  0  0  0  0  0  0  0  0
   -1.0074   -0.3741   -2.2854 H   0  0  0  0  0  0  0  0  0  0  0  0
   -3.2141    0.3100   -1.9386 H   0  0  0  0  0  0  0  0  0  0  0  0
   -3.0993   -1.4387   -1.7717 H   0  0  0  0  0  0  0  0  0  0  0  0
   -5.2960   -1.1601    1.0014 H   0  0  0  0  0  0  0  0  0  0  0  0
   -4.6022   -2.1458   -0.3123 H   0  0  0  0  0  0  0  0  0  0  0  0
   -5.8345    0.6498   -0.7147 H   0  0  0  0  0  0  0  0  0  0  0  0
   -5.2452   -0.4526   -1.9856 H   0  0  0  0  0  0  0  0  0  0  0  0
   -7.5671   -1.0910   -0.0707 H   0  0  0  0  0  0  0  0  0  0  0  0
   -7.6298   -0.6083   -1.8448 H   0  0  0  0  0  0  0  0  0  0  0  0
   -7.0129   -3.0724   -0.7026 H   0  0  0  0  0  0  0  0  0  0  0  0
   -4.5129    0.2655    2.4396 H   0  0  0  0  0  0  0  0  0  0  0  0
   -4.8533    2.5721    3.3546 H   0  0  0  0  0  0  0  0  0  0  0  0
   -4.1909    4.5042    2.0830 H   0  0  0  0  0  0  0  0  0  0  0  0
   -3.1583    4.1886   -0.1633 H   0  0  0  0  0  0  0  0  0  0  0  0
   -2.8002    2.0045   -1.1034 H   0  0  0  0  0  0  0  0  0  0  0  0
  1  2  1  0
  2  3  1  0
  3  4  2  0
  4  5  1  0
  5  6  2  0
  6  7  1  0
  7  8  1  0
  8  9  2  0
  9 10  1  0
 10 11  1  0
 10 12  1  0
 12 13  2  0
 12 14  1  0
  6 15  1  0
 15 16  2  0
  2 17  1  0
 17 18  1  0
 18 19  1  0
 19 20  1  0
 20 21  1  6
 21 22  1  0
 22 23  1  0
 23 24  1  0
 20 25  1  0
 25 26  2  0
 26 27  1  0
 27 28  2  0
 28 29  1  0
 29 30  2  0
 20 31  1  0
 31 32  1  0
 32 33  2  0
 16  3  1  0
 32 17  1  0
 14  7  2  0
 30 25  1  0
  1 34  1  0
  1 35  1  0
  1 36  1  0
  2 37  1  1
  4 38  1  0
  5 39  1  0
  8 40  1  0
  9 41  1  0
 11 42  1  0
 11 43  1  0
 11 44  1  0
 14 45  1  0
 15 46  1  0
 16 47  1  0
 18 48  1  0
 18 49  1  0
 19 50  1  0
 19 51  1  0
 21 52  1  0
 21 53  1  0
 22 54  1  0
 22 55  1  0
 23 56  1  0
 23 57  1  0
 24 58  1  0
 26 59  1  0
 27 60  1  0
 28 61  1  0
 29 62  1  0
 30 63  1  0
M  END
$$$$
