
     RDKit          3D

 44 46  0  0  0  0  0  0  0  0999 V2000
    5.5304    0.2707    2.7271 C   0  0  0  0  0  0  0  0  0  0  0  0
    4.7007    0.2102    1.5525 N   0  0  0  0  0  0  0  0  0  0  0  0
    3.6502   -0.6097    1.5173 C   0  0  0  0  0  0  0  0  0  0  0  0
    3.3204   -1.3650    2.4802 O   0  0  0  0  0  0  0  0  0  0  0  0
    2.8782   -0.6449    0.3823 C   0  0  0  0  0  0  0  0  0  0  0  0
    3.2037    0.1686   -0.7009 C   0  0  0  0  0  0  0  0  0  0  0  0
    2.2960   -0.0594   -1.6717 N   0  0  0  0  0  0  0  0  0  0  0  0
    1.4091   -0.9858   -1.2437 C   0  0  0  0  0  0  0  0  0  0  0  0
    0.0064   -1.6626   -2.1115 S   0  0  0  0  0  0  0  0  0  0  0  0
   -1.4938   -0.7191   -1.8450 C   0  0  0  0  0  0  0  0  0  0  0  0
   -1.9815   -0.7775   -0.4138 C   0  0  0  0  0  0  0  0  0  0  0  0
   -3.2332    0.0500   -0.3410 C   0  0  0  0  0  0  0  0  0  0  0  0
   -3.1932    1.3896   -0.0505 C   0  0  0  0  0  0  0  0  0  0  0  0
   -4.3586    2.1629    0.0178 C   0  0  0  0  0  0  0  0  0  0  0  0
   -5.5618    1.5479   -0.2147 C   0  0  0  0  0  0  0  0  0  0  0  0
   -5.6280    0.2185   -0.5052 C   0  0  0  0  0  0  0  0  0  0  0  0
   -6.9095   -0.4506   -0.7556 C   0  0  0  0  0  0  0  0  0  0  0  0
   -6.6912   -1.5534   -1.5601 F   0  0  0  0  0  0  0  0  0  0  0  0
   -7.5362   -0.8719    0.4145 F   0  0  0  0  0  0  0  0  0  0  0  0
   -7.7999    0.3998   -1.4193 F   0  0  0  0  0  0  0  0  0  0  0  0
   -4.4682   -0.5292   -0.5685 C   0  0  0  0  0  0  0  0  0  0  0  0
    1.7707   -1.3349    0.0038 N   0  0  0  0  0  0  0  0  0  0  0  0
    1.0961   -2.3007    0.8407 C   0  0  0  0  0  0  0  0  0  0  0  0
    4.2655    0.9811   -0.6339 N   0  0  0  0  0  0  0  0  0  0  0  0
    4.5877    1.8183   -1.7708 C   0  0  0  0  0  0  0  0  0  0  0  0
    4.9824    0.9748    0.4966 C   0  0  0  0  0  0  0  0  0  0  0  0
    5.9841    1.7643    0.5148 O   0  0  0  0  0  0  0  0  0  0  0  0
    5.2344    1.2009    3.2797 H   0  0  0  0  0  0  0  0  0  0  0  0
    6.5973    0.2980    2.4073 H   0  0  0  0  0  0  0  0  0  0  0  0
    5.3086   -0.5888    3.3815 H   0  0  0  0  0  0  0  0  0  0  0  0
   -1.3632    0.3113   -2.1738 H   0  0  0  0  0  0  0  0  0  0  0  0
   -2.2877   -1.1749   -2.4797 H   0  0  0  0  0  0  0  0  0  0  0  0
   -1.2540   -0.3972    0.3079 H   0  0  0  0  0  0  0  0  0  0  0  0
   -2.2849   -1.8013   -0.1219 H   0  0  0  0  0  0  0  0  0  0  0  0
   -2.2295    1.8304    0.1246 H   0  0  0  0  0  0  0  0  0  0  0  0
   -4.3247    3.2135    0.2462 H   0  0  0  0  0  0  0  0  0  0  0  0
   -6.4821    2.1127   -0.1705 H   0  0  0  0  0  0  0  0  0  0  0  0
   -4.5032   -1.5740   -0.7953 H   0  0  0  0  0  0  0  0  0  0  0  0
    1.8391   -2.8654    1.4375 H   0  0  0  0  0  0  0  0  0  0  0  0
    0.3990   -1.8322    1.5671 H   0  0  0  0  0  0  0  0  0  0  0  0
    0.5309   -3.0507    0.2474 H   0  0  0  0  0  0  0  0  0  0  0  0
    4.1223    1.4114   -2.6863 H   0  0  0  0  0  0  0  0  0  0  0  0
    4.1861    2.8541   -1.5748 H   0  0  0  0  0  0  0  0  0  0  0  0
    5.6852    1.9599   -1.8911 H   0  0  0  0  0  0  0  0  0  0  0  0
  1  2  1  0
  2  3  1  0
  3  4  2  0
  3  5  1  0
  5  6  2  0
  6  7  1  0
  7  8  2  0
  8  9  1  0
  9 10  1  0
 10 11  1  0
 11 12  1  0
 12 13  2  0
 13 14  1  0
 14 15  2  0
 15 16  1  0
 16 17  1  0
 17 18  1  0
 17 19  1  0
 17 20  1  0
 16 21  2  0
  8 22  1  0
 22 23  1  0
  6 24  1  0
 24 25  1  0
 24 26  1  0
 26 27  2  0
 26  2  1  0
 22  5  1  0
 21 12  1  0
  1 28  1  0
  1 29  1  0
  1 30  1  0
 10 31  1  0
 10 32  1  0
 11 33  1  0
 11 34  1  0
 13 35  1  0
 14 36  1  0
 15 37  1  0
 21 38  1  0
 23 39  1  0
 23 40  1  0
 23 41  1  0
 25 42  1  0
 25 43  1  0
 25 44  1  0
M  END
$$$$
