@<TRIPOS>MOLECULE
*****
 44 46 0 0 0
SMALL
GASTEIGER

@<TRIPOS>ATOM
      1 C           5.5304    0.2707    2.7271 C.3     1  UNL1        0.0196
      2 N           4.7007    0.2102    1.5525 N.ar    1  UNL1       -0.2622
      3 C           3.6502   -0.6097    1.5173 C.ar    1  UNL1        0.2822
      4 O           3.3204   -1.3650    2.4802 O.2     1  UNL1       -0.2652
      5 C           2.8782   -0.6449    0.3823 C.ar    1  UNL1        0.1520
      6 C           3.2037    0.1686   -0.7009 C.ar    1  UNL1        0.1690
      7 N           2.2960   -0.0594   -1.6717 N.ar    1  UNL1       -0.2036
      8 C           1.4091   -0.9858   -1.2437 C.ar    1  UNL1        0.1714
      9 S           0.0064   -1.6626   -2.1115 S.3     1  UNL1       -0.0873
     10 C          -1.4938   -0.7191   -1.8450 C.3     1  UNL1        0.0051
     11 C          -1.9815   -0.7775   -0.4138 C.3     1  UNL1       -0.0182
     12 C          -3.2332    0.0500   -0.3410 C.ar    1  UNL1       -0.0460
     13 C          -3.1932    1.3896   -0.0505 C.ar    1  UNL1       -0.0585
     14 C          -4.3586    2.1629    0.0178 C.ar    1  UNL1       -0.0610
     15 C          -5.5618    1.5479   -0.2147 C.ar    1  UNL1       -0.0501
     16 C          -5.6280    0.2185   -0.5052 C.ar    1  UNL1        0.0551
     17 C          -6.9095   -0.4506   -0.7556 C.3     1  UNL1        0.4174
     18 F          -6.6912   -1.5534   -1.5601 F       1  UNL1       -0.1659
     19 F          -7.5362   -0.8719    0.4145 F       1  UNL1       -0.1659
     20 F          -7.7999    0.3998   -1.4193 F       1  UNL1       -0.1659
     21 C          -4.4682   -0.5292   -0.5685 C.ar    1  UNL1       -0.0469
     22 N           1.7707   -1.3349    0.0038 N.ar    1  UNL1       -0.3163
     23 C           1.0961   -2.3007    0.8407 C.3     1  UNL1        0.0145
     24 N           4.2655    0.9811   -0.6339 N.ar    1  UNL1       -0.2795
     25 C           4.5877    1.8183   -1.7708 C.3     1  UNL1        0.0181
     26 C           4.9824    0.9748    0.4966 C.ar    1  UNL1        0.3331
     27 O           5.9841    1.7643    0.5148 O.2     1  UNL1       -0.2462
     28 H           5.2344    1.2009    3.2797 H       1  UNL1        0.0458
     29 H           6.5973    0.2980    2.4073 H       1  UNL1        0.0458
     30 H           5.3086   -0.5888    3.3815 H       1  UNL1        0.0458
     31 H          -1.3632    0.3113   -2.1738 H       1  UNL1        0.0384
     32 H          -2.2877   -1.1749   -2.4797 H       1  UNL1        0.0384
     33 H          -1.2540   -0.3972    0.3079 H       1  UNL1        0.0321
     34 H          -2.2849   -1.8013   -0.1219 H       1  UNL1        0.0321
     35 H          -2.2295    1.8304    0.1246 H       1  UNL1        0.0620
     36 H          -4.3247    3.2135    0.2462 H       1  UNL1        0.0618
     37 H          -6.4821    2.1127   -0.1705 H       1  UNL1        0.0623
     38 H          -4.5032   -1.5740   -0.7953 H       1  UNL1        0.0626
     39 H           1.8391   -2.8654    1.4375 H       1  UNL1        0.0456
     40 H           0.3990   -1.8322    1.5671 H       1  UNL1        0.0456
     41 H           0.5309   -3.0507    0.2474 H       1  UNL1        0.0456
     42 H           4.1223    1.4114   -2.6863 H       1  UNL1        0.0458
     43 H           4.1861    2.8541   -1.5748 H       1  UNL1        0.0458
     44 H           5.6852    1.9599   -1.8911 H       1  UNL1        0.0458
@<TRIPOS>BOND
     1     1     2    1
     2     2     3   ar
     3     3     4    2
     4     3     5   ar
     5     5     6   ar
     6     6     7   ar
     7     7     8   ar
     8     8     9    1
     9     9    10    1
    10    10    11    1
    11    11    12    1
    12    12    13   ar
    13    13    14   ar
    14    14    15   ar
    15    15    16   ar
    16    16    17    1
    17    17    18    1
    18    17    19    1
    19    17    20    1
    20    16    21   ar
    21     8    22   ar
    22    22    23    1
    23     6    24   ar
    24    24    25    1
    25    24    26   ar
    26    26    27    2
    27    26     2   ar
    28    22     5   ar
    29    21    12   ar
    30     1    28    1
    31     1    29    1
    32     1    30    1
    33    10    31    1
    34    10    32    1
    35    11    33    1
    36    11    34    1
    37    13    35    1
    38    14    36    1
    39    15    37    1
    40    21    38    1
    41    23    39    1
    42    23    40    1
    43    23    41    1
    44    25    42    1
    45    25    43    1
    46    25    44    1
