@<TRIPOS>MOLECULE
*****
 76 80 0 0 0
SMALL
GASTEIGER

@<TRIPOS>ATOM
      1 C           7.8985    4.8930   -1.7538 C.3     1  UNL1       -0.0397
      2 C           7.1974    3.6241   -1.3496 C.ar    1  UNL1       -0.0503
      3 C           6.7947    2.6970   -2.2797 C.ar    1  UNL1       -0.0568
      4 C           6.1545    1.5434   -1.8720 C.ar    1  UNL1       -0.0359
      5 C           5.8906    1.2627   -0.5574 C.ar    1  UNL1        0.0674
      6 N           5.2286    0.0585   -0.1894 N.ar    1  UNL1       -0.2181
      7 N           5.9090   -1.0651    0.0952 N.ar    1  UNL1       -0.1691
      8 C           5.0434   -2.0407    0.4122 C.ar    1  UNL1        0.0706
      9 C           5.4570   -3.4118    0.7786 C.3     1  UNL1        0.0063
     10 C           4.2580   -4.2656    1.0829 C.3     1  UNL1       -0.0546
     11 C           6.1702   -4.0202   -0.4075 C.3     1  UNL1       -0.0546
     12 C           6.4277   -3.3322    1.9230 C.3     1  UNL1       -0.0546
     13 C           3.7858   -1.4869    0.3162 C.ar    1  UNL1        0.0021
     14 C           3.9119   -0.1729   -0.0611 C.ar    1  UNL1        0.1299
     15 N           2.9072    0.7956   -0.2860 N.am    1  UNL1       -0.2538
     16 C           1.5290    0.5635   -0.1365 C.2     1  UNL1        0.3092
     17 O           1.1224   -0.5477    0.2215 O.2     1  UNL1       -0.2521
     18 N           0.5364    1.5627   -0.3804 N.am    1  UNL1       -0.2686
     19 C          -0.8539    1.3163   -0.2222 C.ar    1  UNL1        0.0427
     20 C          -1.6567    0.8300   -1.2241 C.ar    1  UNL1       -0.0364
     21 C          -3.0102    0.6188   -0.9900 C.ar    1  UNL1       -0.0176
     22 C          -3.5904    0.8860    0.2397 C.ar    1  UNL1        0.1283
     23 O          -4.9334    0.6899    0.5131 O.3     1  UNL1       -0.4901
     24 C          -5.8574    0.1992   -0.4122 C.3     1  UNL1        0.1023
     25 C          -7.2439    0.0803    0.1307 C.3     1  UNL1        0.0333
     26 N          -8.2016   -0.4184   -0.7948 N.3     1  UNL1       -0.2948
     27 C          -8.0456   -1.7825   -1.1750 C.3     1  UNL1        0.0225
     28 C          -9.3690   -2.2741   -1.7315 C.3     1  UNL1        0.0604
     29 O         -10.2990   -2.4593   -0.7069 O.3     1  UNL1       -0.3772
     30 C         -10.1022   -1.4922    0.2744 C.3     1  UNL1        0.0604
     31 C          -9.5582   -0.2114   -0.3298 C.3     1  UNL1        0.0225
     32 C          -2.7808    1.3726    1.2372 C.ar    1  UNL1        0.0256
     33 C          -3.3344    1.6456    2.4662 C.ar    1  UNL1       -0.0505
     34 C          -2.5773    2.1352    3.5066 C.ar    1  UNL1       -0.0611
     35 C          -1.2314    2.3439    3.2699 C.ar    1  UNL1       -0.0611
     36 C          -0.6758    2.0727    2.0459 C.ar    1  UNL1       -0.0521
     37 C          -1.4321    1.5823    1.0022 C.ar    1  UNL1        0.0069
     38 C           6.2972    2.1971    0.3711 C.ar    1  UNL1       -0.0359
     39 C           6.9376    3.3545   -0.0165 C.ar    1  UNL1       -0.0568
     40 H           8.3982    5.2829   -0.8193 H       1  UNL1        0.0278
     41 H           8.7276    4.6948   -2.4532 H       1  UNL1        0.0278
     42 H           7.1746    5.6238   -2.1578 H       1  UNL1        0.0278
     43 H           6.9718    2.8560   -3.3325 H       1  UNL1        0.0621
     44 H           5.8397    0.8159   -2.6150 H       1  UNL1        0.0639
     45 H           4.5930   -5.3222    1.2276 H       1  UNL1        0.0239
     46 H           3.6824   -3.8835    1.9393 H       1  UNL1        0.0239
     47 H           3.6255   -4.2730    0.1616 H       1  UNL1        0.0239
     48 H           7.1555   -3.5425   -0.5995 H       1  UNL1        0.0239
     49 H           5.5301   -3.9420   -1.3340 H       1  UNL1        0.0239
     50 H           6.3577   -5.0956   -0.2535 H       1  UNL1        0.0239
     51 H           6.9819   -2.3682    1.8005 H       1  UNL1        0.0239
     52 H           7.1758   -4.1381    1.9274 H       1  UNL1        0.0239
     53 H           5.9208   -3.2481    2.9115 H       1  UNL1        0.0239
     54 H           2.8573   -2.0382    0.5165 H       1  UNL1        0.0671
     55 H           3.1833    1.7737   -0.5950 H       1  UNL1        0.1578
     56 H           0.8970    2.5027   -0.6871 H       1  UNL1        0.1564
     57 H          -1.2451    0.6081   -2.1984 H       1  UNL1        0.0637
     58 H          -3.6816    0.2341   -1.7575 H       1  UNL1        0.0655
     59 H          -5.8988    0.9499   -1.2562 H       1  UNL1        0.0709
     60 H          -5.5235   -0.7444   -0.9104 H       1  UNL1        0.0709
     61 H          -7.2338   -0.5168    1.0665 H       1  UNL1        0.0460
     62 H          -7.5697    1.1058    0.4371 H       1  UNL1        0.0460
     63 H          -7.2810   -1.9662   -1.9486 H       1  UNL1        0.0449
     64 H          -7.7570   -2.3791   -0.2842 H       1  UNL1        0.0449
     65 H          -9.7625   -1.5531   -2.4541 H       1  UNL1        0.0572
     66 H          -9.2438   -3.2451   -2.2834 H       1  UNL1        0.0572
     67 H         -11.0744   -1.3214    0.7580 H       1  UNL1        0.0572
     68 H          -9.4238   -1.8887    1.0564 H       1  UNL1        0.0572
     69 H         -10.2260    0.1616   -1.1069 H       1  UNL1        0.0449
     70 H          -9.5730    0.5450    0.5040 H       1  UNL1        0.0449
     71 H          -4.3891    1.4819    2.6521 H       1  UNL1        0.0625
     72 H          -3.0051    2.3501    4.4690 H       1  UNL1        0.0618
     73 H          -0.6600    2.7298    4.1069 H       1  UNL1        0.0618
     74 H           0.3845    2.2598    1.9298 H       1  UNL1        0.0624
     75 H           6.1250    2.0476    1.4268 H       1  UNL1        0.0639
     76 H           7.2629    4.0992    0.7084 H       1  UNL1        0.0621
@<TRIPOS>BOND
     1     1     2    1
     2     2     3   ar
     3     3     4   ar
     4     4     5   ar
     5     5     6    1
     6     6     7   ar
     7     7     8   ar
     8     8     9    1
     9     9    10    1
    10     9    11    1
    11     9    12    1
    12     8    13   ar
    13    13    14   ar
    14    14    15    1
    15    15    16   am
    16    16    17    2
    17    16    18   am
    18    18    19    1
    19    19    20   ar
    20    20    21   ar
    21    21    22   ar
    22    22    23    1
    23    23    24    1
    24    24    25    1
    25    25    26    1
    26    26    27    1
    27    27    28    1
    28    28    29    1
    29    29    30    1
    30    30    31    1
    31    22    32   ar
    32    32    33   ar
    33    33    34   ar
    34    34    35   ar
    35    35    36   ar
    36    36    37   ar
    37     5    38   ar
    38    38    39   ar
    39    39     2   ar
    40    14     6   ar
    41    37    19   ar
    42    31    26    1
    43    37    32   ar
    44     1    40    1
    45     1    41    1
    46     1    42    1
    47     3    43    1
    48     4    44    1
    49    10    45    1
    50    10    46    1
    51    10    47    1
    52    11    48    1
    53    11    49    1
    54    11    50    1
    55    12    51    1
    56    12    52    1
    57    12    53    1
    58    13    54    1
    59    15    55    1
    60    18    56    1
    61    20    57    1
    62    21    58    1
    63    24    59    1
    64    24    60    1
    65    25    61    1
    66    25    62    1
    67    27    63    1
    68    27    64    1
    69    28    65    1
    70    28    66    1
    71    30    67    1
    72    30    68    1
    73    31    69    1
    74    31    70    1
    75    33    71    1
    76    34    72    1
    77    35    73    1
    78    36    74    1
    79    38    75    1
    80    39    76    1
