
     RDKit          3D

 45 49  0  0  0  0  0  0  0  0999 V2000
   -6.3311   -0.8321   -1.0888 C   0  0  0  0  0  0  0  0  0  0  0  0
   -4.9271   -0.5513   -0.8641 N   0  0  0  0  0  0  0  0  0  0  0  0
   -4.1454    0.1488   -1.6744 N   0  0  0  0  0  0  0  0  0  0  0  0
   -2.8866    0.2055   -1.1485 C   0  0  0  0  0  0  0  0  0  0  0  0
   -1.7247    0.8889   -1.7474 C   0  0  0  0  0  0  0  0  0  0  0  0
   -1.8462    1.5113   -2.9686 C   0  0  0  0  0  0  0  0  0  0  0  0
   -0.8242    2.1498   -3.5731 N   0  0  0  0  0  0  0  0  0  0  0  0
    0.3732    2.1812   -2.9527 C   0  0  0  0  0  0  0  0  0  0  0  0
    1.5743    2.7173   -3.2481 N   0  0  0  0  0  0  0  0  0  0  0  0
    2.4513    2.4555   -2.2560 C   0  0  0  0  0  0  0  0  0  0  0  0
    1.7926    1.7157   -1.2701 C   0  0  0  0  0  0  0  0  0  0  0  0
    2.4407    1.2530   -0.0330 C   0  0  0  0  0  0  0  0  0  0  0  0
    2.1891    1.7258    1.0772 O   0  0  0  0  0  0  0  0  0  0  0  0
    3.4152    0.1952   -0.1351 N   0  0  0  0  0  0  0  0  0  0  0  0
    4.1605   -0.3699    0.9091 C   0  0  1  0  0  0  0  0  0  0  0  0
    4.4041    0.4409    2.1798 C   0  0  0  0  0  0  0  0  0  0  0  0
    4.5610   -0.9355    2.8642 C   0  0  2  0  0  0  0  0  0  0  0  0
    5.8369   -1.4568    2.6772 O   0  0  0  0  0  0  0  0  0  0  0  0
    3.5977   -1.4541    1.7609 C   0  0  0  0  0  0  0  0  0  0  0  0
    0.5092    1.5630   -1.7307 C   0  0  0  0  0  0  0  0  0  0  0  0
   -0.5367    0.9199   -1.1331 N   0  0  0  0  0  0  0  0  0  0  0  0
   -2.9247   -0.4966    0.0305 C   0  0  0  0  0  0  0  0  0  0  0  0
   -1.9690   -0.7915    0.9766 C   0  0  0  0  0  0  0  0  0  0  0  0
   -2.2643   -1.5562    2.1062 C   0  0  0  0  0  0  0  0  0  0  0  0
   -3.5472   -2.0261    2.2776 C   0  0  0  0  0  0  0  0  0  0  0  0
   -3.8250   -2.7661    3.3707 F   0  0  0  0  0  0  0  0  0  0  0  0
   -4.5173   -1.7299    1.3248 C   0  0  0  0  0  0  0  0  0  0  0  0
   -4.2272   -0.9754    0.2069 C   0  0  0  0  0  0  0  0  0  0  0  0
   -6.5658   -1.8277   -0.5984 H   0  0  0  0  0  0  0  0  0  0  0  0
   -7.0080   -0.0947   -0.6718 H   0  0  0  0  0  0  0  0  0  0  0  0
   -6.4842   -1.0137   -2.1927 H   0  0  0  0  0  0  0  0  0  0  0  0
   -2.8236    1.4700   -3.4460 H   0  0  0  0  0  0  0  0  0  0  0  0
    1.7466    3.2471   -4.1228 H   0  0  0  0  0  0  0  0  0  0  0  0
    3.4902    2.7547   -2.1990 H   0  0  0  0  0  0  0  0  0  0  0  0
    3.5624   -0.1647   -1.1345 H   0  0  0  0  0  0  0  0  0  0  0  0
    5.2180   -0.6454    0.5583 H   0  0  0  0  0  0  0  0  0  0  0  0
    3.6271    1.0481    2.5808 H   0  0  0  0  0  0  0  0  0  0  0  0
    5.3982    0.9523    2.2245 H   0  0  0  0  0  0  0  0  0  0  0  0
    4.1176   -0.9714    3.8461 H   0  0  0  0  0  0  0  0  0  0  0  0
    6.4700   -0.7864    2.2887 H   0  0  0  0  0  0  0  0  0  0  0  0
    3.8577   -2.4934    1.4963 H   0  0  0  0  0  0  0  0  0  0  0  0
    2.5589   -1.3551    2.0987 H   0  0  0  0  0  0  0  0  0  0  0  0
   -0.9767   -0.4086    0.8018 H   0  0  0  0  0  0  0  0  0  0  0  0
   -1.4696   -1.7608    2.8115 H   0  0  0  0  0  0  0  0  0  0  0  0
   -5.5280   -2.0806    1.4308 H   0  0  0  0  0  0  0  0  0  0  0  0
  1  2  1  0
  2  3  1  0
  3  4  2  0
  4  5  1  0
  5  6  2  0
  6  7  1  0
  7  8  2  0
  8  9  1  0
  9 10  1  0
 10 11  2  0
 11 12  1  0
 12 13  2  0
 12 14  1  0
 14 15  1  0
 15 16  1  0
 16 17  1  0
 17 18  1  0
 17 19  1  0
 11 20  1  0
 20 21  2  0
  4 22  1  0
 22 23  2  0
 23 24  1  0
 24 25  2  0
 25 26  1  0
 25 27  1  0
 27 28  2  0
 28  2  1  0
 21  5  1  0
 28 22  1  0
 20  8  1  0
 19 15  1  0
  1 29  1  0
  1 30  1  0
  1 31  1  0
  6 32  1  0
  9 33  1  0
 10 34  1  0
 14 35  1  0
 15 36  1  6
 16 37  1  0
 16 38  1  0
 17 39  1  1
 18 40  1  0
 19 41  1  0
 19 42  1  0
 23 43  1  0
 24 44  1  0
 27 45  1  0
M  END
$$$$
