@<TRIPOS>MOLECULE
*****
 45 49 0 0 0
SMALL
GASTEIGER

@<TRIPOS>ATOM
      1 C          -6.3311   -0.8321   -1.0888 C.3     1  UNL1        0.0309
      2 N          -4.9271   -0.5513   -0.8641 N.ar    1  UNL1       -0.2660
      3 N          -4.1454    0.1488   -1.6744 N.ar    1  UNL1       -0.1687
      4 C          -2.8866    0.2055   -1.1485 C.ar    1  UNL1        0.1201
      5 C          -1.7247    0.8889   -1.7474 C.ar    1  UNL1        0.1104
      6 C          -1.8462    1.5113   -2.9686 C.ar    1  UNL1        0.0575
      7 N          -0.8242    2.1498   -3.5731 N.ar    1  UNL1       -0.2338
      8 C           0.3732    2.1812   -2.9527 C.ar    1  UNL1        0.1574
      9 N           1.5743    2.7173   -3.2481 N.ar    1  UNL1       -0.3438
     10 C           2.4513    2.4555   -2.2560 C.ar    1  UNL1        0.0178
     11 C           1.7926    1.7157   -1.2701 C.ar    1  UNL1        0.0815
     12 C           2.4407    1.2530   -0.0330 C.2     1  UNL1        0.2479
     13 O           2.1891    1.7258    1.0772 O.2     1  UNL1       -0.2701
     14 N           3.4152    0.1952   -0.1351 N.am    1  UNL1       -0.3082
     15 C           4.1605   -0.3699    0.9091 C.3     1  UNL1        0.0281
     16 C           4.4041    0.4409    2.1798 C.3     1  UNL1       -0.0082
     17 C           4.5610   -0.9355    2.8642 C.3     1  UNL1        0.0586
     18 O           5.8369   -1.4568    2.6772 O.3     1  UNL1       -0.3917
     19 C           3.5977   -1.4541    1.7609 C.3     1  UNL1       -0.0082
     20 C           0.5092    1.5630   -1.7307 C.ar    1  UNL1        0.1202
     21 N          -0.5367    0.9199   -1.1331 N.ar    1  UNL1       -0.2397
     22 C          -2.9247   -0.4966    0.0305 C.ar    1  UNL1        0.0293
     23 C          -1.9690   -0.7915    0.9766 C.ar    1  UNL1       -0.0477
     24 C          -2.2643   -1.5562    2.1062 C.ar    1  UNL1       -0.0257
     25 C          -3.5472   -2.0261    2.2776 C.ar    1  UNL1        0.1254
     26 F          -3.8250   -2.7661    3.3707 F       1  UNL1       -0.2054
     27 C          -4.5173   -1.7299    1.3248 C.ar    1  UNL1       -0.0008
     28 C          -4.2272   -0.9754    0.2069 C.ar    1  UNL1        0.0720
     29 H          -6.5658   -1.8277   -0.5984 H       1  UNL1        0.0473
     30 H          -7.0080   -0.0947   -0.6718 H       1  UNL1        0.0473
     31 H          -6.4842   -1.0137   -2.1927 H       1  UNL1        0.0473
     32 H          -2.8236    1.4700   -3.4460 H       1  UNL1        0.0853
     33 H           1.7466    3.2471   -4.1228 H       1  UNL1        0.1668
     34 H           3.4902    2.7547   -2.1990 H       1  UNL1        0.0816
     35 H           3.5624   -0.1647   -1.1345 H       1  UNL1        0.1493
     36 H           5.2180   -0.6454    0.5583 H       1  UNL1        0.0500
     37 H           3.6271    1.0481    2.5808 H       1  UNL1        0.0308
     38 H           5.3982    0.9523    2.2245 H       1  UNL1        0.0308
     39 H           4.1176   -0.9714    3.8461 H       1  UNL1        0.0594
     40 H           6.4700   -0.7864    2.2887 H       1  UNL1        0.2098
     41 H           3.8577   -2.4934    1.4963 H       1  UNL1        0.0308
     42 H           2.5589   -1.3551    2.0987 H       1  UNL1        0.0308
     43 H          -0.9767   -0.4086    0.8018 H       1  UNL1        0.0626
     44 H          -1.4696   -1.7608    2.8115 H       1  UNL1        0.0646
     45 H          -5.5280   -2.0806    1.4308 H       1  UNL1        0.0667
@<TRIPOS>BOND
     1     1     2    1
     2     2     3   ar
     3     3     4   ar
     4     4     5    1
     5     5     6   ar
     6     6     7   ar
     7     7     8   ar
     8     8     9   ar
     9     9    10   ar
    10    10    11   ar
    11    11    12    1
    12    12    13    2
    13    12    14   am
    14    14    15    1
    15    15    16    1
    16    16    17    1
    17    17    18    1
    18    17    19    1
    19    11    20   ar
    20    20    21   ar
    21     4    22   ar
    22    22    23   ar
    23    23    24   ar
    24    24    25   ar
    25    25    26    1
    26    25    27   ar
    27    27    28   ar
    28    28     2   ar
    29    21     5   ar
    30    28    22   ar
    31    20     8   ar
    32    19    15    1
    33     1    29    1
    34     1    30    1
    35     1    31    1
    36     6    32    1
    37     9    33    1
    38    10    34    1
    39    14    35    1
    40    15    36    1
    41    16    37    1
    42    16    38    1
    43    17    39    1
    44    18    40    1
    45    19    41    1
    46    19    42    1
    47    23    43    1
    48    24    44    1
    49    27    45    1
