@<TRIPOS>MOLECULE
*****
 49 53 0 0 0
SMALL
GASTEIGER

@<TRIPOS>ATOM
      1 C          -5.4609   -2.2443    0.0303 C.3     1  UNL1        0.0381
      2 O          -4.1095   -2.0641    0.2201 O.3     1  UNL1       -0.3652
      3 C          -3.7406   -0.7540    0.3927 C.3     1  UNL1        0.1424
      4 C          -4.0760    0.1178   -0.7457 C.ar    1  UNL1        0.1145
      5 N          -4.7090    1.0685   -1.0794 N.ar    1  UNL1       -0.2490
      6 C          -4.8356    1.6695   -2.2053 C.ar    1  UNL1        0.0352
      7 C          -4.1117    1.1328   -3.2430 C.ar    1  UNL1       -0.0045
      8 S          -3.2782   -0.2672   -2.4226 S.2     1  UNL1       -0.0774
      9 C          -4.3121   -0.1133    1.6278 C.3     1  UNL1       -0.0094
     10 C          -3.3514    1.0782    1.7391 C.3     1  UNL1       -0.0240
     11 C          -2.0618    0.3628    1.4942 C.ar    1  UNL1       -0.0407
     12 C          -0.7752    0.6094    1.9142 C.ar    1  UNL1       -0.0548
     13 C           0.2805   -0.2210    1.5545 C.ar    1  UNL1       -0.0196
     14 C           0.1003   -1.3324    0.7607 C.ar    1  UNL1        0.1214
     15 O           1.0577   -2.2008    0.3531 O.3     1  UNL1       -0.4874
     16 C           2.3957   -2.3187    0.5148 C.3     1  UNL1        0.1146
     17 C           3.2502   -1.2399   -0.0182 C.ar    1  UNL1       -0.0098
     18 C           3.5471   -1.2570   -1.3837 C.ar    1  UNL1       -0.0548
     19 C           4.3554   -0.3189   -1.9610 C.ar    1  UNL1       -0.0537
     20 C           4.9160    0.6894   -1.2197 C.ar    1  UNL1       -0.0179
     21 C           5.7421    1.6515   -1.8034 C.ar    1  UNL1       -0.0540
     22 C           6.2927    2.6557   -1.0336 C.ar    1  UNL1       -0.0612
     23 C           5.9998    2.6746    0.3221 C.ar    1  UNL1       -0.0612
     24 C           5.1866    1.7286    0.8993 C.ar    1  UNL1       -0.0540
     25 C           4.6378    0.7259    0.1266 C.ar    1  UNL1       -0.0175
     26 C           3.8133   -0.2304    0.7182 C.ar    1  UNL1       -0.0476
     27 C          -1.2357   -1.5559    0.3467 C.ar    1  UNL1       -0.0134
     28 C          -2.2752   -0.7369    0.7020 C.ar    1  UNL1       -0.0029
     29 H          -5.8424   -1.7095   -0.8685 H       1  UNL1        0.0524
     30 H          -5.6255   -3.3239   -0.1640 H       1  UNL1        0.0524
     31 H          -6.0806   -1.9542    0.8931 H       1  UNL1        0.0524
     32 H          -5.4861    2.5764   -2.3678 H       1  UNL1        0.0835
     33 H          -4.0019    1.4037   -4.3082 H       1  UNL1        0.0709
     34 H          -5.3543    0.2178    1.5128 H       1  UNL1        0.0303
     35 H          -4.1671   -0.8153    2.4736 H       1  UNL1        0.0303
     36 H          -3.5755    1.7465    0.8876 H       1  UNL1        0.0314
     37 H          -3.3922    1.5473    2.7192 H       1  UNL1        0.0314
     38 H          -0.5891    1.4683    2.5363 H       1  UNL1        0.0622
     39 H           1.2818   -0.0164    1.9037 H       1  UNL1        0.0654
     40 H           2.6517   -2.3560    1.6332 H       1  UNL1        0.0748
     41 H           2.7593   -3.3264    0.1627 H       1  UNL1        0.0748
     42 H           3.1295   -2.0307   -2.0076 H       1  UNL1        0.0622
     43 H           4.5994   -0.3149   -3.0263 H       1  UNL1        0.0624
     44 H           5.9384    1.5899   -2.8675 H       1  UNL1        0.0624
     45 H           6.9330    3.4039   -1.4778 H       1  UNL1        0.0618
     46 H           6.4350    3.4644    0.9170 H       1  UNL1        0.0618
     47 H           4.9467    1.7266    1.9543 H       1  UNL1        0.0624
     48 H           3.6114   -0.1926    1.7927 H       1  UNL1        0.0627
     49 H          -1.4140   -2.4152   -0.2743 H       1  UNL1        0.0658
@<TRIPOS>BOND
     1     1     2    1
     2     2     3    1
     3     3     4    1
     4     4     5   ar
     5     5     6   ar
     6     6     7   ar
     7     7     8   ar
     8     3     9    1
     9     9    10    1
    10    10    11    1
    11    11    12   ar
    12    12    13   ar
    13    13    14   ar
    14    14    15    1
    15    15    16    1
    16    16    17    1
    17    17    18   ar
    18    18    19   ar
    19    19    20   ar
    20    20    21   ar
    21    21    22   ar
    22    22    23   ar
    23    23    24   ar
    24    24    25   ar
    25    25    26   ar
    26    14    27   ar
    27    27    28   ar
    28    28     3    1
    29     8     4   ar
    30    28    11   ar
    31    26    17   ar
    32    25    20   ar
    33     1    29    1
    34     1    30    1
    35     1    31    1
    36     6    32    1
    37     7    33    1
    38     9    34    1
    39     9    35    1
    40    10    36    1
    41    10    37    1
    42    12    38    1
    43    13    39    1
    44    16    40    1
    45    16    41    1
    46    18    42    1
    47    19    43    1
    48    21    44    1
    49    22    45    1
    50    23    46    1
    51    24    47    1
    52    26    48    1
    53    27    49    1
