
     RDKit          3D

 27 26  0  0  0  0  0  0  0  0999 V2000
   -4.4799   -0.1956    0.0252 N   0  0  0  0  0  0  0  0  0  0  0  0
   -3.7365   -0.9138   -0.9795 C   0  0  0  0  0  0  0  0  0  0  0  0
   -2.2429   -0.8318   -0.6924 C   0  0  0  0  0  0  0  0  0  0  0  0
   -1.7753    0.6021   -0.7002 C   0  0  0  0  0  0  0  0  0  0  0  0
   -0.3916    0.6644   -0.4450 N   0  0  0  0  0  0  0  0  0  0  0  0
    0.0747    0.3190    0.8368 C   0  0  0  0  0  0  0  0  0  0  0  0
    1.5633    0.5049    1.0254 C   0  0  0  0  0  0  0  0  0  0  0  0
    2.5854   -0.4560   -0.0789 S   0  0  0  0  0  0  0  0  0  0  0  0
    4.6438   -0.0203    0.2857 P   0  0  0  0  0  0  0  0  0  0  0  0
    5.2610   -1.0498    1.4419 O   0  0  0  0  0  0  0  0  0  0  0  0
    5.5299   -0.1646   -1.1593 O   0  0  0  0  0  0  0  0  0  0  0  0
    4.7819    1.4458    0.6991 O   0  0  0  0  0  0  0  0  0  0  0  0
   -5.4979   -0.4013   -0.1346 H   0  0  0  0  0  0  0  0  0  0  0  0
   -4.2129   -0.5241    0.9748 H   0  0  0  0  0  0  0  0  0  0  0  0
   -4.0247   -1.9769   -0.9557 H   0  0  0  0  0  0  0  0  0  0  0  0
   -3.9714   -0.5184   -1.9796 H   0  0  0  0  0  0  0  0  0  0  0  0
   -2.0552   -1.3494    0.2687 H   0  0  0  0  0  0  0  0  0  0  0  0
   -1.6996   -1.3770   -1.4921 H   0  0  0  0  0  0  0  0  0  0  0  0
   -2.4032    1.1851    0.0385 H   0  0  0  0  0  0  0  0  0  0  0  0
   -2.0253    1.0023   -1.7051 H   0  0  0  0  0  0  0  0  0  0  0  0
    0.2204    1.1453   -1.0966 H   0  0  0  0  0  0  0  0  0  0  0  0
   -0.4531    0.8061    1.6794 H   0  0  0  0  0  0  0  0  0  0  0  0
   -0.1035   -0.7795    0.9682 H   0  0  0  0  0  0  0  0  0  0  0  0
    1.7849    0.2538    2.0638 H   0  0  0  0  0  0  0  0  0  0  0  0
    1.7555    1.5892    0.8562 H   0  0  0  0  0  0  0  0  0  0  0  0
    5.8255   -0.5526    2.1048 H   0  0  0  0  0  0  0  0  0  0  0  0
    5.0469    0.3824   -1.8495 H   0  0  0  0  0  0  0  0  0  0  0  0
  1  2  1  0
  2  3  1  0
  3  4  1  0
  4  5  1  0
  5  6  1  0
  6  7  1  0
  7  8  1  0
  8  9  1  0
  9 10  1  0
  9 11  1  0
  9 12  2  0
  1 13  1  0
  1 14  1  0
  2 15  1  0
  2 16  1  0
  3 17  1  0
  3 18  1  0
  4 19  1  0
  4 20  1  0
  5 21  1  0
  6 22  1  0
  6 23  1  0
  7 24  1  0
  7 25  1  0
 10 26  1  0
 11 27  1  0
M  END
$$$$
