@<TRIPOS>MOLECULE
*****
 66 69 0 0 0
SMALL
GASTEIGER

@<TRIPOS>ATOM
      1 C           0.4191   -0.1715   -3.1808 C.3     1  UNL1       -0.0421
      2 C           0.5706   -0.9785   -1.9107 C.3     1  UNL1        0.0515
      3 C           1.8553   -0.6313   -1.2741 C.ar    1  UNL1       -0.0271
      4 C           2.1087    0.4279   -0.4567 C.ar    1  UNL1       -0.0562
      5 C           3.3747    0.6499    0.0737 C.ar    1  UNL1       -0.0537
      6 C           4.4249   -0.1676   -0.1883 C.ar    1  UNL1       -0.0165
      7 C           5.7600    0.0093    0.3274 C.ar    1  UNL1       -0.0015
      8 C           6.5677   -1.0714    0.5775 C.ar    1  UNL1       -0.0475
      9 C           7.8604   -0.9018    1.0741 C.ar    1  UNL1        0.0036
     10 C           8.2906    0.3833    1.3018 C.ar    1  UNL1        0.2511
     11 O           9.4703    0.5840    1.7572 O.2     1  UNL1       -0.2677
     12 N           7.5111    1.4512    1.0618 N.ar    1  UNL1       -0.3177
     13 C           8.0238    2.7769    1.3225 C.3     1  UNL1        0.0147
     14 C           6.2556    1.2643    0.5783 C.ar    1  UNL1        0.0153
     15 C           4.2030   -1.2587   -1.0188 C.ar    1  UNL1       -0.0537
     16 C           2.9376   -1.4698   -1.5414 C.ar    1  UNL1       -0.0562
     17 N          -0.5961   -0.8800   -1.1256 N.am    1  UNL1       -0.2605
     18 C          -1.1197    0.3758   -0.6752 C.3     1  UNL1        0.0224
     19 C          -2.6490    0.2989   -0.8733 C.3     1  UNL1        0.0076
     20 C          -3.2419   -0.6512    0.1000 C.3     1  UNL1        0.1440
     21 C          -4.4847   -1.3316   -0.3975 C.3     1  UNL1        0.0199
     22 C          -5.6480   -0.5181   -0.7667 C.3     1  UNL1        0.0645
     23 C          -6.2185    0.3381    0.3582 C.3     1  UNL1       -0.0362
     24 C          -5.5476    0.2415   -2.0499 C.3     1  UNL1       -0.0362
     25 O          -6.6855   -1.4739   -0.9908 O.3     1  UNL1       -0.3890
     26 C          -3.3716   -0.0816    1.4376 C.ar    1  UNL1       -0.0039
     27 C          -3.8394   -0.8482    2.5089 C.ar    1  UNL1       -0.0521
     28 C          -3.9749   -0.3330    3.7739 C.ar    1  UNL1       -0.0261
     29 C          -3.6541    0.9615    4.0355 C.ar    1  UNL1        0.1234
     30 F          -3.7784    1.4986    5.2798 F       1  UNL1       -0.2055
     31 C          -3.1899    1.7495    3.0077 C.ar    1  UNL1       -0.0261
     32 C          -3.0567    1.2189    1.7318 C.ar    1  UNL1       -0.0521
     33 O          -2.3223   -1.7576    0.2352 O.3     1  UNL1       -0.4387
     34 C          -1.3632   -2.0238   -0.7587 C.2     1  UNL1        0.4042
     35 O          -1.1858   -3.1444   -1.2798 O.2     1  UNL1       -0.2262
     36 H           0.5642    0.9015   -3.0100 H       1  UNL1        0.0251
     37 H          -0.5154   -0.4162   -3.7221 H       1  UNL1        0.0251
     38 H           1.2508   -0.4791   -3.8808 H       1  UNL1        0.0251
     39 H           0.6979   -2.0805   -2.2138 H       1  UNL1        0.0549
     40 H           1.3014    1.1136   -0.2164 H       1  UNL1        0.0621
     41 H           3.5129    1.5059    0.7141 H       1  UNL1        0.0624
     42 H           6.2221   -2.0899    0.3966 H       1  UNL1        0.0626
     43 H           8.5202   -1.7170    1.2818 H       1  UNL1        0.0672
     44 H           7.3504    3.5438    0.8438 H       1  UNL1        0.0457
     45 H           9.0194    2.9480    0.8528 H       1  UNL1        0.0457
     46 H           8.0712    3.0139    2.4020 H       1  UNL1        0.0457
     47 H           5.6676    2.1369    0.4004 H       1  UNL1        0.0816
     48 H           5.0331   -1.9230   -1.2400 H       1  UNL1        0.0624
     49 H           2.8533   -2.3414   -2.1785 H       1  UNL1        0.0621
     50 H          -0.7361    1.2498   -1.2532 H       1  UNL1        0.0467
     51 H          -0.8839    0.4702    0.3944 H       1  UNL1        0.0467
     52 H          -3.0704    1.2936   -0.9294 H       1  UNL1        0.0322
     53 H          -2.7571   -0.1450   -1.9036 H       1  UNL1        0.0322
     54 H          -4.7901   -2.0618    0.3923 H       1  UNL1        0.0335
     55 H          -4.1914   -1.9477   -1.2713 H       1  UNL1        0.0335
     56 H          -5.6820    1.2612    0.5261 H       1  UNL1        0.0257
     57 H          -7.2453    0.6280    0.0186 H       1  UNL1        0.0257
     58 H          -6.3779   -0.3133    1.2323 H       1  UNL1        0.0257
     59 H          -5.2331    1.2959   -1.9341 H       1  UNL1        0.0257
     60 H          -6.5934    0.3285   -2.4712 H       1  UNL1        0.0257
     61 H          -4.9828   -0.3361   -2.7767 H       1  UNL1        0.0257
     62 H          -6.6501   -2.1912   -0.3310 H       1  UNL1        0.2101
     63 H          -4.1058   -1.8849    2.3413 H       1  UNL1        0.0622
     64 H          -4.3432   -0.9631    4.5835 H       1  UNL1        0.0646
     65 H          -2.9180    2.7848    3.1478 H       1  UNL1        0.0646
     66 H          -2.6942    1.8787    0.9628 H       1  UNL1        0.0622
@<TRIPOS>BOND
     1     1     2    1
     2     2     3    1
     3     3     4   ar
     4     4     5   ar
     5     5     6   ar
     6     6     7    1
     7     7     8   ar
     8     8     9   ar
     9     9    10   ar
    10    10    11    2
    11    10    12   ar
    12    12    13    1
    13    12    14   ar
    14     6    15   ar
    15    15    16   ar
    16     2    17    1
    17    17    18    1
    18    18    19    1
    19    19    20    1
    20    20    21    1
    21    21    22    1
    22    22    23    1
    23    22    24    1
    24    22    25    1
    25    20    26    1
    26    26    27   ar
    27    27    28   ar
    28    28    29   ar
    29    29    30    1
    30    29    31   ar
    31    31    32   ar
    32    20    33    1
    33    33    34    1
    34    34    35    2
    35    16     3   ar
    36    34    17   am
    37    14     7   ar
    38    32    26   ar
    39     1    36    1
    40     1    37    1
    41     1    38    1
    42     2    39    1
    43     4    40    1
    44     5    41    1
    45     8    42    1
    46     9    43    1
    47    13    44    1
    48    13    45    1
    49    13    46    1
    50    14    47    1
    51    15    48    1
    52    16    49    1
    53    18    50    1
    54    18    51    1
    55    19    52    1
    56    19    53    1
    57    21    54    1
    58    21    55    1
    59    23    56    1
    60    23    57    1
    61    23    58    1
    62    24    59    1
    63    24    60    1
    64    24    61    1
    65    25    62    1
    66    27    63    1
    67    28    64    1
    68    31    65    1
    69    32    66    1
