@<TRIPOS>MOLECULE
*****
 53 55 0 0 0
SMALL
GASTEIGER

@<TRIPOS>ATOM
      1 O           1.6212   -2.1412    0.5672 O.2     1  UNL1       -0.2450
      2 C           1.0957   -1.6873   -0.4744 C.2     1  UNL1        0.3394
      3 O           1.7756   -1.7963   -1.6678 O.3     1  UNL1       -0.4611
      4 C           3.0340   -2.3886   -1.7955 C.3     1  UNL1        0.0931
      5 C           4.0885   -1.7097   -0.9852 C.3     1  UNL1       -0.0145
      6 C           4.2427   -0.2607   -1.4000 C.3     1  UNL1       -0.0246
      7 C           5.3023    0.3459   -0.5557 C.ar    1  UNL1       -0.0470
      8 C           4.9894    0.9565    0.6568 C.ar    1  UNL1       -0.0551
      9 C           5.9588    1.5234    1.4513 C.ar    1  UNL1       -0.0199
     10 C           7.2824    1.5108    1.0801 C.ar    1  UNL1        0.1169
     11 O           8.2588    2.0840    1.8846 O.3     1  UNL1       -0.5068
     12 C           7.6081    0.9058   -0.1253 C.ar    1  UNL1       -0.0199
     13 C           6.6305    0.3365   -0.9221 C.ar    1  UNL1       -0.0551
     14 C          -0.2216   -1.0434   -0.4619 C.ar    1  UNL1        0.0659
     15 C          -0.7736   -0.5538   -1.6259 C.ar    1  UNL1       -0.0053
     16 C          -1.9992    0.0445   -1.6136 C.ar    1  UNL1        0.1320
     17 O          -2.5760    0.5504   -2.8009 O.3     1  UNL1       -0.5059
     18 C          -2.7407    0.1860   -0.4355 C.ar    1  UNL1        0.1050
     19 C          -3.9742    0.9249   -0.4805 C.2     1  UNL1        0.2044
     20 O          -4.0697    1.7820   -1.4498 O.2     1  UNL1       -0.2863
     21 C          -5.1134    0.8654    0.3942 C.ar    1  UNL1        0.0778
     22 C          -5.7617    2.0782    0.7296 C.ar    1  UNL1        0.1285
     23 O          -5.2114    3.2388    0.2059 O.3     1  UNL1       -0.5060
     24 C          -6.8639    2.1673    1.5150 C.ar    1  UNL1       -0.0194
     25 C          -7.3951    1.0073    2.0250 C.ar    1  UNL1       -0.0575
     26 C          -6.8017   -0.1707    1.7208 C.ar    1  UNL1       -0.0468
     27 C          -5.6498   -0.2737    0.8961 C.ar    1  UNL1        0.0731
     28 C          -5.2440   -1.5972    0.4795 C.2     1  UNL1        0.3376
     29 O          -4.4523   -1.8404   -0.4305 O.2     1  UNL1       -0.2451
     30 O          -5.7715   -2.7196    1.1407 O.3     1  UNL1       -0.4771
     31 C          -2.1881   -0.3076    0.7562 C.ar    1  UNL1        0.1320
     32 O          -2.8945   -0.1773    1.9399 O.3     1  UNL1       -0.5059
     33 C          -0.9549   -0.9005    0.6919 C.ar    1  UNL1       -0.0053
     34 H           2.9598   -3.4520   -1.5071 H       1  UNL1        0.0697
     35 H           3.3162   -2.3206   -2.8860 H       1  UNL1        0.0697
     36 H           3.8578   -1.7374    0.0796 H       1  UNL1        0.0301
     37 H           5.0633   -2.2377   -1.2002 H       1  UNL1        0.0301
     38 H           3.3033    0.2960   -1.2483 H       1  UNL1        0.0314
     39 H           4.5240   -0.1843   -2.4828 H       1  UNL1        0.0314
     40 H           3.9427    0.9574    0.9335 H       1  UNL1        0.0621
     41 H           5.6880    1.9887    2.3838 H       1  UNL1        0.0654
     42 H           9.2300    1.8132    1.7029 H       1  UNL1        0.2921
     43 H           8.6510    0.8999   -0.4103 H       1  UNL1        0.0654
     44 H           6.9245   -0.1224   -1.8488 H       1  UNL1        0.0621
     45 H          -0.2293   -0.6410   -2.5792 H       1  UNL1        0.0662
     46 H          -1.9242    1.1326   -3.3461 H       1  UNL1        0.2922
     47 H          -5.4786    3.5225   -0.7262 H       1  UNL1        0.2922
     48 H          -7.3458    3.1202    1.7586 H       1  UNL1        0.0654
     49 H          -8.2793    1.0431    2.6628 H       1  UNL1        0.0619
     50 H          -7.1944   -1.1100    2.1075 H       1  UNL1        0.0626
     51 H          -5.2270   -3.5742    1.2460 H       1  UNL1        0.2954
     52 H          -2.4904   -0.0538    2.8402 H       1  UNL1        0.2922
     53 H          -0.5225   -1.2853    1.6101 H       1  UNL1        0.0662
@<TRIPOS>BOND
     1     1     2    2
     2     2     3    1
     3     3     4    1
     4     4     5    1
     5     5     6    1
     6     6     7    1
     7     7     8   ar
     8     8     9   ar
     9     9    10   ar
    10    10    11    1
    11    10    12   ar
    12    12    13   ar
    13     2    14    1
    14    14    15   ar
    15    15    16   ar
    16    16    17    1
    17    16    18   ar
    18    18    19    1
    19    19    20    2
    20    19    21    1
    21    21    22   ar
    22    22    23    1
    23    22    24   ar
    24    24    25   ar
    25    25    26   ar
    26    26    27   ar
    27    27    28    1
    28    28    29    2
    29    28    30    1
    30    18    31   ar
    31    31    32    1
    32    31    33   ar
    33    13     7   ar
    34    33    14   ar
    35    27    21   ar
    36     4    34    1
    37     4    35    1
    38     5    36    1
    39     5    37    1
    40     6    38    1
    41     6    39    1
    42     8    40    1
    43     9    41    1
    44    11    42    1
    45    12    43    1
    46    13    44    1
    47    15    45    1
    48    17    46    1
    49    23    47    1
    50    24    48    1
    51    25    49    1
    52    26    50    1
    53    30    51    1
    54    32    52    1
    55    33    53    1
