@<TRIPOS>MOLECULE
*****
 48 51 0 0 0
SMALL
GASTEIGER

@<TRIPOS>ATOM
      1 F          -6.3091   -1.5223   -2.5632 F       1  UNL1       -0.1659
      2 C          -5.2266   -1.2409   -1.7008 C.3     1  UNL1        0.4180
      3 F          -4.6575   -2.4587   -1.4262 F       1  UNL1       -0.1659
      4 F          -4.3782   -0.4197   -2.4366 F       1  UNL1       -0.1659
      5 C          -5.7708   -0.5356   -0.5134 C.ar    1  UNL1        0.0625
      6 C          -7.1568   -0.2908   -0.4390 C.ar    1  UNL1       -0.0495
      7 C          -7.7120    0.3774    0.6140 C.ar    1  UNL1       -0.0612
      8 C          -6.8589    0.8164    1.6266 C.ar    1  UNL1       -0.0612
      9 C          -5.5096    0.5767    1.5530 C.ar    1  UNL1       -0.0535
     10 C          -4.9324   -0.1076    0.4779 C.ar    1  UNL1       -0.0062
     11 C          -3.5069   -0.3638    0.4561 C.ar    1  UNL1       -0.0153
     12 C          -2.9033   -1.5747    0.6428 C.ar    1  UNL1       -0.0519
     13 C          -1.5252   -1.7191    0.5722 C.ar    1  UNL1       -0.0337
     14 C          -0.6985   -0.6286    0.3077 C.ar    1  UNL1        0.0895
     15 N           0.6262   -0.4778    0.1854 N.ar    1  UNL1       -0.2284
     16 C           0.8996    0.8099   -0.0769 C.ar    1  UNL1        0.1318
     17 C           2.2402    1.4061   -0.2843 C.2     1  UNL1       -0.0230
     18 C           3.2855    0.6245   -0.2109 C.2     1  UNL1       -0.0775
     19 C           4.6431    1.2065   -0.4168 C.3     1  UNL1       -0.0225
     20 C           5.4304    1.0583    0.8495 C.3     1  UNL1       -0.0468
     21 C           6.4220   -0.0607    0.8204 C.3     1  UNL1       -0.0525
     22 C           5.9606   -1.2549    0.0521 C.3     1  UNL1       -0.0530
     23 C           5.4081   -0.9445   -1.3007 C.3     1  UNL1       -0.0525
     24 C           5.2744    0.5194   -1.5894 C.3     1  UNL1       -0.0468
     25 N          -0.2782    1.4507   -0.1143 N.ar    1  UNL1       -0.3383
     26 C          -1.2877    0.5957    0.1184 C.ar    1  UNL1        0.0670
     27 C          -2.6644    0.7162    0.1930 C.ar    1  UNL1       -0.0285
     28 H          -7.7923   -0.6414   -1.2358 H       1  UNL1        0.0623
     29 H          -8.7793    0.5512    0.6448 H       1  UNL1        0.0618
     30 H          -7.3265    1.3457    2.4526 H       1  UNL1        0.0618
     31 H          -4.8478    0.9115    2.3283 H       1  UNL1        0.0624
     32 H          -3.4954   -2.4392    0.8717 H       1  UNL1        0.0624
     33 H          -1.0296   -2.6670    0.7159 H       1  UNL1        0.0640
     34 H           2.2926    2.4658   -0.4879 H       1  UNL1        0.0651
     35 H           3.1993   -0.4184   -0.0080 H       1  UNL1        0.0576
     36 H           4.5658    2.2972   -0.6678 H       1  UNL1        0.0343
     37 H           5.9756    2.0118    1.0884 H       1  UNL1        0.0271
     38 H           4.7212    0.9252    1.7118 H       1  UNL1        0.0271
     39 H           6.5712   -0.3966    1.8873 H       1  UNL1        0.0265
     40 H           7.4426    0.2754    0.4878 H       1  UNL1        0.0265
     41 H           6.8235   -1.9613   -0.0234 H       1  UNL1        0.0265
     42 H           5.1797   -1.7762    0.6743 H       1  UNL1        0.0265
     43 H           6.0291   -1.3986   -2.1125 H       1  UNL1        0.0265
     44 H           4.3906   -1.4110   -1.4282 H       1  UNL1        0.0265
     45 H           6.2221    0.9975   -1.9110 H       1  UNL1        0.0271
     46 H           4.5602    0.6191   -2.4473 H       1  UNL1        0.0271
     47 H          -0.4196    2.4657   -0.2958 H       1  UNL1        0.1674
     48 H          -3.0973    1.6857    0.0408 H       1  UNL1        0.0645
@<TRIPOS>BOND
     1     1     2    1
     2     2     3    1
     3     2     4    1
     4     2     5    1
     5     5     6   ar
     6     6     7   ar
     7     7     8   ar
     8     8     9   ar
     9     9    10   ar
    10    10    11    1
    11    11    12   ar
    12    12    13   ar
    13    13    14   ar
    14    14    15   ar
    15    15    16   ar
    16    16    17    1
    17    17    18    2
    18    18    19    1
    19    19    20    1
    20    20    21    1
    21    21    22    1
    22    22    23    1
    23    23    24    1
    24    16    25   ar
    25    25    26   ar
    26    26    27   ar
    27    10     5   ar
    28    27    11   ar
    29    26    14   ar
    30    24    19    1
    31     6    28    1
    32     7    29    1
    33     8    30    1
    34     9    31    1
    35    12    32    1
    36    13    33    1
    37    17    34    1
    38    18    35    1
    39    19    36    1
    40    20    37    1
    41    20    38    1
    42    21    39    1
    43    21    40    1
    44    22    41    1
    45    22    42    1
    46    23    43    1
    47    23    44    1
    48    24    45    1
    49    24    46    1
    50    25    47    1
    51    27    48    1
