@<TRIPOS>MOLECULE
*****
 57 62 0 0 0
SMALL
GASTEIGER

@<TRIPOS>ATOM
      1 C           8.8511    0.4728    0.0728 C.3     1  UNL1       -0.0128
      2 N           8.0502   -0.6915    0.3795 N.3     1  UNL1       -0.3051
      3 C           7.3203   -0.4504    1.5960 C.3     1  UNL1        0.0019
      4 C           6.3357    0.6716    1.5049 C.3     1  UNL1       -0.0029
      5 C           5.4398    0.5692    0.2786 C.3     1  UNL1        0.1026
      6 O           4.5505   -0.4802    0.4030 O.3     1  UNL1       -0.4872
      7 C           3.1867   -0.4211    0.3874 C.ar    1  UNL1        0.1389
      8 C           2.4683   -1.6158    0.5311 C.ar    1  UNL1       -0.0164
      9 C           1.0800   -1.6044    0.5213 C.ar    1  UNL1       -0.0321
     10 C           0.3539   -0.4548    0.3745 C.ar    1  UNL1        0.0741
     11 C          -1.0835   -0.4654    0.3671 C.ar    1  UNL1        0.0366
     12 C          -1.8323    0.7079    0.2171 C.ar    1  UNL1        0.0406
     13 N          -3.1722    0.6927    0.2110 N.ar    1  UNL1       -0.2349
     14 C          -3.8544   -0.4460    0.3482 C.ar    1  UNL1        0.1632
     15 C          -5.2084   -0.7058    0.3724 C.ar    1  UNL1        0.0466
     16 C          -6.3259    0.2159    0.2515 C.ar    1  UNL1       -0.0037
     17 C          -6.8958    0.8257    1.3733 C.ar    1  UNL1       -0.0532
     18 C          -7.9503    1.6979    1.2805 C.ar    1  UNL1       -0.0591
     19 C          -8.4600    1.9770    0.0288 C.ar    1  UNL1       -0.0357
     20 C          -7.9381    1.4043   -1.1192 C.ar    1  UNL1        0.0715
     21 N          -8.4662    1.7054   -2.3170 N.ar    1  UNL1       -0.2550
     22 C          -7.9786    1.1638   -3.4462 C.ar    1  UNL1        0.0283
     23 C          -6.9186    0.2861   -3.3611 C.ar    1  UNL1       -0.0430
     24 C          -6.3709   -0.0281   -2.1361 C.ar    1  UNL1       -0.0506
     25 C          -6.8764    0.5319   -0.9771 C.ar    1  UNL1        0.0082
     26 C          -5.2977   -2.0692    0.5409 C.ar    1  UNL1        0.0597
     27 N          -4.0516   -2.5654    0.6099 N.ar    1  UNL1       -0.1727
     28 N          -3.1672   -1.5911    0.4943 N.ar    1  UNL1       -0.2205
     29 C          -1.8020   -1.6180    0.5058 C.ar    1  UNL1        0.0420
     30 N           1.0651    0.6875    0.2372 N.ar    1  UNL1       -0.2513
     31 C           2.4199    0.7092    0.2427 C.ar    1  UNL1        0.0699
     32 C           6.3186    0.2919   -0.9479 C.3     1  UNL1       -0.0029
     33 C           7.0802   -0.9747   -0.6612 C.3     1  UNL1        0.0019
     34 H           9.7522    0.4272    0.7394 H       1  UNL1        0.0391
     35 H           8.3430    1.4256    0.3261 H       1  UNL1        0.0391
     36 H           9.2410    0.4631   -0.9599 H       1  UNL1        0.0391
     37 H           6.7641   -1.3815    1.8348 H       1  UNL1        0.0428
     38 H           8.0363   -0.2014    2.4033 H       1  UNL1        0.0428
     39 H           5.6374    0.5656    2.3846 H       1  UNL1        0.0313
     40 H           6.7802    1.6776    1.6121 H       1  UNL1        0.0313
     41 H           4.9269    1.5168    0.1596 H       1  UNL1        0.0733
     42 H           3.0282   -2.5341    0.6483 H       1  UNL1        0.0655
     43 H           0.6243   -2.5782    0.6392 H       1  UNL1        0.0640
     44 H          -1.2615    1.6411    0.1047 H       1  UNL1        0.0837
     45 H          -6.4513    0.5658    2.3251 H       1  UNL1        0.0624
     46 H          -8.3368    2.1288    2.1888 H       1  UNL1        0.0618
     47 H          -9.2805    2.6545   -0.0535 H       1  UNL1        0.0639
     48 H          -8.4187    1.4169   -4.4255 H       1  UNL1        0.0830
     49 H          -6.5291   -0.1485   -4.2796 H       1  UNL1        0.0633
     50 H          -5.5318   -0.7229   -2.0670 H       1  UNL1        0.0625
     51 H          -6.2346   -2.6146    0.6029 H       1  UNL1        0.0855
     52 H          -1.3615   -2.5764    0.6273 H       1  UNL1        0.0838
     53 H           2.9399    1.6648    0.1275 H       1  UNL1        0.0867
     54 H           5.6166    0.1697   -1.8018 H       1  UNL1        0.0313
     55 H           6.9730    1.1395   -1.1608 H       1  UNL1        0.0313
     56 H           7.5258   -1.4369   -1.5469 H       1  UNL1        0.0428
     57 H           6.3468   -1.6915   -0.2110 H       1  UNL1        0.0428
@<TRIPOS>BOND
     1     1     2    1
     2     2     3    1
     3     3     4    1
     4     4     5    1
     5     5     6    1
     6     6     7    1
     7     7     8   ar
     8     8     9   ar
     9     9    10   ar
    10    10    11    1
    11    11    12   ar
    12    12    13   ar
    13    13    14   ar
    14    14    15   ar
    15    15    16    1
    16    16    17   ar
    17    17    18   ar
    18    18    19   ar
    19    19    20   ar
    20    20    21   ar
    21    21    22   ar
    22    22    23   ar
    23    23    24   ar
    24    24    25   ar
    25    15    26   ar
    26    26    27   ar
    27    27    28   ar
    28    28    29   ar
    29    10    30   ar
    30    30    31   ar
    31     5    32    1
    32    32    33    1
    33    33     2    1
    34    31     7   ar
    35    29    11   ar
    36    28    14   ar
    37    25    16   ar
    38    25    20   ar
    39     1    34    1
    40     1    35    1
    41     1    36    1
    42     3    37    1
    43     3    38    1
    44     4    39    1
    45     4    40    1
    46     5    41    1
    47     8    42    1
    48     9    43    1
    49    12    44    1
    50    17    45    1
    51    18    46    1
    52    19    47    1
    53    22    48    1
    54    23    49    1
    55    24    50    1
    56    26    51    1
    57    29    52    1
    58    31    53    1
    59    32    54    1
    60    32    55    1
    61    33    56    1
    62    33    57    1
