@<TRIPOS>MOLECULE
*****
 45 46 0 0 0
SMALL
GASTEIGER

@<TRIPOS>ATOM
      1 C          -6.5070    0.8593   -2.0543 C.3     1  UNL1       -0.0281
      2 C          -6.0678    1.0330   -0.6217 C.3     1  UNL1        0.0946
      3 C          -6.4430    2.3871   -0.0706 C.3     1  UNL1       -0.0281
      4 O          -4.6993    0.8706   -0.4351 O.3     1  UNL1       -0.4893
      5 C          -4.0774   -0.0859    0.3513 C.ar    1  UNL1        0.1226
      6 C          -2.6891    0.0813    0.2769 C.ar    1  UNL1        0.0013
      7 C          -1.8290   -0.7630    0.9840 C.ar    1  UNL1        0.0371
      8 N          -0.4124   -0.6362    0.9429 N.am    1  UNL1       -0.2814
      9 C           0.4350   -1.2829    0.0146 C.2     1  UNL1        0.2483
     10 O          -0.1023   -2.0296   -0.8436 O.2     1  UNL1       -0.2699
     11 C           1.8844   -1.1260    0.0066 C.ar    1  UNL1        0.0400
     12 C           2.5016   -0.3158    0.9326 C.ar    1  UNL1       -0.0276
     13 C           3.8637   -0.1477    0.9507 C.ar    1  UNL1        0.0847
     14 CL          4.7317    0.8386    2.1013 Cl      1  UNL1       -0.0797
     15 C           4.7075   -0.7644    0.0596 C.ar    1  UNL1        0.1570
     16 O           6.0488   -0.8306   -0.2177 O.3     1  UNL1       -0.4878
     17 C           6.8069   -0.0788   -1.0907 C.3     1  UNL1        0.1019
     18 C           6.8786    1.3940   -0.8356 C.3     1  UNL1        0.0276
     19 N           7.4526    1.6938    0.4428 N.3     1  UNL1       -0.3270
     20 C           4.0767   -1.5939   -0.8880 C.ar    1  UNL1        0.0847
     21 CL          4.8395   -2.5425   -2.1814 Cl      1  UNL1       -0.0797
     22 C           2.6846   -1.7704   -0.9120 C.ar    1  UNL1       -0.0276
     23 C          -2.3482   -1.7746    1.7661 C.ar    1  UNL1       -0.0402
     24 C          -3.6983   -1.9183    1.8235 C.ar    1  UNL1       -0.0566
     25 C          -4.5738   -1.1032    1.1388 C.ar    1  UNL1       -0.0198
     26 H          -5.8080    1.2881   -2.7921 H       1  UNL1        0.0265
     27 H          -7.5051    1.3048   -2.1542 H       1  UNL1        0.0265
     28 H          -6.6067   -0.2322   -2.2348 H       1  UNL1        0.0265
     29 H          -6.6044    0.2631   -0.0324 H       1  UNL1        0.0727
     30 H          -7.3088    2.3056    0.6244 H       1  UNL1        0.0265
     31 H          -6.6775    3.0757   -0.9199 H       1  UNL1        0.0265
     32 H          -5.6224    2.8407    0.5264 H       1  UNL1        0.0265
     33 H          -2.1374    0.8362   -0.2999 H       1  UNL1        0.0673
     34 H          -0.0240   -0.0063    1.6760 H       1  UNL1        0.1551
     35 H           1.9858    0.2391    1.6991 H       1  UNL1        0.0641
     36 H           6.5078   -0.2003   -2.1620 H       1  UNL1        0.0709
     37 H           7.8500   -0.5301   -1.0749 H       1  UNL1        0.0709
     38 H           7.4925    1.9127   -1.6074 H       1  UNL1        0.0455
     39 H           5.8561    1.8298   -0.8992 H       1  UNL1        0.0455
     40 H           7.5488    0.8603    1.0579 H       1  UNL1        0.1183
     41 H           6.9891    2.4709    0.9598 H       1  UNL1        0.1183
     42 H           2.1342   -2.3872   -1.6051 H       1  UNL1        0.0641
     43 H          -1.7096   -2.4580    2.3361 H       1  UNL1        0.0636
     44 H          -4.1701   -2.6834    2.4116 H       1  UNL1        0.0619
     45 H          -5.6541   -1.1235    1.1095 H       1  UNL1        0.0654
@<TRIPOS>BOND
     1     1     2    1
     2     2     3    1
     3     2     4    1
     4     4     5    1
     5     5     6   ar
     6     6     7   ar
     7     7     8    1
     8     8     9   am
     9     9    10    2
    10     9    11    1
    11    11    12   ar
    12    12    13   ar
    13    13    14    1
    14    13    15   ar
    15    15    16    1
    16    16    17    1
    17    17    18    1
    18    18    19    1
    19    15    20   ar
    20    20    21    1
    21    20    22   ar
    22     7    23   ar
    23    23    24   ar
    24    24    25   ar
    25    25     5   ar
    26    22    11   ar
    27     1    26    1
    28     1    27    1
    29     1    28    1
    30     2    29    1
    31     3    30    1
    32     3    31    1
    33     3    32    1
    34     6    33    1
    35     8    34    1
    36    12    35    1
    37    17    36    1
    38    17    37    1
    39    18    38    1
    40    18    39    1
    41    19    40    1
    42    19    41    1
    43    22    42    1
    44    23    43    1
    45    24    44    1
    46    25    45    1
