
     RDKit          3D

 76 80  0  0  0  0  0  0  0  0999 V2000
  -11.0041    1.1127   -0.3881 C   0  0  0  0  0  0  0  0  0  0  0  0
   -9.8202    0.2055   -0.4636 C   0  0  0  0  0  0  0  0  0  0  0  0
   -8.6045    0.9243   -0.3614 O   0  0  0  0  0  0  0  0  0  0  0  0
   -7.3714    0.3030   -0.4045 C   0  0  0  0  0  0  0  0  0  0  0  0
   -7.1381   -1.0009   -0.5412 N   0  0  0  0  0  0  0  0  0  0  0  0
   -5.8428   -1.2445   -0.5421 N   0  0  0  0  0  0  0  0  0  0  0  0
   -5.1736   -2.5340   -0.6687 C   0  0  0  0  0  0  0  0  0  0  0  0
   -5.1861   -0.0664   -0.4014 C   0  0  0  0  0  0  0  0  0  0  0  0
   -6.1250    0.9238   -0.3126 C   0  0  0  0  0  0  0  0  0  0  0  0
   -5.9459    2.3138   -0.1582 N   0  0  0  0  0  0  0  0  0  0  0  0
   -4.6479    2.8773   -0.0711 C   0  0  0  0  0  0  0  0  0  0  0  0
   -4.5025    4.2314    0.0802 N   0  0  0  0  0  0  0  0  0  0  0  0
   -3.3144    4.8392    0.1704 C   0  0  0  0  0  0  0  0  0  0  0  0
   -2.1606    4.0668    0.1086 C   0  0  0  0  0  0  0  0  0  0  0  0
   -0.8151    4.6502    0.1997 C   0  0  0  0  0  0  0  0  0  0  0  0
   -2.2740    2.6947   -0.0441 C   0  0  0  0  0  0  0  0  0  0  0  0
   -1.1134    1.8260   -0.1169 C   0  0  0  0  0  0  0  0  0  0  0  0
   -0.0436    1.9603   -0.9771 C   0  0  0  0  0  0  0  0  0  0  0  0
    0.8126    0.9615   -0.7288 N   0  0  0  0  0  0  0  0  0  0  0  0
    0.3461    0.1663    0.2703 C   0  0  0  0  0  0  0  0  0  0  0  0
    0.8723   -0.9832    0.8759 C   0  0  0  0  0  0  0  0  0  0  0  0
    2.1003   -1.4549    0.4194 N   0  0  0  0  0  0  0  0  0  0  0  0
    2.7839   -2.5974    0.8910 C   0  0  0  0  0  0  0  0  0  0  0  0
    2.2909   -3.3031    1.8005 O   0  0  0  0  0  0  0  0  0  0  0  0
    4.1211   -2.9743    0.2915 C   0  0  1  0  0  0  0  0  0  0  0  0
    3.8639   -4.1213   -0.6408 C   0  0  0  0  0  0  0  0  0  0  0  0
    4.6175   -1.7953   -0.3843 N   0  0  0  0  0  0  0  0  0  0  0  0
    5.7911   -2.0830   -1.1839 C   0  0  0  0  0  0  0  0  0  0  0  0
    7.0942   -1.7265   -0.5320 C   0  0  0  0  0  0  0  0  0  0  0  0
    7.1515   -0.2767   -0.4333 N   0  0  0  0  0  0  0  0  0  0  0  0
    8.3163    0.1875    0.2809 C   0  0  0  0  0  0  0  0  0  0  0  0
    9.5921   -0.0676   -0.4732 C   0  0  0  0  0  0  0  0  0  0  0  0
    5.9207    0.2349    0.1516 C   0  0  0  0  0  0  0  0  0  0  0  0
    5.0601   -0.8912    0.6726 C   0  0  0  0  0  0  0  0  0  0  0  0
    0.1330   -1.5521    1.8732 C   0  0  0  0  0  0  0  0  0  0  0  0
   -1.0863   -1.0074    2.2630 C   0  0  0  0  0  0  0  0  0  0  0  0
   -1.5785    0.1194    1.6528 C   0  0  0  0  0  0  0  0  0  0  0  0
   -0.8541    0.7116    0.6460 C   0  0  0  0  0  0  0  0  0  0  0  0
   -3.5048    2.1924   -0.1235 N   0  0  0  0  0  0  0  0  0  0  0  0
  -11.7054    0.7878    0.3972 H   0  0  0  0  0  0  0  0  0  0  0  0
  -11.5098    1.1775   -1.3925 H   0  0  0  0  0  0  0  0  0  0  0  0
  -10.6555    2.1536   -0.1637 H   0  0  0  0  0  0  0  0  0  0  0  0
   -9.8337   -0.3282   -1.4524 H   0  0  0  0  0  0  0  0  0  0  0  0
   -9.8640   -0.5188    0.3876 H   0  0  0  0  0  0  0  0  0  0  0  0
   -5.1678   -3.0395    0.3279 H   0  0  0  0  0  0  0  0  0  0  0  0
   -4.1181   -2.3886   -0.9640 H   0  0  0  0  0  0  0  0  0  0  0  0
   -5.6465   -3.1819   -1.4310 H   0  0  0  0  0  0  0  0  0  0  0  0
   -4.1054    0.0067   -0.3722 H   0  0  0  0  0  0  0  0  0  0  0  0
   -6.7916    2.9576   -0.1054 H   0  0  0  0  0  0  0  0  0  0  0  0
   -3.2236    5.9124    0.2898 H   0  0  0  0  0  0  0  0  0  0  0  0
   -0.8124    5.4727    0.9428 H   0  0  0  0  0  0  0  0  0  0  0  0
   -0.4893    5.0565   -0.7690 H   0  0  0  0  0  0  0  0  0  0  0  0
   -0.0747    3.9061    0.5393 H   0  0  0  0  0  0  0  0  0  0  0  0
    0.1354    2.7081   -1.7356 H   0  0  0  0  0  0  0  0  0  0  0  0
    1.7165    0.7921   -1.2161 H   0  0  0  0  0  0  0  0  0  0  0  0
    2.5975   -0.9290   -0.3800 H   0  0  0  0  0  0  0  0  0  0  0  0
    4.7750   -3.2946    1.1012 H   0  0  0  0  0  0  0  0  0  0  0  0
    4.7750   -4.7414   -0.8371 H   0  0  0  0  0  0  0  0  0  0  0  0
    3.1479   -4.8073   -0.1419 H   0  0  0  0  0  0  0  0  0  0  0  0
    3.3781   -3.7989   -1.5882 H   0  0  0  0  0  0  0  0  0  0  0  0
    5.7916   -3.1153   -1.5814 H   0  0  0  0  0  0  0  0  0  0  0  0
    5.7052   -1.4149   -2.0917 H   0  0  0  0  0  0  0  0  0  0  0  0
    7.2942   -2.2010    0.4260 H   0  0  0  0  0  0  0  0  0  0  0  0
    7.8899   -2.0218   -1.2810 H   0  0  0  0  0  0  0  0  0  0  0  0
    8.3892   -0.2569    1.2983 H   0  0  0  0  0  0  0  0  0  0  0  0
    8.2066    1.2847    0.3953 H   0  0  0  0  0  0  0  0  0  0  0  0
   10.3810    0.6783   -0.2256 H   0  0  0  0  0  0  0  0  0  0  0  0
    9.4416    0.0152   -1.5825 H   0  0  0  0  0  0  0  0  0  0  0  0
    9.9447   -1.0962   -0.2213 H   0  0  0  0  0  0  0  0  0  0  0  0
    6.2072    0.8458    1.0139 H   0  0  0  0  0  0  0  0  0  0  0  0
    5.3404    0.8561   -0.5342 H   0  0  0  0  0  0  0  0  0  0  0  0
    4.2198   -0.4663    1.2181 H   0  0  0  0  0  0  0  0  0  0  0  0
    5.6602   -1.5062    1.3964 H   0  0  0  0  0  0  0  0  0  0  0  0
    0.4241   -2.4309    2.4146 H   0  0  0  0  0  0  0  0  0  0  0  0
   -1.6677   -1.4600    3.0513 H   0  0  0  0  0  0  0  0  0  0  0  0
   -2.5167    0.5634    1.9325 H   0  0  0  0  0  0  0  0  0  0  0  0
  1  2  1  0
  2  3  1  0
  3  4  1  0
  4  5  2  0
  5  6  1  0
  6  7  1  0
  6  8  1  0
  8  9  2  0
  9 10  1  0
 10 11  1  0
 11 12  2  0
 12 13  1  0
 13 14  2  0
 14 15  1  0
 14 16  1  0
 16 17  1  0
 17 18  2  0
 18 19  1  0
 19 20  1  0
 20 21  2  0
 21 22  1  0
 22 23  1  0
 23 24  2  0
 23 25  1  0
 25 26  1  0
 25 27  1  0
 27 28  1  0
 28 29  1  0
 29 30  1  0
 30 31  1  0
 31 32  1  0
 30 33  1  0
 33 34  1  0
 21 35  1  0
 35 36  2  0
 36 37  1  0
 37 38  2  0
 16 39  2  0
  9  4  1  0
 39 11  1  0
 38 17  1  0
 38 20  1  0
 34 27  1  0
  1 40  1  0
  1 41  1  0
  1 42  1  0
  2 43  1  0
  2 44  1  0
  7 45  1  0
  7 46  1  0
  7 47  1  0
  8 48  1  0
 10 49  1  0
 13 50  1  0
 15 51  1  0
 15 52  1  0
 15 53  1  0
 18 54  1  0
 19 55  1  0
 22 56  1  0
 25 57  1  1
 26 58  1  0
 26 59  1  0
 26 60  1  0
 28 61  1  0
 28 62  1  0
 29 63  1  0
 29 64  1  0
 31 65  1  0
 31 66  1  0
 32 67  1  0
 32 68  1  0
 32 69  1  0
 33 70  1  0
 33 71  1  0
 34 72  1  0
 34 73  1  0
 35 74  1  0
 36 75  1  0
 37 76  1  0
M  END
$$$$
