@<TRIPOS>MOLECULE
*****
 76 80 0 0 0
SMALL
GASTEIGER

@<TRIPOS>ATOM
      1 C         -11.0041    1.1127   -0.3881 C.3     1  UNL1       -0.0306
      2 C          -9.8202    0.2055   -0.4636 C.3     1  UNL1        0.0885
      3 O          -8.6045    0.9243   -0.3614 O.3     1  UNL1       -0.4744
      4 C          -7.3714    0.3030   -0.4045 C.ar    1  UNL1        0.2555
      5 N          -7.1381   -1.0009   -0.5412 N.ar    1  UNL1       -0.1317
      6 N          -5.8428   -1.2445   -0.5421 N.ar    1  UNL1       -0.2692
      7 C          -5.1736   -2.5340   -0.6687 C.3     1  UNL1        0.0304
      8 C          -5.1861   -0.0664   -0.4014 C.ar    1  UNL1        0.0503
      9 C          -6.1250    0.9238   -0.3126 C.ar    1  UNL1        0.1152
     10 N          -5.9459    2.3138   -0.1582 N.pl3   1  UNL1       -0.2782
     11 C          -4.6479    2.8773   -0.0711 C.ar    1  UNL1        0.2202
     12 N          -4.5025    4.2314    0.0802 N.ar    1  UNL1       -0.2224
     13 C          -3.3144    4.8392    0.1704 C.ar    1  UNL1        0.0361
     14 C          -2.1606    4.0668    0.1086 C.ar    1  UNL1       -0.0062
     15 C          -0.8151    4.6502    0.1997 C.3     1  UNL1       -0.0362
     16 C          -2.2740    2.6947   -0.0441 C.ar    1  UNL1        0.0809
     17 C          -1.1134    1.8260   -0.1169 C.ar    1  UNL1        0.0258
     18 C          -0.0436    1.9603   -0.9771 C.ar    1  UNL1        0.0120
     19 N           0.8126    0.9615   -0.7288 N.ar    1  UNL1       -0.3586
     20 C           0.3461    0.1663    0.2703 C.ar    1  UNL1        0.0686
     21 C           0.8723   -0.9832    0.8759 C.ar    1  UNL1        0.0576
     22 N           2.1003   -1.4549    0.4194 N.am    1  UNL1       -0.2825
     23 C           2.7839   -2.5974    0.8910 C.2     1  UNL1        0.2342
     24 O           2.2909   -3.3031    1.8005 O.2     1  UNL1       -0.2738
     25 C           4.1211   -2.9743    0.2915 C.3     1  UNL1        0.0848
     26 C           3.8639   -4.1213   -0.6408 C.3     1  UNL1       -0.0409
     27 N           4.6175   -1.7953   -0.3843 N.3     1  UNL1       -0.2893
     28 C           5.7911   -2.0830   -1.1839 C.3     1  UNL1        0.0124
     29 C           7.0942   -1.7265   -0.5320 C.3     1  UNL1        0.0117
     30 N           7.1515   -0.2767   -0.4333 N.3     1  UNL1       -0.3002
     31 C           8.3163    0.1875    0.2809 C.3     1  UNL1       -0.0039
     32 C           9.5921   -0.0676   -0.4732 C.3     1  UNL1       -0.0524
     33 C           5.9207    0.2349    0.1516 C.3     1  UNL1        0.0117
     34 C           5.0601   -0.8912    0.6726 C.3     1  UNL1        0.0124
     35 C           0.1330   -1.5521    1.8732 C.ar    1  UNL1       -0.0384
     36 C          -1.0863   -1.0074    2.2630 C.ar    1  UNL1       -0.0593
     37 C          -1.5785    0.1194    1.6528 C.ar    1  UNL1       -0.0518
     38 C          -0.8541    0.7116    0.6460 C.ar    1  UNL1        0.0107
     39 N          -3.5048    2.1924   -0.1235 N.ar    1  UNL1       -0.2139
     40 H         -11.7054    0.7878    0.3972 H       1  UNL1        0.0262
     41 H         -11.5098    1.1775   -1.3925 H       1  UNL1        0.0262
     42 H         -10.6555    2.1536   -0.1637 H       1  UNL1        0.0262
     43 H          -9.8337   -0.3282   -1.4524 H       1  UNL1        0.0694
     44 H          -9.8640   -0.5188    0.3876 H       1  UNL1        0.0694
     45 H          -5.1678   -3.0395    0.3279 H       1  UNL1        0.0473
     46 H          -4.1181   -2.3886   -0.9640 H       1  UNL1        0.0473
     47 H          -5.6465   -3.1819   -1.4310 H       1  UNL1        0.0473
     48 H          -4.1054    0.0067   -0.3722 H       1  UNL1        0.0846
     49 H          -6.7916    2.9576   -0.1054 H       1  UNL1        0.1552
     50 H          -3.2236    5.9124    0.2898 H       1  UNL1        0.0834
     51 H          -0.8124    5.4727    0.9428 H       1  UNL1        0.0279
     52 H          -0.4893    5.0565   -0.7690 H       1  UNL1        0.0279
     53 H          -0.0747    3.9061    0.5393 H       1  UNL1        0.0279
     54 H           0.1354    2.7081   -1.7356 H       1  UNL1        0.0814
     55 H           1.7165    0.7921   -1.2161 H       1  UNL1        0.1654
     56 H           2.5975   -0.9290   -0.3800 H       1  UNL1        0.1549
     57 H           4.7750   -3.2946    1.1012 H       1  UNL1        0.0556
     58 H           4.7750   -4.7414   -0.8371 H       1  UNL1        0.0249
     59 H           3.1479   -4.8073   -0.1419 H       1  UNL1        0.0249
     60 H           3.3781   -3.7989   -1.5882 H       1  UNL1        0.0249
     61 H           5.7916   -3.1153   -1.5814 H       1  UNL1        0.0439
     62 H           5.7052   -1.4149   -2.0917 H       1  UNL1        0.0439
     63 H           7.2942   -2.2010    0.4260 H       1  UNL1        0.0439
     64 H           7.8899   -2.0218   -1.2810 H       1  UNL1        0.0439
     65 H           8.3892   -0.2569    1.2983 H       1  UNL1        0.0424
     66 H           8.2066    1.2847    0.3953 H       1  UNL1        0.0424
     67 H          10.3810    0.6783   -0.2256 H       1  UNL1        0.0242
     68 H           9.4416    0.0152   -1.5825 H       1  UNL1        0.0242
     69 H           9.9447   -1.0962   -0.2213 H       1  UNL1        0.0242
     70 H           6.2072    0.8458    1.0139 H       1  UNL1        0.0439
     71 H           5.3404    0.8561   -0.5342 H       1  UNL1        0.0439
     72 H           4.2198   -0.4663    1.2181 H       1  UNL1        0.0439
     73 H           5.6602   -1.5062    1.3964 H       1  UNL1        0.0439
     74 H           0.4241   -2.4309    2.4146 H       1  UNL1        0.0637
     75 H          -1.6677   -1.4600    3.0513 H       1  UNL1        0.0618
     76 H          -2.5167    0.5634    1.9325 H       1  UNL1        0.0624
@<TRIPOS>BOND
     1     1     2    1
     2     2     3    1
     3     3     4    1
     4     4     5   ar
     5     5     6   ar
     6     6     7    1
     7     6     8   ar
     8     8     9   ar
     9     9    10    1
    10    10    11    1
    11    11    12   ar
    12    12    13   ar
    13    13    14   ar
    14    14    15    1
    15    14    16   ar
    16    16    17    1
    17    17    18   ar
    18    18    19   ar
    19    19    20   ar
    20    20    21   ar
    21    21    22    1
    22    22    23   am
    23    23    24    2
    24    23    25    1
    25    25    26    1
    26    25    27    1
    27    27    28    1
    28    28    29    1
    29    29    30    1
    30    30    31    1
    31    31    32    1
    32    30    33    1
    33    33    34    1
    34    21    35   ar
    35    35    36   ar
    36    36    37   ar
    37    37    38   ar
    38    16    39   ar
    39     9     4   ar
    40    39    11   ar
    41    38    17   ar
    42    38    20   ar
    43    34    27    1
    44     1    40    1
    45     1    41    1
    46     1    42    1
    47     2    43    1
    48     2    44    1
    49     7    45    1
    50     7    46    1
    51     7    47    1
    52     8    48    1
    53    10    49    1
    54    13    50    1
    55    15    51    1
    56    15    52    1
    57    15    53    1
    58    18    54    1
    59    19    55    1
    60    22    56    1
    61    25    57    1
    62    26    58    1
    63    26    59    1
    64    26    60    1
    65    28    61    1
    66    28    62    1
    67    29    63    1
    68    29    64    1
    69    31    65    1
    70    31    66    1
    71    32    67    1
    72    32    68    1
    73    32    69    1
    74    33    70    1
    75    33    71    1
    76    34    72    1
    77    34    73    1
    78    35    74    1
    79    36    75    1
    80    37    76    1
