@<TRIPOS>MOLECULE
*****
 56 60 0 0 0
SMALL
GASTEIGER

@<TRIPOS>ATOM
      1 C           8.5584    1.4561   -1.4080 C.3     1  UNL1        0.0790
      2 O           7.5944    1.8244   -0.4767 O.3     1  UNL1       -0.4914
      3 C           6.3793    1.1984   -0.3352 C.ar    1  UNL1        0.1635
      4 C           6.0595    0.1513   -1.1668 C.ar    1  UNL1        0.0098
      5 C           4.8194   -0.4658   -1.0072 C.ar    1  UNL1        0.0782
      6 N           4.5175   -1.4602   -1.8860 N.ar    1  UNL1       -0.2546
      7 C           3.3399   -2.0785   -1.8557 C.ar    1  UNL1        0.0318
      8 C           2.4095   -1.7054   -0.9175 C.ar    1  UNL1       -0.0006
      9 C           2.6765   -0.6973    0.0015 C.ar    1  UNL1        0.1391
     10 O           1.7340   -0.3199    0.9500 O.3     1  UNL1       -0.4553
     11 C           0.4540   -0.7877    0.9362 C.ar    1  UNL1        0.1291
     12 C          -0.5648    0.1458    0.6657 C.ar    1  UNL1       -0.0187
     13 C          -1.8879   -0.2053    0.6181 C.ar    1  UNL1       -0.0498
     14 C          -2.2337   -1.5126    0.8405 C.ar    1  UNL1       -0.0055
     15 C          -3.5937   -1.8246    0.7589 C.ar    1  UNL1        0.0447
     16 C          -4.5637   -0.7713    0.4911 C.2     1  UNL1        0.2488
     17 O          -4.7327    0.0824    1.4259 O.2     1  UNL1       -0.2698
     18 N          -5.3156   -0.6160   -0.6872 N.am    1  UNL1       -0.2815
     19 C          -6.2117    0.4761   -0.7739 C.ar    1  UNL1        0.0338
     20 C          -7.5295    0.3784   -0.4214 C.ar    1  UNL1       -0.0391
     21 C          -8.4002    1.4581   -0.4868 C.ar    1  UNL1       -0.0416
     22 C          -7.9704    2.6861   -0.9144 C.ar    1  UNL1        0.0411
     23 CL         -9.0101    4.0818   -1.0193 Cl      1  UNL1       -0.0835
     24 C          -6.6403    2.8129   -1.2781 C.ar    1  UNL1       -0.0416
     25 C          -5.7789    1.7183   -1.2065 C.ar    1  UNL1       -0.0391
     26 C          -3.9216   -3.1451    0.9588 C.ar    1  UNL1       -0.0490
     27 C          -2.9485   -4.1075    1.2269 C.ar    1  UNL1       -0.0605
     28 C          -1.6251   -3.7547    1.3010 C.ar    1  UNL1       -0.0539
     29 C          -1.2549   -2.4463    1.1081 C.ar    1  UNL1       -0.0137
     30 C           0.0881   -2.0554    1.1521 C.ar    1  UNL1       -0.0116
     31 C           3.8974   -0.0882   -0.0635 C.ar    1  UNL1        0.0463
     32 C           4.2418    0.9670    0.7633 C.ar    1  UNL1       -0.0036
     33 C           5.4718    1.5961    0.6188 C.ar    1  UNL1        0.1623
     34 O           5.8497    2.6565    1.4234 O.3     1  UNL1       -0.4914
     35 C           5.0395    3.1641    2.4552 C.3     1  UNL1        0.0790
     36 H           8.1651    1.7735   -2.4206 H       1  UNL1        0.0660
     37 H           8.8333    0.4076   -1.4402 H       1  UNL1        0.0660
     38 H           9.5003    2.0408   -1.1932 H       1  UNL1        0.0660
     39 H           6.7699   -0.1648   -1.9161 H       1  UNL1        0.0677
     40 H           3.0696   -2.8799   -2.5497 H       1  UNL1        0.0831
     41 H           1.4343   -2.1691   -0.8509 H       1  UNL1        0.0670
     42 H          -0.2878    1.1658    0.4902 H       1  UNL1        0.0654
     43 H          -2.6496    0.5179    0.4126 H       1  UNL1        0.0625
     44 H          -5.1794   -1.3163   -1.4450 H       1  UNL1        0.1551
     45 H          -7.8816   -0.5961   -0.0815 H       1  UNL1        0.0636
     46 H          -9.4311    1.3412   -0.1999 H       1  UNL1        0.0633
     47 H          -6.2785    3.7736   -1.6163 H       1  UNL1        0.0633
     48 H          -4.7475    1.9050   -1.5097 H       1  UNL1        0.0636
     49 H          -4.9740   -3.4069    0.8933 H       1  UNL1        0.0625
     50 H          -3.2240   -5.1377    1.3763 H       1  UNL1        0.0618
     51 H          -0.8417   -4.4916    1.5118 H       1  UNL1        0.0624
     52 H           0.8081   -2.8200    1.3714 H       1  UNL1        0.0660
     53 H           3.5167    1.2710    1.5147 H       1  UNL1        0.0663
     54 H           3.9842    3.1053    2.1375 H       1  UNL1        0.0660
     55 H           5.1894    2.6215    3.4153 H       1  UNL1        0.0660
     56 H           5.2768    4.2468    2.6155 H       1  UNL1        0.0660
@<TRIPOS>BOND
     1     1     2    1
     2     2     3    1
     3     3     4   ar
     4     4     5   ar
     5     5     6   ar
     6     6     7   ar
     7     7     8   ar
     8     8     9   ar
     9     9    10    1
    10    10    11    1
    11    11    12   ar
    12    12    13   ar
    13    13    14   ar
    14    14    15   ar
    15    15    16    1
    16    16    17    2
    17    16    18   am
    18    18    19    1
    19    19    20   ar
    20    20    21   ar
    21    21    22   ar
    22    22    23    1
    23    22    24   ar
    24    24    25   ar
    25    15    26   ar
    26    26    27   ar
    27    27    28   ar
    28    28    29   ar
    29    29    30   ar
    30     9    31   ar
    31    31    32   ar
    32    32    33   ar
    33    33    34    1
    34    34    35    1
    35    33     3   ar
    36    31     5   ar
    37    30    11   ar
    38    29    14   ar
    39    25    19   ar
    40     1    36    1
    41     1    37    1
    42     1    38    1
    43     4    39    1
    44     7    40    1
    45     8    41    1
    46    12    42    1
    47    13    43    1
    48    18    44    1
    49    20    45    1
    50    21    46    1
    51    24    47    1
    52    25    48    1
    53    26    49    1
    54    27    50    1
    55    28    51    1
    56    30    52    1
    57    32    53    1
    58    35    54    1
    59    35    55    1
    60    35    56    1
