
     RDKit          3D

 56 60  0  0  0  0  0  0  0  0999 V2000
    8.5584    1.4561   -1.4080 C   0  0  0  0  0  0  0  0  0  0  0  0
    7.5944    1.8244   -0.4767 O   0  0  0  0  0  0  0  0  0  0  0  0
    6.3793    1.1984   -0.3352 C   0  0  0  0  0  0  0  0  0  0  0  0
    6.0595    0.1513   -1.1668 C   0  0  0  0  0  0  0  0  0  0  0  0
    4.8194   -0.4658   -1.0072 C   0  0  0  0  0  0  0  0  0  0  0  0
    4.5175   -1.4602   -1.8860 N   0  0  0  0  0  0  0  0  0  0  0  0
    3.3399   -2.0785   -1.8557 C   0  0  0  0  0  0  0  0  0  0  0  0
    2.4095   -1.7054   -0.9175 C   0  0  0  0  0  0  0  0  0  0  0  0
    2.6765   -0.6973    0.0015 C   0  0  0  0  0  0  0  0  0  0  0  0
    1.7340   -0.3199    0.9500 O   0  0  0  0  0  0  0  0  0  0  0  0
    0.4540   -0.7877    0.9362 C   0  0  0  0  0  0  0  0  0  0  0  0
   -0.5648    0.1458    0.6657 C   0  0  0  0  0  0  0  0  0  0  0  0
   -1.8879   -0.2053    0.6181 C   0  0  0  0  0  0  0  0  0  0  0  0
   -2.2337   -1.5126    0.8405 C   0  0  0  0  0  0  0  0  0  0  0  0
   -3.5937   -1.8246    0.7589 C   0  0  0  0  0  0  0  0  0  0  0  0
   -4.5637   -0.7713    0.4911 C   0  0  0  0  0  0  0  0  0  0  0  0
   -4.7327    0.0824    1.4259 O   0  0  0  0  0  0  0  0  0  0  0  0
   -5.3156   -0.6160   -0.6872 N   0  0  0  0  0  0  0  0  0  0  0  0
   -6.2117    0.4761   -0.7739 C   0  0  0  0  0  0  0  0  0  0  0  0
   -7.5295    0.3784   -0.4214 C   0  0  0  0  0  0  0  0  0  0  0  0
   -8.4002    1.4581   -0.4868 C   0  0  0  0  0  0  0  0  0  0  0  0
   -7.9704    2.6861   -0.9144 C   0  0  0  0  0  0  0  0  0  0  0  0
   -9.0101    4.0818   -1.0193 Cl  0  0  0  0  0  0  0  0  0  0  0  0
   -6.6403    2.8129   -1.2781 C   0  0  0  0  0  0  0  0  0  0  0  0
   -5.7789    1.7183   -1.2065 C   0  0  0  0  0  0  0  0  0  0  0  0
   -3.9216   -3.1451    0.9588 C   0  0  0  0  0  0  0  0  0  0  0  0
   -2.9485   -4.1075    1.2269 C   0  0  0  0  0  0  0  0  0  0  0  0
   -1.6251   -3.7547    1.3010 C   0  0  0  0  0  0  0  0  0  0  0  0
   -1.2549   -2.4463    1.1081 C   0  0  0  0  0  0  0  0  0  0  0  0
    0.0881   -2.0554    1.1521 C   0  0  0  0  0  0  0  0  0  0  0  0
    3.8974   -0.0882   -0.0635 C   0  0  0  0  0  0  0  0  0  0  0  0
    4.2418    0.9670    0.7633 C   0  0  0  0  0  0  0  0  0  0  0  0
    5.4718    1.5961    0.6188 C   0  0  0  0  0  0  0  0  0  0  0  0
    5.8497    2.6565    1.4234 O   0  0  0  0  0  0  0  0  0  0  0  0
    5.0395    3.1641    2.4552 C   0  0  0  0  0  0  0  0  0  0  0  0
    8.1651    1.7735   -2.4206 H   0  0  0  0  0  0  0  0  0  0  0  0
    8.8333    0.4076   -1.4402 H   0  0  0  0  0  0  0  0  0  0  0  0
    9.5003    2.0408   -1.1932 H   0  0  0  0  0  0  0  0  0  0  0  0
    6.7699   -0.1648   -1.9161 H   0  0  0  0  0  0  0  0  0  0  0  0
    3.0696   -2.8799   -2.5497 H   0  0  0  0  0  0  0  0  0  0  0  0
    1.4343   -2.1691   -0.8509 H   0  0  0  0  0  0  0  0  0  0  0  0
   -0.2878    1.1658    0.4902 H   0  0  0  0  0  0  0  0  0  0  0  0
   -2.6496    0.5179    0.4126 H   0  0  0  0  0  0  0  0  0  0  0  0
   -5.1794   -1.3163   -1.4450 H   0  0  0  0  0  0  0  0  0  0  0  0
   -7.8816   -0.5961   -0.0815 H   0  0  0  0  0  0  0  0  0  0  0  0
   -9.4311    1.3412   -0.1999 H   0  0  0  0  0  0  0  0  0  0  0  0
   -6.2785    3.7736   -1.6163 H   0  0  0  0  0  0  0  0  0  0  0  0
   -4.7475    1.9050   -1.5097 H   0  0  0  0  0  0  0  0  0  0  0  0
   -4.9740   -3.4069    0.8933 H   0  0  0  0  0  0  0  0  0  0  0  0
   -3.2240   -5.1377    1.3763 H   0  0  0  0  0  0  0  0  0  0  0  0
   -0.8417   -4.4916    1.5118 H   0  0  0  0  0  0  0  0  0  0  0  0
    0.8081   -2.8200    1.3714 H   0  0  0  0  0  0  0  0  0  0  0  0
    3.5167    1.2710    1.5147 H   0  0  0  0  0  0  0  0  0  0  0  0
    3.9842    3.1053    2.1375 H   0  0  0  0  0  0  0  0  0  0  0  0
    5.1894    2.6215    3.4153 H   0  0  0  0  0  0  0  0  0  0  0  0
    5.2768    4.2468    2.6155 H   0  0  0  0  0  0  0  0  0  0  0  0
  1  2  1  0
  2  3  1  0
  3  4  2  0
  4  5  1  0
  5  6  2  0
  6  7  1  0
  7  8  2  0
  8  9  1  0
  9 10  1  0
 10 11  1  0
 11 12  2  0
 12 13  1  0
 13 14  2  0
 14 15  1  0
 15 16  1  0
 16 17  2  0
 16 18  1  0
 18 19  1  0
 19 20  2  0
 20 21  1  0
 21 22  2  0
 22 23  1  0
 22 24  1  0
 24 25  2  0
 15 26  2  0
 26 27  1  0
 27 28  2  0
 28 29  1  0
 29 30  2  0
  9 31  2  0
 31 32  1  0
 32 33  2  0
 33 34  1  0
 34 35  1  0
 33  3  1  0
 31  5  1  0
 30 11  1  0
 29 14  1  0
 25 19  1  0
  1 36  1  0
  1 37  1  0
  1 38  1  0
  4 39  1  0
  7 40  1  0
  8 41  1  0
 12 42  1  0
 13 43  1  0
 18 44  1  0
 20 45  1  0
 21 46  1  0
 24 47  1  0
 25 48  1  0
 26 49  1  0
 27 50  1  0
 28 51  1  0
 30 52  1  0
 32 53  1  0
 35 54  1  0
 35 55  1  0
 35 56  1  0
M  END
$$$$
