
     RDKit          3D

 69 71  0  0  0  0  0  0  0  0999 V2000
   -5.0553    2.3827   -1.6044 C   0  0  0  0  0  0  0  0  0  0  0  0
   -5.1944    1.0635   -0.9146 N   0  0  0  0  0  0  0  0  0  0  0  0
   -6.6024    0.7067   -1.2192 C   0  0  0  0  0  0  0  0  0  0  0  0
   -5.1583    1.4110    0.4895 C   0  0  0  0  0  0  0  0  0  0  0  0
   -5.0778    0.2171    1.3607 C   0  0  0  0  0  0  0  0  0  0  0  0
   -3.8948   -0.5793    1.2438 N   0  0  0  0  0  0  0  0  0  0  0  0
   -2.8090   -0.1302    2.1349 C   0  0  0  0  0  0  0  0  0  0  0  0
   -2.1015   -1.3909    2.6010 C   0  0  0  0  0  0  0  0  0  0  0  0
   -1.2249   -1.8027    1.4532 N   0  0  0  0  0  0  0  0  0  0  0  0
   -0.0437   -1.0966    1.4136 C   0  0  0  0  0  0  0  0  0  0  0  0
    0.0769   -0.1819    2.3271 O   0  0  0  0  0  0  0  0  0  0  0  0
    1.0938   -1.2280    0.4845 C   0  0  0  0  0  0  0  0  0  0  0  0
    1.3727   -2.3470   -0.1849 C   0  0  0  0  0  0  0  0  0  0  0  0
    2.5126   -2.4074   -0.9824 C   0  0  0  0  0  0  0  0  0  0  0  0
    3.0316   -3.5120   -1.8098 C   0  0  0  0  0  0  0  0  0  0  0  0
    2.4674   -3.3949   -3.2005 C   0  0  0  0  0  0  0  0  0  0  0  0
    4.5326   -3.5055   -1.8526 C   0  0  0  0  0  0  0  0  0  0  0  0
    2.4903   -4.8031   -1.2183 C   0  0  0  0  0  0  0  0  0  0  0  0
    3.1909   -0.7933   -0.7458 S   0  0  0  0  0  0  0  0  0  0  0  0
    2.0205   -0.1616    0.3168 C   0  0  0  0  0  0  0  0  0  0  0  0
    1.9824    1.1401    0.8903 N   0  0  0  0  0  0  0  0  0  0  0  0
    3.0414    2.0622    0.6208 C   0  0  0  0  0  0  0  0  0  0  0  0
    3.9704    1.6929   -0.1130 O   0  0  0  0  0  0  0  0  0  0  0  0
    3.0561    3.3706    1.1640 N   0  0  0  0  0  0  0  0  0  0  0  0
    4.1208    4.2691    0.8811 C   0  0  0  0  0  0  0  0  0  0  0  0
    3.9834    5.0800   -0.2297 C   0  0  0  0  0  0  0  0  0  0  0  0
    4.9813    5.9935   -0.5830 C   0  0  0  0  0  0  0  0  0  0  0  0
    6.1180    6.0995    0.1711 C   0  0  0  0  0  0  0  0  0  0  0  0
    6.2435    5.2836    1.2788 C   0  0  0  0  0  0  0  0  0  0  0  0
    7.6940    5.4054    2.2590 Cl  0  0  0  0  0  0  0  0  0  0  0  0
    5.2584    4.3857    1.6229 C   0  0  0  0  0  0  0  0  0  0  0  0
    5.4519    3.3650    3.0378 Cl  0  0  0  0  0  0  0  0  0  0  0  0
   -1.5824   -2.7676    0.4749 C   0  0  0  0  0  0  0  0  0  0  0  0
   -3.1182   -2.9730    0.4535 C   0  0  0  0  0  0  0  0  0  0  0  0
   -3.8230   -1.6629    0.3625 C   0  0  0  0  0  0  0  0  0  0  0  0
   -4.4673   -1.5081   -0.6984 O   0  0  0  0  0  0  0  0  0  0  0  0
   -4.0909    2.8163   -1.3040 H   0  0  0  0  0  0  0  0  0  0  0  0
   -5.9382    2.9678   -1.2831 H   0  0  0  0  0  0  0  0  0  0  0  0
   -5.0855    2.2051   -2.6955 H   0  0  0  0  0  0  0  0  0  0  0  0
   -6.6877    0.6750   -2.3073 H   0  0  0  0  0  0  0  0  0  0  0  0
   -7.2154    1.5251   -0.7680 H   0  0  0  0  0  0  0  0  0  0  0  0
   -6.8883   -0.2579   -0.8010 H   0  0  0  0  0  0  0  0  0  0  0  0
   -4.2560    2.0497    0.6672 H   0  0  0  0  0  0  0  0  0  0  0  0
   -6.0731    1.9877    0.7759 H   0  0  0  0  0  0  0  0  0  0  0  0
   -6.0056   -0.3871    1.1706 H   0  0  0  0  0  0  0  0  0  0  0  0
   -5.1513    0.5100    2.4537 H   0  0  0  0  0  0  0  0  0  0  0  0
   -3.2028    0.3743    3.0220 H   0  0  0  0  0  0  0  0  0  0  0  0
   -2.1261    0.5507    1.5866 H   0  0  0  0  0  0  0  0  0  0  0  0
   -1.4886   -1.1391    3.4694 H   0  0  0  0  0  0  0  0  0  0  0  0
   -2.8536   -2.1752    2.7912 H   0  0  0  0  0  0  0  0  0  0  0  0
    0.7597   -3.3009   -0.1368 H   0  0  0  0  0  0  0  0  0  0  0  0
    2.8193   -4.2824   -3.7820 H   0  0  0  0  0  0  0  0  0  0  0  0
    2.8297   -2.4899   -3.7306 H   0  0  0  0  0  0  0  0  0  0  0  0
    1.3673   -3.4311   -3.1808 H   0  0  0  0  0  0  0  0  0  0  0  0
    4.8469   -3.6930   -2.9001 H   0  0  0  0  0  0  0  0  0  0  0  0
    4.9557   -2.5653   -1.4622 H   0  0  0  0  0  0  0  0  0  0  0  0
    4.9313   -4.3444   -1.2338 H   0  0  0  0  0  0  0  0  0  0  0  0
    2.9983   -5.6934   -1.6635 H   0  0  0  0  0  0  0  0  0  0  0  0
    1.4253   -4.8755   -1.5486 H   0  0  0  0  0  0  0  0  0  0  0  0
    2.4902   -4.8151   -0.1276 H   0  0  0  0  0  0  0  0  0  0  0  0
    1.2238    1.4367    1.4762 H   0  0  0  0  0  0  0  0  0  0  0  0
    2.2497    3.6271    1.7739 H   0  0  0  0  0  0  0  0  0  0  0  0
    3.1112    5.0379   -0.8567 H   0  0  0  0  0  0  0  0  0  0  0  0
    4.8713    6.6295   -1.4562 H   0  0  0  0  0  0  0  0  0  0  0  0
    6.8678    6.8124   -0.1275 H   0  0  0  0  0  0  0  0  0  0  0  0
   -1.2087   -3.7600    0.7772 H   0  0  0  0  0  0  0  0  0  0  0  0
   -1.2765   -2.5599   -0.5608 H   0  0  0  0  0  0  0  0  0  0  0  0
   -3.4132   -3.5835    1.3116 H   0  0  0  0  0  0  0  0  0  0  0  0
   -3.3240   -3.5342   -0.4707 H   0  0  0  0  0  0  0  0  0  0  0  0
  1  2  1  0
  2  3  1  0
  2  4  1  0
  4  5  1  0
  5  6  1  0
  6  7  1  0
  7  8  1  0
  8  9  1  0
  9 10  1  0
 10 11  2  0
 10 12  1  0
 12 13  1  0
 13 14  2  0
 14 15  1  0
 15 16  1  0
 15 17  1  0
 15 18  1  0
 14 19  1  0
 19 20  1  0
 20 21  1  0
 21 22  1  0
 22 23  2  0
 22 24  1  0
 24 25  1  0
 25 26  2  0
 26 27  1  0
 27 28  2  0
 28 29  1  0
 29 30  1  0
 29 31  2  0
 31 32  1  0
  9 33  1  0
 33 34  1  0
 34 35  1  0
 35 36  2  0
 35  6  1  0
 20 12  2  0
 31 25  1  0
  1 37  1  0
  1 38  1  0
  1 39  1  0
  3 40  1  0
  3 41  1  0
  3 42  1  0
  4 43  1  0
  4 44  1  0
  5 45  1  0
  5 46  1  0
  7 47  1  0
  7 48  1  0
  8 49  1  0
  8 50  1  0
 13 51  1  0
 16 52  1  0
 16 53  1  0
 16 54  1  0
 17 55  1  0
 17 56  1  0
 17 57  1  0
 18 58  1  0
 18 59  1  0
 18 60  1  0
 21 61  1  0
 24 62  1  0
 26 63  1  0
 27 64  1  0
 28 65  1  0
 33 66  1  0
 33 67  1  0
 34 68  1  0
 34 69  1  0
M  END
$$$$
