@<TRIPOS>MOLECULE
*****
 69 71 0 0 0
SMALL
GASTEIGER

@<TRIPOS>ATOM
      1 C          -5.0553    2.3827   -1.6044 C.3     1  UNL1       -0.0130
      2 N          -5.1944    1.0635   -0.9146 N.3     1  UNL1       -0.3069
      3 C          -6.6024    0.7067   -1.2192 C.3     1  UNL1       -0.0130
      4 C          -5.1583    1.4110    0.4895 C.3     1  UNL1        0.0141
      5 C          -5.0778    0.2171    1.3607 C.3     1  UNL1        0.0275
      6 N          -3.8948   -0.5793    1.2438 N.am    1  UNL1       -0.2987
      7 C          -2.8090   -0.1302    2.1349 C.3     1  UNL1        0.0305
      8 C          -2.1015   -1.3909    2.6010 C.3     1  UNL1        0.0308
      9 N          -1.2249   -1.8027    1.4532 N.am    1  UNL1       -0.2955
     10 C          -0.0437   -1.0966    1.4136 C.2     1  UNL1        0.2490
     11 O           0.0769   -0.1819    2.3271 O.2     1  UNL1       -0.2699
     12 C           1.0938   -1.2280    0.4845 C.ar    1  UNL1        0.0657
     13 C           1.3727   -2.3470   -0.1849 C.ar    1  UNL1       -0.0370
     14 C           2.5126   -2.4074   -0.9824 C.ar    1  UNL1       -0.0023
     15 C           3.0316   -3.5120   -1.8098 C.3     1  UNL1       -0.0064
     16 C           2.4674   -3.3949   -3.2005 C.3     1  UNL1       -0.0556
     17 C           4.5326   -3.5055   -1.8526 C.3     1  UNL1       -0.0556
     18 C           2.4903   -4.8031   -1.2183 C.3     1  UNL1       -0.0556
     19 S           3.1909   -0.7933   -0.7458 S.2     1  UNL1       -0.0771
     20 C           2.0205   -0.1616    0.3168 C.ar    1  UNL1        0.0853
     21 N           1.9824    1.1401    0.8903 N.am    1  UNL1       -0.2629
     22 C           3.0414    2.0622    0.6208 C.2     1  UNL1        0.3085
     23 O           3.9704    1.6929   -0.1130 O.2     1  UNL1       -0.2521
     24 N           3.0561    3.3706    1.1640 N.am    1  UNL1       -0.2678
     25 C           4.1208    4.2691    0.8811 C.ar    1  UNL1        0.0546
     26 C           3.9834    5.0800   -0.2297 C.ar    1  UNL1       -0.0389
     27 C           4.9813    5.9935   -0.5830 C.ar    1  UNL1       -0.0585
     28 C           6.1180    6.0995    0.1711 C.ar    1  UNL1       -0.0419
     29 C           6.2435    5.2836    1.2788 C.ar    1  UNL1        0.0610
     30 CL          7.6940    5.4054    2.2590 Cl      1  UNL1       -0.0820
     31 C           5.2584    4.3857    1.6229 C.ar    1  UNL1        0.0804
     32 CL          5.4519    3.3650    3.0378 Cl      1  UNL1       -0.0801
     33 C          -1.5824   -2.7676    0.4749 C.3     1  UNL1        0.0233
     34 C          -3.1182   -2.9730    0.4535 C.3     1  UNL1        0.0399
     35 C          -3.8230   -1.6629    0.3625 C.2     1  UNL1        0.2171
     36 O          -4.4673   -1.5081   -0.6984 O.2     1  UNL1       -0.2755
     37 H          -4.0909    2.8163   -1.3040 H       1  UNL1        0.0391
     38 H          -5.9382    2.9678   -1.2831 H       1  UNL1        0.0391
     39 H          -5.0855    2.2051   -2.6955 H       1  UNL1        0.0391
     40 H          -6.6877    0.6750   -2.3073 H       1  UNL1        0.0391
     41 H          -7.2154    1.5251   -0.7680 H       1  UNL1        0.0391
     42 H          -6.8883   -0.2579   -0.8010 H       1  UNL1        0.0391
     43 H          -4.2560    2.0497    0.6672 H       1  UNL1        0.0442
     44 H          -6.0731    1.9877    0.7759 H       1  UNL1        0.0442
     45 H          -6.0056   -0.3871    1.1706 H       1  UNL1        0.0477
     46 H          -5.1513    0.5100    2.4537 H       1  UNL1        0.0477
     47 H          -3.2028    0.3743    3.0220 H       1  UNL1        0.0480
     48 H          -2.1261    0.5507    1.5866 H       1  UNL1        0.0480
     49 H          -1.4886   -1.1391    3.4694 H       1  UNL1        0.0480
     50 H          -2.8536   -2.1752    2.7912 H       1  UNL1        0.0480
     51 H           0.7597   -3.3009   -0.1368 H       1  UNL1        0.0634
     52 H           2.8193   -4.2824   -3.7820 H       1  UNL1        0.0238
     53 H           2.8297   -2.4899   -3.7306 H       1  UNL1        0.0238
     54 H           1.3673   -3.4311   -3.1808 H       1  UNL1        0.0238
     55 H           4.8469   -3.6930   -2.9001 H       1  UNL1        0.0238
     56 H           4.9557   -2.5653   -1.4622 H       1  UNL1        0.0238
     57 H           4.9313   -4.3444   -1.2338 H       1  UNL1        0.0238
     58 H           2.9983   -5.6934   -1.6635 H       1  UNL1        0.0238
     59 H           1.4253   -4.8755   -1.5486 H       1  UNL1        0.0238
     60 H           2.4902   -4.8151   -0.1276 H       1  UNL1        0.0238
     61 H           1.2238    1.4367    1.4762 H       1  UNL1        0.1569
     62 H           2.2497    3.6271    1.7739 H       1  UNL1        0.1564
     63 H           3.1112    5.0379   -0.8567 H       1  UNL1        0.0637
     64 H           4.8713    6.6295   -1.4562 H       1  UNL1        0.0619
     65 H           6.8678    6.8124   -0.1275 H       1  UNL1        0.0633
     66 H          -1.2087   -3.7600    0.7772 H       1  UNL1        0.0469
     67 H          -1.2765   -2.5599   -0.5608 H       1  UNL1        0.0469
     68 H          -3.4132   -3.5835    1.3116 H       1  UNL1        0.0374
     69 H          -3.3240   -3.5342   -0.4707 H       1  UNL1        0.0374
@<TRIPOS>BOND
     1     1     2    1
     2     2     3    1
     3     2     4    1
     4     4     5    1
     5     5     6    1
     6     6     7    1
     7     7     8    1
     8     8     9    1
     9     9    10   am
    10    10    11    2
    11    10    12    1
    12    12    13   ar
    13    13    14   ar
    14    14    15    1
    15    15    16    1
    16    15    17    1
    17    15    18    1
    18    14    19   ar
    19    19    20   ar
    20    20    21    1
    21    21    22   am
    22    22    23    2
    23    22    24   am
    24    24    25    1
    25    25    26   ar
    26    26    27   ar
    27    27    28   ar
    28    28    29   ar
    29    29    30    1
    30    29    31   ar
    31    31    32    1
    32     9    33    1
    33    33    34    1
    34    34    35    1
    35    35    36    2
    36    35     6   am
    37    20    12   ar
    38    31    25   ar
    39     1    37    1
    40     1    38    1
    41     1    39    1
    42     3    40    1
    43     3    41    1
    44     3    42    1
    45     4    43    1
    46     4    44    1
    47     5    45    1
    48     5    46    1
    49     7    47    1
    50     7    48    1
    51     8    49    1
    52     8    50    1
    53    13    51    1
    54    16    52    1
    55    16    53    1
    56    16    54    1
    57    17    55    1
    58    17    56    1
    59    17    57    1
    60    18    58    1
    61    18    59    1
    62    18    60    1
    63    21    61    1
    64    24    62    1
    65    26    63    1
    66    27    64    1
    67    28    65    1
    68    33    66    1
    69    33    67    1
    70    34    68    1
    71    34    69    1
