@<TRIPOS>MOLECULE
*****
 68 70 0 0 0
SMALL
GASTEIGER

@<TRIPOS>ATOM
      1 C          -6.3604    1.3624    2.8409 C.3     1  UNL1       -0.0370
      2 C          -6.3151    0.7543    1.4529 C.3     1  UNL1        0.0766
      3 C          -7.6764    0.3293    1.0152 C.3     1  UNL1       -0.0370
      4 O          -5.6875    1.6162    0.5497 O.3     1  UNL1       -0.2731
      5 N          -4.5097    1.1427    0.0935 N.3     1  UNL1       -0.0419
      6 C          -4.7313    0.2452   -0.9600 C.3     1  UNL1        0.1387
      7 C          -5.1534    0.8691   -2.2336 C.2     1  UNL1        0.2570
      8 O          -4.8205    2.0590   -2.4713 O.2     1  UNL1       -0.2718
      9 N          -5.9257    0.2308   -3.2378 N.am    1  UNL1       -0.1961
     10 O          -6.2699    0.8872   -4.3949 O.3     1  UNL1       -0.2951
     11 C          -3.6459   -0.7960   -1.1141 C.3     1  UNL1       -0.0185
     12 C          -3.9862   -1.7050   -2.2662 C.3     1  UNL1       -0.0607
     13 C          -3.6410   -1.6589    0.1288 C.3     1  UNL1       -0.0607
     14 S          -3.3135    2.2571    0.1973 S.O2    1  UNL1        0.0832
     15 O          -3.4377    3.3981   -0.8168 O.2     1  UNL1       -0.1509
     16 O          -3.5208    3.0203    1.5312 O.2     1  UNL1       -0.1509
     17 C          -1.6648    1.7667    0.2095 C.ar    1  UNL1        0.1077
     18 C          -1.0369    1.3652    1.3673 C.ar    1  UNL1       -0.0347
     19 C           0.2809    0.9884    1.4271 C.ar    1  UNL1       -0.0522
     20 C           1.0230    1.0122    0.2600 C.ar    1  UNL1       -0.0178
     21 C           2.4259    0.6093    0.3441 C.ar    1  UNL1       -0.0177
     22 C           3.1356    0.8559    1.4951 C.ar    1  UNL1       -0.0506
     23 C           4.4667    0.4929    1.6264 C.ar    1  UNL1       -0.0194
     24 C           5.1102   -0.1334    0.5832 C.ar    1  UNL1        0.1210
     25 O           6.4390   -0.5135    0.6719 O.3     1  UNL1       -0.4874
     26 C           7.0691   -1.1544   -0.4196 C.3     1  UNL1        0.1146
     27 C           8.4829   -1.4245   -0.0075 C.ar    1  UNL1       -0.0103
     28 C           9.4527   -0.4718   -0.2581 C.ar    1  UNL1       -0.0540
     29 C          10.7690   -0.6592    0.0980 C.ar    1  UNL1       -0.0430
     30 C          11.1140   -1.8328    0.7208 C.ar    1  UNL1        0.0410
     31 CL         12.7705   -2.1502    1.2090 Cl      1  UNL1       -0.0835
     32 C          10.1607   -2.8065    0.9846 C.ar    1  UNL1       -0.0430
     33 C           8.8309   -2.6002    0.6167 C.ar    1  UNL1       -0.0540
     34 C           4.4097   -0.3821   -0.5652 C.ar    1  UNL1       -0.0194
     35 C           3.0751   -0.0161   -0.6923 C.ar    1  UNL1       -0.0506
     36 C           0.4380    1.4062   -0.9218 C.ar    1  UNL1       -0.0522
     37 C          -0.9101    1.7838   -0.9420 C.ar    1  UNL1       -0.0347
     38 H          -6.0137    0.6372    3.5912 H       1  UNL1        0.0255
     39 H          -7.4289    1.5628    3.0716 H       1  UNL1        0.0255
     40 H          -5.8171    2.3298    2.8657 H       1  UNL1        0.0255
     41 H          -5.6597   -0.1348    1.5181 H       1  UNL1        0.0611
     42 H          -8.4147    0.7667    1.7175 H       1  UNL1        0.0255
     43 H          -7.8749    0.5813   -0.0447 H       1  UNL1        0.0255
     44 H          -7.7668   -0.7670    1.0945 H       1  UNL1        0.0255
     45 H          -5.6493   -0.3529   -0.6429 H       1  UNL1        0.0604
     46 H          -6.2618   -0.7397   -3.1143 H       1  UNL1        0.1822
     47 H          -7.1586    0.5365   -4.6514 H       1  UNL1        0.2414
     48 H          -2.6612   -0.3858   -1.3502 H       1  UNL1        0.0317
     49 H          -3.9645   -1.1076   -3.1973 H       1  UNL1        0.0233
     50 H          -3.1024   -2.4190   -2.3727 H       1  UNL1        0.0233
     51 H          -4.8827   -2.3044   -2.0930 H       1  UNL1        0.0233
     52 H          -2.8143   -2.3985    0.0921 H       1  UNL1        0.0233
     53 H          -3.5123   -1.0757    1.0521 H       1  UNL1        0.0233
     54 H          -4.5870   -2.2189    0.1532 H       1  UNL1        0.0233
     55 H          -1.6141    1.3424    2.2998 H       1  UNL1        0.0637
     56 H           0.7552    0.6725    2.3656 H       1  UNL1        0.0624
     57 H           2.6813    1.3468    2.3525 H       1  UNL1        0.0625
     58 H           4.9877    0.7073    2.5516 H       1  UNL1        0.0654
     59 H           6.5806   -2.1201   -0.6817 H       1  UNL1        0.0748
     60 H           7.0826   -0.5133   -1.3122 H       1  UNL1        0.0748
     61 H           9.1322    0.4415   -0.7519 H       1  UNL1        0.0622
     62 H          11.4917    0.1081   -0.1167 H       1  UNL1        0.0632
     63 H          10.4382   -3.7311    1.4765 H       1  UNL1        0.0632
     64 H           8.0588   -3.3346    0.8044 H       1  UNL1        0.0622
     65 H           4.8838   -0.8694   -1.3984 H       1  UNL1        0.0654
     66 H           2.5265   -0.2083   -1.5846 H       1  UNL1        0.0625
     67 H           1.0283    1.4195   -1.8254 H       1  UNL1        0.0624
     68 H          -1.3104    2.0811   -1.9009 H       1  UNL1        0.0637
@<TRIPOS>BOND
     1     1     2    1
     2     2     3    1
     3     2     4    1
     4     4     5    1
     5     5     6    1
     6     6     7    1
     7     7     8    2
     8     7     9   am
     9     9    10    1
    10     6    11    1
    11    11    12    1
    12    11    13    1
    13     5    14    1
    14    14    15    2
    15    14    16    2
    16    14    17    1
    17    17    18   ar
    18    18    19   ar
    19    19    20   ar
    20    20    21    1
    21    21    22   ar
    22    22    23   ar
    23    23    24   ar
    24    24    25    1
    25    25    26    1
    26    26    27    1
    27    27    28   ar
    28    28    29   ar
    29    29    30   ar
    30    30    31    1
    31    30    32   ar
    32    32    33   ar
    33    24    34   ar
    34    34    35   ar
    35    20    36   ar
    36    36    37   ar
    37    37    17   ar
    38    35    21   ar
    39    33    27   ar
    40     1    38    1
    41     1    39    1
    42     1    40    1
    43     2    41    1
    44     3    42    1
    45     3    43    1
    46     3    44    1
    47     6    45    1
    48     9    46    1
    49    10    47    1
    50    11    48    1
    51    12    49    1
    52    12    50    1
    53    12    51    1
    54    13    52    1
    55    13    53    1
    56    13    54    1
    57    18    55    1
    58    19    56    1
    59    22    57    1
    60    23    58    1
    61    26    59    1
    62    26    60    1
    63    28    61    1
    64    29    62    1
    65    32    63    1
    66    33    64    1
    67    34    65    1
    68    35    66    1
    69    36    67    1
    70    37    68    1
