@<TRIPOS>MOLECULE
*****
 49 50 0 0 0
SMALL
GASTEIGER

@<TRIPOS>ATOM
      1 C          -1.1567   -0.0757    0.1897 C.3     1  UNL1        0.0400
      2 N          -1.4045    1.2965    0.4933 N.3     1  UNL1       -0.3247
      3 C          -2.2665   -0.9558    0.7105 C.3     1  UNL1       -0.0320
      4 C          -3.5987   -0.6087    0.1175 C.3     1  UNL1       -0.0395
      5 C          -4.0812    0.7751    0.3759 C.3     1  UNL1       -0.0502
      6 C          -5.5641    0.8263    0.6792 C.3     1  UNL1       -0.0528
      7 C          -6.4054   -0.0745   -0.1549 C.3     1  UNL1       -0.0530
      8 C          -5.8165   -1.4097   -0.4812 C.3     1  UNL1       -0.0528
      9 C          -4.6416   -1.6583    0.4340 C.3     1  UNL1       -0.0502
     10 C           0.1517   -0.6078    0.7337 C.3     1  UNL1        0.1473
     11 O           0.1207   -0.4740    2.1190 O.3     1  UNL1       -0.3810
     12 C           1.3052    0.2107    0.2570 C.2     1  UNL1        0.2592
     13 O           1.4585    0.4649    1.4751 O.2     1  UNL1       -0.2714
     14 N           1.7712    0.4147   -1.0519 N.am    1  UNL1       -0.2343
     15 N           2.8963    1.2749   -0.9728 N.pl3   1  UNL1       -0.2644
     16 C           4.2626    0.8860   -0.8219 C.ar    1  UNL1        0.0444
     17 C           5.2556    1.8427   -0.7596 C.ar    1  UNL1       -0.0391
     18 C           6.5481    1.4058   -0.6142 C.ar    1  UNL1       -0.0570
     19 C           6.8160    0.0405   -0.5355 C.ar    1  UNL1       -0.0503
     20 C           8.2394   -0.4096   -0.3766 C.3     1  UNL1       -0.0397
     21 C           5.8096   -0.9216   -0.5989 C.ar    1  UNL1       -0.0570
     22 C           4.5127   -0.4643   -0.7455 C.ar    1  UNL1       -0.0391
     23 H          -1.1189   -0.2284   -0.9212 H       1  UNL1        0.0489
     24 H          -0.7540    1.7226    1.1900 H       1  UNL1        0.1186
     25 H          -1.4493    1.9006   -0.3738 H       1  UNL1        0.1186
     26 H          -1.9880   -2.0194    0.4758 H       1  UNL1        0.0284
     27 H          -2.2721   -0.9237    1.8238 H       1  UNL1        0.0284
     28 H          -3.4586   -0.6826   -1.0014 H       1  UNL1        0.0301
     29 H          -3.8159    1.5253   -0.3925 H       1  UNL1        0.0268
     30 H          -3.5927    1.1329    1.3316 H       1  UNL1        0.0268
     31 H          -5.7567    0.7012    1.7821 H       1  UNL1        0.0265
     32 H          -5.8759    1.8764    0.4761 H       1  UNL1        0.0265
     33 H          -6.8026    0.4352   -1.0726 H       1  UNL1        0.0265
     34 H          -7.3453   -0.2618    0.4492 H       1  UNL1        0.0265
     35 H          -6.5672   -2.2064   -0.2656 H       1  UNL1        0.0265
     36 H          -5.5341   -1.5063   -1.5536 H       1  UNL1        0.0265
     37 H          -4.1927   -2.6555    0.2883 H       1  UNL1        0.0268
     38 H          -4.9917   -1.4737    1.4650 H       1  UNL1        0.0268
     39 H           0.2350   -1.6606    0.4390 H       1  UNL1        0.0706
     40 H          -0.6210    0.1076    2.4190 H       1  UNL1        0.2105
     41 H           1.2113   -0.0895   -1.7632 H       1  UNL1        0.1728
     42 H           2.6256    2.3000   -1.0388 H       1  UNL1        0.1700
     43 H           4.9432    2.8785   -0.8302 H       1  UNL1        0.0637
     44 H           7.3204    2.1567   -0.5660 H       1  UNL1        0.0621
     45 H           8.6238   -0.7943   -1.3427 H       1  UNL1        0.0278
     46 H           8.2924   -1.2468    0.3578 H       1  UNL1        0.0278
     47 H           8.8738    0.4162   -0.0405 H       1  UNL1        0.0278
     48 H           6.0847   -1.9664   -0.5317 H       1  UNL1        0.0621
     49 H           3.7145   -1.2159   -0.7963 H       1  UNL1        0.0637
@<TRIPOS>BOND
     1     1     2    1
     2     1     3    1
     3     3     4    1
     4     4     5    1
     5     5     6    1
     6     6     7    1
     7     7     8    1
     8     8     9    1
     9     1    10    1
    10    10    11    1
    11    10    12    1
    12    12    13    2
    13    12    14   am
    14    14    15    1
    15    15    16    1
    16    16    17   ar
    17    17    18   ar
    18    18    19   ar
    19    19    20    1
    20    19    21   ar
    21    21    22   ar
    22     9     4    1
    23    22    16   ar
    24     1    23    1
    25     2    24    1
    26     2    25    1
    27     3    26    1
    28     3    27    1
    29     4    28    1
    30     5    29    1
    31     5    30    1
    32     6    31    1
    33     6    32    1
    34     7    33    1
    35     7    34    1
    36     8    35    1
    37     8    36    1
    38     9    37    1
    39     9    38    1
    40    10    39    1
    41    11    40    1
    42    14    41    1
    43    15    42    1
    44    17    43    1
    45    18    44    1
    46    20    45    1
    47    20    46    1
    48    20    47    1
    49    21    48    1
    50    22    49    1
