
     RDKit          3D

 46 49  0  0  0  0  0  0  0  0999 V2000
    6.5396   -1.8307    0.4731 C   0  0  0  0  0  0  0  0  0  0  0  0
    6.2935   -0.3802    0.0919 C   0  0  0  0  0  0  0  0  0  0  0  0
    7.2327    0.5183    0.8477 C   0  0  0  0  0  0  0  0  0  0  0  0
    4.9244    0.0313    0.3561 C   0  0  0  0  0  0  0  0  0  0  0  0
    4.3371    0.2586    1.5275 N   0  0  0  0  0  0  0  0  0  0  0  0
    3.0989    0.6044    1.3288 O   0  0  0  0  0  0  0  0  0  0  0  0
    2.8245    0.6184    0.0541 C   0  0  0  0  0  0  0  0  0  0  0  0
    1.5359    0.9584   -0.5396 C   0  0  0  0  0  0  0  0  0  0  0  0
    1.2759    1.9756   -1.3900 N   0  0  0  0  0  0  0  0  0  0  0  0
   -0.0061    1.9613   -1.7112 N   0  0  0  0  0  0  0  0  0  0  0  0
   -0.6204    0.9298   -1.0768 C   0  0  0  0  0  0  0  0  0  0  0  0
    0.3401    0.3359   -0.3703 N   0  0  0  0  0  0  0  0  0  0  0  0
    0.0466   -0.8225    0.4497 C   0  0  0  0  0  0  0  0  0  0  0  0
   -1.0605   -1.5936   -0.2407 C   0  0  0  0  0  0  0  0  0  0  0  0
   -2.2055   -0.6809   -0.2777 N   0  0  0  0  0  0  0  0  0  0  0  0
   -3.3735   -0.9676    0.4755 C   0  0  0  0  0  0  0  0  0  0  0  0
   -3.4078   -2.0257    1.1720 O   0  0  0  0  0  0  0  0  0  0  0  0
   -4.5488   -0.1318    0.5130 C   0  0  0  0  0  0  0  0  0  0  0  0
   -4.9331    0.4622    1.7094 C   0  0  0  0  0  0  0  0  0  0  0  0
   -6.0505    1.2665    1.7743 C   0  0  0  0  0  0  0  0  0  0  0  0
   -6.8183    1.5019    0.6442 C   0  0  0  0  0  0  0  0  0  0  0  0
   -7.9320    2.3004    0.6919 F   0  0  0  0  0  0  0  0  0  0  0  0
   -6.4116    0.9029   -0.5135 C   0  0  0  0  0  0  0  0  0  0  0  0
   -5.3039    0.0970   -0.6100 C   0  0  0  0  0  0  0  0  0  0  0  0
   -2.0440    0.4853   -1.1133 C   0  0  2  0  0  0  0  0  0  0  0  0
   -2.3206    0.0075   -2.5446 C   0  0  0  0  0  0  0  0  0  0  0  0
    3.9658    0.2589   -0.5813 N   0  0  0  0  0  0  0  0  0  0  0  0
    5.8707   -2.4830   -0.1067 H   0  0  0  0  0  0  0  0  0  0  0  0
    6.3708   -1.9903    1.5571 H   0  0  0  0  0  0  0  0  0  0  0  0
    7.6141   -2.0410    0.2089 H   0  0  0  0  0  0  0  0  0  0  0  0
    6.4955   -0.3212   -1.0147 H   0  0  0  0  0  0  0  0  0  0  0  0
    7.2760    1.5307    0.4128 H   0  0  0  0  0  0  0  0  0  0  0  0
    8.2493    0.0805    0.8952 H   0  0  0  0  0  0  0  0  0  0  0  0
    6.8196    0.6274    1.8912 H   0  0  0  0  0  0  0  0  0  0  0  0
    0.9424   -1.4267    0.6646 H   0  0  0  0  0  0  0  0  0  0  0  0
   -0.4231   -0.4169    1.3855 H   0  0  0  0  0  0  0  0  0  0  0  0
   -1.3190   -2.4731    0.3824 H   0  0  0  0  0  0  0  0  0  0  0  0
   -0.7964   -1.8610   -1.2867 H   0  0  0  0  0  0  0  0  0  0  0  0
   -4.3900    0.3307    2.6367 H   0  0  0  0  0  0  0  0  0  0  0  0
   -6.3734    1.7414    2.6950 H   0  0  0  0  0  0  0  0  0  0  0  0
   -7.0029    1.0799   -1.4093 H   0  0  0  0  0  0  0  0  0  0  0  0
   -5.0379   -0.3552   -1.5833 H   0  0  0  0  0  0  0  0  0  0  0  0
   -2.6736    1.3298   -0.8360 H   0  0  0  0  0  0  0  0  0  0  0  0
   -2.9240   -0.9267   -2.5456 H   0  0  0  0  0  0  0  0  0  0  0  0
   -1.3366   -0.2817   -2.9696 H   0  0  0  0  0  0  0  0  0  0  0  0
   -2.7396    0.8148   -3.1555 H   0  0  0  0  0  0  0  0  0  0  0  0
  1  2  1  0
  2  3  1  0
  2  4  1  0
  4  5  2  0
  5  6  1  0
  6  7  1  0
  7  8  1  0
  8  9  2  0
  9 10  1  0
 10 11  2  0
 11 12  1  0
 12 13  1  0
 13 14  1  0
 14 15  1  0
 15 16  1  0
 16 17  2  0
 16 18  1  0
 18 19  2  0
 19 20  1  0
 20 21  2  0
 21 22  1  0
 21 23  1  0
 23 24  2  0
 15 25  1  0
 25 26  1  0
  7 27  2  0
 27  4  1  0
 12  8  1  0
 24 18  1  0
 25 11  1  0
  1 28  1  0
  1 29  1  0
  1 30  1  0
  2 31  1  0
  3 32  1  0
  3 33  1  0
  3 34  1  0
 13 35  1  0
 13 36  1  0
 14 37  1  0
 14 38  1  0
 19 39  1  0
 20 40  1  0
 23 41  1  0
 24 42  1  0
 25 43  1  1
 26 44  1  0
 26 45  1  0
 26 46  1  0
M  END
$$$$
