@<TRIPOS>MOLECULE
*****
 46 49 0 0 0
SMALL
GASTEIGER

@<TRIPOS>ATOM
      1 C           6.5396   -1.8307    0.4731 C.3     1  UNL1       -0.0556
      2 C           6.2935   -0.3802    0.0919 C.3     1  UNL1        0.0167
      3 C           7.2327    0.5183    0.8477 C.3     1  UNL1       -0.0556
      4 C           4.9244    0.0313    0.3561 C.ar    1  UNL1        0.1747
      5 N           4.3371    0.2586    1.5275 N.ar    1  UNL1       -0.0605
      6 O           3.0989    0.6044    1.3288 O.2     1  UNL1       -0.3295
      7 C           2.8245    0.6184    0.0541 C.ar    1  UNL1        0.2958
      8 C           1.5359    0.9584   -0.5396 C.ar    1  UNL1        0.2221
      9 N           1.2759    1.9756   -1.3900 N.ar    1  UNL1       -0.1241
     10 N          -0.0061    1.9613   -1.7112 N.ar    1  UNL1       -0.1319
     11 C          -0.6204    0.9298   -1.0768 C.ar    1  UNL1        0.1542
     12 N           0.3401    0.3359   -0.3703 N.ar    1  UNL1       -0.3040
     13 C           0.0466   -0.8225    0.4497 C.3     1  UNL1        0.0424
     14 C          -1.0605   -1.5936   -0.2407 C.3     1  UNL1        0.0338
     15 N          -2.2055   -0.6809   -0.2777 N.am    1  UNL1       -0.2860
     16 C          -3.3735   -0.9676    0.4755 C.2     1  UNL1        0.2472
     17 O          -3.4078   -2.0257    1.1720 O.2     1  UNL1       -0.2700
     18 C          -4.5488   -0.1318    0.5130 C.ar    1  UNL1        0.0371
     19 C          -4.9331    0.4622    1.7094 C.ar    1  UNL1       -0.0469
     20 C          -6.0505    1.2665    1.7743 C.ar    1  UNL1       -0.0257
     21 C          -6.8183    1.5019    0.6442 C.ar    1  UNL1        0.1234
     22 F          -7.9320    2.3004    0.6919 F       1  UNL1       -0.2055
     23 C          -6.4116    0.9029   -0.5135 C.ar    1  UNL1       -0.0257
     24 C          -5.3039    0.0970   -0.6100 C.ar    1  UNL1       -0.0469
     25 C          -2.0440    0.4853   -1.1133 C.3     1  UNL1        0.0834
     26 C          -2.3206    0.0075   -2.5446 C.3     1  UNL1       -0.0393
     27 N           3.9658    0.2589   -0.5813 N.ar    1  UNL1       -0.1889
     28 H           5.8707   -2.4830   -0.1067 H       1  UNL1        0.0236
     29 H           6.3708   -1.9903    1.5571 H       1  UNL1        0.0236
     30 H           7.6141   -2.0410    0.2089 H       1  UNL1        0.0236
     31 H           6.4955   -0.3212   -1.0147 H       1  UNL1        0.0375
     32 H           7.2760    1.5307    0.4128 H       1  UNL1        0.0236
     33 H           8.2493    0.0805    0.8952 H       1  UNL1        0.0236
     34 H           6.8196    0.6274    1.8912 H       1  UNL1        0.0236
     35 H           0.9424   -1.4267    0.6646 H       1  UNL1        0.0508
     36 H          -0.4231   -0.4169    1.3855 H       1  UNL1        0.0508
     37 H          -1.3190   -2.4731    0.3824 H       1  UNL1        0.0482
     38 H          -0.7964   -1.8610   -1.2867 H       1  UNL1        0.0482
     39 H          -4.3900    0.3307    2.6367 H       1  UNL1        0.0626
     40 H          -6.3734    1.7414    2.6950 H       1  UNL1        0.0646
     41 H          -7.0029    1.0799   -1.4093 H       1  UNL1        0.0646
     42 H          -5.0379   -0.3552   -1.5833 H       1  UNL1        0.0626
     43 H          -2.6736    1.3298   -0.8360 H       1  UNL1        0.0579
     44 H          -2.9240   -0.9267   -2.5456 H       1  UNL1        0.0252
     45 H          -1.3366   -0.2817   -2.9696 H       1  UNL1        0.0252
     46 H          -2.7396    0.8148   -3.1555 H       1  UNL1        0.0252
@<TRIPOS>BOND
     1     1     2    1
     2     2     3    1
     3     2     4    1
     4     4     5   ar
     5     5     6   ar
     6     6     7   ar
     7     7     8    1
     8     8     9   ar
     9     9    10   ar
    10    10    11   ar
    11    11    12   ar
    12    12    13    1
    13    13    14    1
    14    14    15    1
    15    15    16   am
    16    16    17    2
    17    16    18    1
    18    18    19   ar
    19    19    20   ar
    20    20    21   ar
    21    21    22    1
    22    21    23   ar
    23    23    24   ar
    24    15    25    1
    25    25    26    1
    26     7    27   ar
    27    27     4   ar
    28    12     8   ar
    29    24    18   ar
    30    25    11    1
    31     1    28    1
    32     1    29    1
    33     1    30    1
    34     2    31    1
    35     3    32    1
    36     3    33    1
    37     3    34    1
    38    13    35    1
    39    13    36    1
    40    14    37    1
    41    14    38    1
    42    19    39    1
    43    20    40    1
    44    23    41    1
    45    24    42    1
    46    25    43    1
    47    26    44    1
    48    26    45    1
    49    26    46    1
