
     RDKit          3D

 58 63  0  0  0  0  0  0  0  0999 V2000
   -6.4193    1.2459   -2.4964 C   0  0  0  0  0  0  0  0  0  0  0  0
   -5.2566    1.0665   -1.7141 O   0  0  0  0  0  0  0  0  0  0  0  0
   -4.7679    2.1513   -1.0017 C   0  0  0  0  0  0  0  0  0  0  0  0
   -5.3431    3.3760   -1.0128 N   0  0  0  0  0  0  0  0  0  0  0  0
   -4.8500    4.4101   -0.3139 C   0  0  0  0  0  0  0  0  0  0  0  0
   -3.7236    4.2413    0.4453 C   0  0  0  0  0  0  0  0  0  0  0  0
   -3.1324    3.0087    0.4654 C   0  0  0  0  0  0  0  0  0  0  0  0
   -3.6186    1.9278   -0.2440 C   0  0  0  0  0  0  0  0  0  0  0  0
   -2.9913    0.6552   -0.2109 N   0  0  0  0  0  0  0  0  0  0  0  0
   -3.6120   -0.5108   -0.0889 N   0  0  0  0  0  0  0  0  0  0  0  0
   -2.7443   -1.5200   -0.0895 C   0  0  0  0  0  0  0  0  0  0  0  0
   -3.0380   -2.9708    0.0262 C   0  0  0  0  0  0  0  0  0  0  0  0
   -1.4754   -0.9135   -0.2244 C   0  0  0  0  0  0  0  0  0  0  0  0
   -1.6507    0.4352   -0.2981 C   0  0  0  0  0  0  0  0  0  0  0  0
   -0.3439    1.0437   -0.4374 C   0  0  0  0  0  0  0  0  0  0  0  0
   -0.0776    2.2919   -0.5384 O   0  0  0  0  0  0  0  0  0  0  0  0
    0.6296    0.0226   -0.4460 N   0  0  0  0  0  0  0  0  0  0  0  0
    2.0704    0.2102   -0.5721 C   0  0  0  0  0  0  0  0  0  0  0  0
    2.6692    0.2247   -1.8024 C   0  0  0  0  0  0  0  0  0  0  0  0
    4.0215    0.4012   -1.8983 C   0  0  0  0  0  0  0  0  0  0  0  0
    4.7480    0.4292   -3.2020 C   0  0  0  0  0  0  0  0  0  0  0  0
    4.7541    0.5621   -0.7342 C   0  0  0  0  0  0  0  0  0  0  0  0
    6.0795    0.7510   -0.5279 N   0  0  0  0  0  0  0  0  0  0  0  0
    6.2912    0.8492    0.7770 N   0  0  0  0  0  0  0  0  0  0  0  0
    5.1348    0.7297    1.4429 C   0  0  0  0  0  0  0  0  0  0  0  0
    4.8741    0.7725    2.8992 C   0  0  0  0  0  0  0  0  0  0  0  0
    4.1906    0.5514    0.4789 N   0  0  0  0  0  0  0  0  0  0  0  0
    2.8638    0.3764    0.5389 C   0  0  0  0  0  0  0  0  0  0  0  0
   -0.0687   -1.2178   -0.3073 C   0  0  0  0  0  0  0  0  0  0  0  0
    0.4573   -2.0988    0.7344 C   0  0  0  0  0  0  0  0  0  0  0  0
    0.2301   -1.7731    2.0553 C   0  0  0  0  0  0  0  0  0  0  0  0
    0.7218   -2.5985    3.0510 C   0  0  0  0  0  0  0  0  0  0  0  0
    1.4323   -3.7356    2.7107 C   0  0  0  0  0  0  0  0  0  0  0  0
    1.9460   -4.5938    3.6107 F   0  0  0  0  0  0  0  0  0  0  0  0
    1.6519   -4.0481    1.3641 C   0  0  0  0  0  0  0  0  0  0  0  0
    1.1581   -3.2192    0.3706 C   0  0  0  0  0  0  0  0  0  0  0  0
    1.4078   -3.5824   -0.9121 F   0  0  0  0  0  0  0  0  0  0  0  0
   -6.3509    0.6603   -3.4430 H   0  0  0  0  0  0  0  0  0  0  0  0
   -7.3191    0.8694   -1.9489 H   0  0  0  0  0  0  0  0  0  0  0  0
   -6.5583    2.3087   -2.8135 H   0  0  0  0  0  0  0  0  0  0  0  0
   -5.3175    5.3753   -0.3329 H   0  0  0  0  0  0  0  0  0  0  0  0
   -3.3321    5.0658    1.0015 H   0  0  0  0  0  0  0  0  0  0  0  0
   -2.2353    2.8556    1.0646 H   0  0  0  0  0  0  0  0  0  0  0  0
   -2.5813   -3.5264   -0.8316 H   0  0  0  0  0  0  0  0  0  0  0  0
   -2.7177   -3.3907    0.9981 H   0  0  0  0  0  0  0  0  0  0  0  0
   -4.1287   -3.1510   -0.0574 H   0  0  0  0  0  0  0  0  0  0  0  0
    2.0933    0.0988   -2.7068 H   0  0  0  0  0  0  0  0  0  0  0  0
    5.5366    1.1858   -3.1429 H   0  0  0  0  0  0  0  0  0  0  0  0
    4.0624    0.5289   -4.0483 H   0  0  0  0  0  0  0  0  0  0  0  0
    5.2395   -0.5639   -3.2974 H   0  0  0  0  0  0  0  0  0  0  0  0
    3.9404    0.2244    3.1364 H   0  0  0  0  0  0  0  0  0  0  0  0
    5.7155    0.3196    3.4616 H   0  0  0  0  0  0  0  0  0  0  0  0
    4.7539    1.8005    3.2937 H   0  0  0  0  0  0  0  0  0  0  0  0
    2.4110    0.3686    1.5236 H   0  0  0  0  0  0  0  0  0  0  0  0
    0.1036   -1.7502   -1.3030 H   0  0  0  0  0  0  0  0  0  0  0  0
   -0.3224   -0.8906    2.3674 H   0  0  0  0  0  0  0  0  0  0  0  0
    0.5806   -2.4032    4.0913 H   0  0  0  0  0  0  0  0  0  0  0  0
    2.2075   -4.9368    1.0899 H   0  0  0  0  0  0  0  0  0  0  0  0
  1  2  1  0
  2  3  1  0
  3  4  2  0
  4  5  1  0
  5  6  2  0
  6  7  1  0
  7  8  2  0
  8  9  1  0
  9 10  1  0
 10 11  2  0
 11 12  1  0
 11 13  1  0
 13 14  2  0
 14 15  1  0
 15 16  2  0
 15 17  1  0
 17 18  1  0
 18 19  1  0
 19 20  2  0
 20 21  1  0
 20 22  1  0
 22 23  2  0
 23 24  1  0
 24 25  2  0
 25 26  1  0
 25 27  1  0
 27 28  1  0
 17 29  1  0
 29 30  1  0
 30 31  2  0
 31 32  1  0
 32 33  2  0
 33 34  1  0
 33 35  1  0
 35 36  2  0
 36 37  1  0
  8  3  1  0
 14  9  1  0
 28 18  2  0
 36 30  1  0
 29 13  1  0
 27 22  1  0
  1 38  1  0
  1 39  1  0
  1 40  1  0
  5 41  1  0
  6 42  1  0
  7 43  1  0
 12 44  1  0
 12 45  1  0
 12 46  1  0
 19 47  1  0
 21 48  1  0
 21 49  1  0
 21 50  1  0
 26 51  1  0
 26 52  1  0
 26 53  1  0
 28 54  1  0
 29 55  1  0
 31 56  1  0
 32 57  1  0
 35 58  1  0
M  END
$$$$
