@<TRIPOS>MOLECULE
*****
 58 63 0 0 0
SMALL
GASTEIGER

@<TRIPOS>ATOM
      1 C          -6.4193    1.2459   -2.4964 C.3     1  UNL1        0.0805
      2 O          -5.2566    1.0665   -1.7141 O.3     1  UNL1       -0.4782
      3 C          -4.7679    2.1513   -1.0017 C.ar    1  UNL1        0.2408
      4 N          -5.3431    3.3760   -1.0128 N.ar    1  UNL1       -0.2195
      5 C          -4.8500    4.4101   -0.3139 C.ar    1  UNL1        0.0315
      6 C          -3.7236    4.2413    0.4453 C.ar    1  UNL1       -0.0413
      7 C          -3.1324    3.0087    0.4654 C.ar    1  UNL1       -0.0296
      8 C          -3.6186    1.9278   -0.2440 C.ar    1  UNL1        0.1275
      9 N          -2.9913    0.6552   -0.2109 N.ar    1  UNL1       -0.2219
     10 N          -3.6120   -0.5108   -0.0889 N.ar    1  UNL1       -0.1704
     11 C          -2.7443   -1.5200   -0.0895 C.ar    1  UNL1        0.0664
     12 C          -3.0380   -2.9708    0.0262 C.3     1  UNL1       -0.0202
     13 C          -1.4754   -0.9135   -0.2244 C.ar    1  UNL1        0.0310
     14 C          -1.6507    0.4352   -0.2981 C.ar    1  UNL1        0.1353
     15 C          -0.3439    1.0437   -0.4374 C.2     1  UNL1        0.2705
     16 O          -0.0776    2.2919   -0.5384 O.2     1  UNL1       -0.2679
     17 N           0.6296    0.0226   -0.4460 N.am    1  UNL1       -0.2530
     18 C           2.0704    0.2102   -0.5721 C.ar    1  UNL1        0.0545
     19 C           2.6692    0.2247   -1.8024 C.ar    1  UNL1       -0.0324
     20 C           4.0215    0.4012   -1.8983 C.ar    1  UNL1       -0.0041
     21 C           4.7480    0.4292   -3.2020 C.3     1  UNL1       -0.0361
     22 C           4.7541    0.5621   -0.7342 C.ar    1  UNL1        0.1641
     23 N           6.0795    0.7510   -0.5279 N.ar    1  UNL1       -0.1292
     24 N           6.2912    0.8492    0.7770 N.ar    1  UNL1       -0.1340
     25 C           5.1348    0.7297    1.4429 C.ar    1  UNL1        0.1347
     26 C           4.8741    0.7725    2.8992 C.3     1  UNL1       -0.0041
     27 N           4.1906    0.5514    0.4789 N.ar    1  UNL1       -0.2846
     28 C           2.8638    0.3764    0.5389 C.ar    1  UNL1        0.0344
     29 C          -0.0687   -1.2178   -0.3073 C.3     1  UNL1        0.0881
     30 C           0.4573   -2.0988    0.7344 C.ar    1  UNL1        0.0132
     31 C           0.2301   -1.7731    2.0553 C.ar    1  UNL1       -0.0510
     32 C           0.7218   -2.5985    3.0510 C.ar    1  UNL1       -0.0259
     33 C           1.4323   -3.7356    2.7107 C.ar    1  UNL1        0.1261
     34 F           1.9460   -4.5938    3.6107 F       1  UNL1       -0.2054
     35 C           1.6519   -4.0481    1.3641 C.ar    1  UNL1        0.0091
     36 C           1.1581   -3.2192    0.3706 C.ar    1  UNL1        0.1314
     37 F           1.4078   -3.5824   -0.9121 F       1  UNL1       -0.2050
     38 H          -6.3509    0.6603   -3.4430 H       1  UNL1        0.0660
     39 H          -7.3191    0.8694   -1.9489 H       1  UNL1        0.0660
     40 H          -6.5583    2.3087   -2.8135 H       1  UNL1        0.0660
     41 H          -5.3175    5.3753   -0.3329 H       1  UNL1        0.0831
     42 H          -3.3321    5.0658    1.0015 H       1  UNL1        0.0633
     43 H          -2.2353    2.8556    1.0646 H       1  UNL1        0.0641
     44 H          -2.5813   -3.5264   -0.8316 H       1  UNL1        0.0293
     45 H          -2.7177   -3.3907    0.9981 H       1  UNL1        0.0293
     46 H          -4.1287   -3.1510   -0.0574 H       1  UNL1        0.0293
     47 H           2.0933    0.0988   -2.7068 H       1  UNL1        0.0640
     48 H           5.5366    1.1858   -3.1429 H       1  UNL1        0.0279
     49 H           4.0624    0.5289   -4.0483 H       1  UNL1        0.0279
     50 H           5.2395   -0.5639   -3.2974 H       1  UNL1        0.0279
     51 H           3.9404    0.2244    3.1364 H       1  UNL1        0.0308
     52 H           5.7155    0.3196    3.4616 H       1  UNL1        0.0308
     53 H           4.7539    1.8005    3.2937 H       1  UNL1        0.0308
     54 H           2.4110    0.3686    1.5236 H       1  UNL1        0.0833
     55 H           0.1036   -1.7502   -1.3030 H       1  UNL1        0.0607
     56 H          -0.3224   -0.8906    2.3674 H       1  UNL1        0.0623
     57 H           0.5806   -2.4032    4.0913 H       1  UNL1        0.0646
     58 H           2.2075   -4.9368    1.0899 H       1  UNL1        0.0675
@<TRIPOS>BOND
     1     1     2    1
     2     2     3    1
     3     3     4   ar
     4     4     5   ar
     5     5     6   ar
     6     6     7   ar
     7     7     8   ar
     8     8     9    1
     9     9    10   ar
    10    10    11   ar
    11    11    12    1
    12    11    13   ar
    13    13    14   ar
    14    14    15    1
    15    15    16    2
    16    15    17   am
    17    17    18    1
    18    18    19   ar
    19    19    20   ar
    20    20    21    1
    21    20    22   ar
    22    22    23   ar
    23    23    24   ar
    24    24    25   ar
    25    25    26    1
    26    25    27   ar
    27    27    28   ar
    28    17    29    1
    29    29    30    1
    30    30    31   ar
    31    31    32   ar
    32    32    33   ar
    33    33    34    1
    34    33    35   ar
    35    35    36   ar
    36    36    37    1
    37     8     3   ar
    38    14     9   ar
    39    28    18   ar
    40    36    30   ar
    41    29    13    1
    42    27    22   ar
    43     1    38    1
    44     1    39    1
    45     1    40    1
    46     5    41    1
    47     6    42    1
    48     7    43    1
    49    12    44    1
    50    12    45    1
    51    12    46    1
    52    19    47    1
    53    21    48    1
    54    21    49    1
    55    21    50    1
    56    26    51    1
    57    26    52    1
    58    26    53    1
    59    28    54    1
    60    29    55    1
    61    31    56    1
    62    32    57    1
    63    35    58    1
