@<TRIPOS>MOLECULE
*****
 51 55 0 0 0
SMALL
GASTEIGER

@<TRIPOS>ATOM
      1 C          -4.7767   -2.4585    0.0787 C.3     1  UNL1        0.0790
      2 O          -3.8394   -1.4301   -0.0065 O.3     1  UNL1       -0.4915
      3 C          -2.4648   -1.6236    0.0768 C.ar    1  UNL1        0.1615
      4 C          -2.0514   -2.9280    0.2542 C.ar    1  UNL1       -0.0157
      5 C          -0.7070   -3.1788    0.3431 C.ar    1  UNL1       -0.0491
      6 C           0.2464   -2.2020    0.2650 C.ar    1  UNL1        0.0025
      7 C           1.6925   -2.5641    0.3739 C.2     1  UNL1        0.0795
      8 N           2.5716   -1.6779    0.2992 N.2     1  UNL1       -0.1662
      9 N           3.9509   -1.7302    0.3649 N.ar    1  UNL1       -0.1864
     10 C           4.5688   -2.9053    0.5391 C.ar    1  UNL1        0.2128
     11 N           5.8839   -2.6266    0.5696 N.ar    1  UNL1       -0.1203
     12 N           6.0850   -1.3487    0.4228 N.ar    1  UNL1       -0.1264
     13 C           4.8673   -0.7338    0.2875 C.ar    1  UNL1        0.1885
     14 C           4.6899    0.6962    0.1035 C.ar    1  UNL1        0.0561
     15 C           3.4698    1.3013   -0.0396 C.ar    1  UNL1       -0.0482
     16 C           3.3386    2.6850   -0.2140 C.ar    1  UNL1       -0.0609
     17 C           4.4468    3.5015   -0.2489 C.ar    1  UNL1       -0.0590
     18 C           5.6794    2.9044   -0.1061 C.ar    1  UNL1       -0.0257
     19 C           5.7925    1.5296    0.0662 C.ar    1  UNL1        0.1341
     20 F           7.0111    0.9471    0.2063 F       1  UNL1       -0.2047
     21 S           3.6371   -4.3989    0.6680 S.3     1  UNL1       -0.0780
     22 C           1.9180   -4.0032    0.5775 C.3     1  UNL1        0.0458
     23 C          -0.1761   -0.9171    0.0896 C.ar    1  UNL1       -0.0073
     24 C          -1.5573   -0.6042   -0.0085 C.ar    1  UNL1        0.1629
     25 O          -1.9420    0.6770   -0.1818 O.3     1  UNL1       -0.4851
     26 C          -3.0973    1.3645   -0.3159 C.3     1  UNL1        0.1004
     27 C          -3.2409    2.4653    0.7616 C.3     1  UNL1       -0.0158
     28 C          -4.4115    3.2430    0.2218 C.3     1  UNL1       -0.0496
     29 C          -4.4498    3.0245   -1.2673 C.3     1  UNL1       -0.0496
     30 C          -3.1544    2.2556   -1.5558 C.3     1  UNL1       -0.0158
     31 H          -4.7028   -3.1992   -0.7372 H       1  UNL1        0.0660
     32 H          -5.8018   -2.0444    0.0525 H       1  UNL1        0.0660
     33 H          -4.7106   -3.0120    1.0583 H       1  UNL1        0.0660
     34 H          -2.7594   -3.7420    0.3230 H       1  UNL1        0.0655
     35 H          -0.4146   -4.2124    0.4811 H       1  UNL1        0.0625
     36 H           2.6072    0.6647   -0.0133 H       1  UNL1        0.0625
     37 H           2.3578    3.1173   -0.3224 H       1  UNL1        0.0618
     38 H           4.3384    4.5780   -0.3850 H       1  UNL1        0.0618
     39 H           6.5556    3.5378   -0.1323 H       1  UNL1        0.0646
     40 H           1.4583   -4.5092   -0.3411 H       1  UNL1        0.0445
     41 H           1.3455   -4.3703    1.4825 H       1  UNL1        0.0445
     42 H           0.5028   -0.1017    0.0198 H       1  UNL1        0.0662
     43 H          -4.0062    0.7679   -0.2823 H       1  UNL1        0.0733
     44 H          -2.3010    3.0550    0.7382 H       1  UNL1        0.0301
     45 H          -3.4259    2.0255    1.7432 H       1  UNL1        0.0301
     46 H          -5.3707    2.9589    0.6970 H       1  UNL1        0.0266
     47 H          -4.2552    4.3307    0.3851 H       1  UNL1        0.0266
     48 H          -4.5342    3.9362   -1.8578 H       1  UNL1        0.0266
     49 H          -5.2714    2.3091   -1.5354 H       1  UNL1        0.0266
     50 H          -3.2751    1.6922   -2.4801 H       1  UNL1        0.0301
     51 H          -2.3179    2.9537   -1.5188 H       1  UNL1        0.0301
@<TRIPOS>BOND
     1     1     2    1
     2     2     3    1
     3     3     4   ar
     4     4     5   ar
     5     5     6   ar
     6     6     7    1
     7     7     8    2
     8     8     9    1
     9     9    10   ar
    10    10    11   ar
    11    11    12   ar
    12    12    13   ar
    13    13    14    1
    14    14    15   ar
    15    15    16   ar
    16    16    17   ar
    17    17    18   ar
    18    18    19   ar
    19    19    20    1
    20    10    21    1
    21    21    22    1
    22     6    23   ar
    23    23    24   ar
    24    24    25    1
    25    25    26    1
    26    26    27    1
    27    27    28    1
    28    28    29    1
    29    29    30    1
    30    24     3   ar
    31    30    26    1
    32    22     7    1
    33    13     9   ar
    34    19    14   ar
    35     1    31    1
    36     1    32    1
    37     1    33    1
    38     4    34    1
    39     5    35    1
    40    15    36    1
    41    16    37    1
    42    17    38    1
    43    18    39    1
    44    22    40    1
    45    22    41    1
    46    23    42    1
    47    26    43    1
    48    27    44    1
    49    27    45    1
    50    28    46    1
    51    28    47    1
    52    29    48    1
    53    29    49    1
    54    30    50    1
    55    30    51    1
