@<TRIPOS>MOLECULE
*****
 55 57 0 0 0
SMALL
GASTEIGER

@<TRIPOS>ATOM
      1 C           1.8158   -1.5081    0.1708 C.3     1  UNL1        0.0494
      2 C           1.2991   -1.8788    1.5425 C.3     1  UNL1       -0.0263
      3 C          -0.1139   -2.3732    1.5714 C.3     1  UNL1       -0.0249
      4 C          -1.1261   -1.3827    1.1400 C.ar    1  UNL1       -0.0324
      5 C          -0.9954   -0.1265    0.5774 C.ar    1  UNL1        0.0312
      6 C          -1.9718    0.7612    0.1670 C.ar    1  UNL1        0.1731
      7 O          -1.7999    2.0257   -0.4176 O.3     1  UNL1       -0.4907
      8 C          -1.7559    2.1512   -1.8418 C.3     1  UNL1        0.0790
      9 C          -3.2740    0.2714    0.3788 C.ar    1  UNL1        0.2041
     10 O          -4.3934    1.0211    0.0335 O.3     1  UNL1       -0.4885
     11 C          -5.0211    0.9665   -1.2277 C.3     1  UNL1        0.0791
     12 C          -3.4917   -0.9913    0.9460 C.ar    1  UNL1        0.1655
     13 O          -4.7936   -1.4440    1.1412 O.3     1  UNL1       -0.4913
     14 C          -5.0105   -2.7036    1.7071 C.3     1  UNL1        0.0790
     15 C          -2.4075   -1.7969    1.3161 C.ar    1  UNL1       -0.0123
     16 C           0.3032    0.5552    0.3633 C.ar    1  UNL1       -0.0088
     17 C          -0.0279    1.9070    0.6654 C.ar    1  UNL1       -0.0500
     18 C           0.7014    3.0076    0.1941 C.ar    1  UNL1       -0.0155
     19 C           1.9599    2.9800   -0.3594 C.ar    1  UNL1        0.1665
     20 O           2.4858    4.2533   -0.5098 O.3     1  UNL1       -0.4913
     21 C           1.8281    5.4263   -0.1475 C.3     1  UNL1        0.0790
     22 C           2.7582    1.9374   -0.7750 C.ar    1  UNL1        0.2206
     23 O           3.7846    2.2098   -1.4349 O.2     1  UNL1       -0.2840
     24 C           2.6138    0.5833   -0.5797 C.ar    1  UNL1       -0.0057
     25 C           1.5216   -0.0373   -0.0131 C.ar    1  UNL1       -0.0157
     26 N           3.2404   -1.7343    0.0514 N.am    1  UNL1       -0.3078
     27 C           3.8300   -2.5429   -0.9551 C.2     1  UNL1        0.2231
     28 O           3.2056   -3.1671   -1.8710 O.2     1  UNL1       -0.2749
     29 C           5.3105   -2.6794   -0.9473 C.3     1  UNL1        0.0672
     30 S           5.8747   -3.7440   -2.2995 S.3     1  UNL1       -0.1689
     31 H           1.2247   -2.0290   -0.5939 H       1  UNL1        0.0548
     32 H           1.3370   -0.9957    2.2376 H       1  UNL1        0.0289
     33 H           1.9324   -2.6577    2.0239 H       1  UNL1        0.0289
     34 H          -0.3356   -2.7433    2.5888 H       1  UNL1        0.0314
     35 H          -0.1685   -3.2025    0.8151 H       1  UNL1        0.0314
     36 H          -0.9975    2.8764   -2.1384 H       1  UNL1        0.0660
     37 H          -1.6117    1.1842   -2.3496 H       1  UNL1        0.0660
     38 H          -2.7505    2.6113   -2.1045 H       1  UNL1        0.0660
     39 H          -5.4458    1.9810   -1.4180 H       1  UNL1        0.0660
     40 H          -4.3236    0.7363   -2.0522 H       1  UNL1        0.0660
     41 H          -5.8832    0.2864   -1.1529 H       1  UNL1        0.0660
     42 H          -6.1054   -2.8991    1.7037 H       1  UNL1        0.0660
     43 H          -4.6085   -2.8350    2.7280 H       1  UNL1        0.0660
     44 H          -4.5119   -3.4748    1.0674 H       1  UNL1        0.0660
     45 H          -2.6429   -2.7556    1.7448 H       1  UNL1        0.0658
     46 H          -0.9162    1.9583    1.3419 H       1  UNL1        0.0625
     47 H           0.1191    3.8864    0.3350 H       1  UNL1        0.0655
     48 H           2.4373    6.2868   -0.4931 H       1  UNL1        0.0660
     49 H           0.8780    5.4770   -0.7463 H       1  UNL1        0.0660
     50 H           1.6694    5.5528    0.9366 H       1  UNL1        0.0660
     51 H           3.3485   -0.1286   -0.8540 H       1  UNL1        0.0660
     52 H           3.8431   -1.2604    0.7646 H       1  UNL1        0.1493
     53 H           5.7013   -3.0318    0.0513 H       1  UNL1        0.0468
     54 H           5.8185   -1.6880   -1.1029 H       1  UNL1        0.0468
     55 H           5.6419   -5.0820   -1.9193 H       1  UNL1        0.1021
@<TRIPOS>BOND
     1     1     2    1
     2     2     3    1
     3     3     4    1
     4     4     5   ar
     5     5     6   ar
     6     6     7    1
     7     7     8    1
     8     6     9   ar
     9     9    10    1
    10    10    11    1
    11     9    12   ar
    12    12    13    1
    13    13    14    1
    14    12    15   ar
    15     5    16    1
    16    16    17   ar
    17    17    18   ar
    18    18    19   ar
    19    19    20    1
    20    20    21    1
    21    19    22   ar
    22    22    23    2
    23    22    24   ar
    24    24    25   ar
    25     1    26    1
    26    26    27   am
    27    27    28    2
    28    27    29    1
    29    29    30    1
    30    25     1    1
    31    15     4   ar
    32    25    16   ar
    33     1    31    1
    34     2    32    1
    35     2    33    1
    36     3    34    1
    37     3    35    1
    38     8    36    1
    39     8    37    1
    40     8    38    1
    41    11    39    1
    42    11    40    1
    43    11    41    1
    44    14    42    1
    45    14    43    1
    46    14    44    1
    47    15    45    1
    48    17    46    1
    49    18    47    1
    50    21    48    1
    51    21    49    1
    52    21    50    1
    53    24    51    1
    54    26    52    1
    55    29    53    1
    56    29    54    1
    57    30    55    1
