
     RDKit          3D

 42 43  0  0  0  0  0  0  0  0999 V2000
   -0.3874   -0.9305    2.4339 C   0  0  0  0  0  0  0  0  0  0  0  0
    0.0646   -0.6863    1.0413 C   0  0  0  0  0  0  0  0  0  0  0  0
    1.3053   -0.1030    0.9193 C   0  0  0  0  0  0  0  0  0  0  0  0
    1.8094    0.1437   -0.3361 C   0  0  0  0  0  0  0  0  0  0  0  0
    1.0224   -0.2172   -1.4096 C   0  0  0  0  0  0  0  0  0  0  0  0
   -0.2377   -0.8096   -1.2663 C   0  0  0  0  0  0  0  0  0  0  0  0
   -1.0271   -1.1726   -2.4998 C   0  0  0  0  0  0  0  0  0  0  0  0
   -0.7504   -1.0602    0.0019 C   0  0  0  0  0  0  0  0  0  0  0  0
   -2.0843   -1.6694    0.0792 C   0  0  0  0  0  0  0  0  0  0  0  0
   -3.1469   -0.6972    0.3636 C   0  0  0  0  0  0  0  0  0  0  0  0
   -4.0948   -0.4737   -0.5171 N   0  0  0  0  0  0  0  0  0  0  0  0
   -5.0308    0.5161   -0.0323 C   0  0  0  0  0  0  0  0  0  0  0  0
   -4.1180    1.2800    0.9378 C   0  0  0  0  0  0  0  0  0  0  0  0
   -3.3865    0.1240    1.4856 N   0  0  0  0  0  0  0  0  0  0  0  0
    3.1306    0.7617   -0.5366 C   0  0  0  0  0  0  0  0  0  0  0  0
    3.4641    0.9444   -2.0015 C   0  0  0  0  0  0  0  0  0  0  0  0
    4.1613   -0.2153    0.0344 C   0  0  0  0  0  0  0  0  0  0  0  0
    3.3325    2.0467    0.2307 C   0  0  0  0  0  0  0  0  0  0  0  0
    0.4950   -1.3518    2.9996 H   0  0  0  0  0  0  0  0  0  0  0  0
   -1.2556   -1.5850    2.5249 H   0  0  0  0  0  0  0  0  0  0  0  0
   -0.5439    0.0683    2.9395 H   0  0  0  0  0  0  0  0  0  0  0  0
    1.8986    0.1685    1.7794 H   0  0  0  0  0  0  0  0  0  0  0  0
    1.3503   -0.0560   -2.4342 H   0  0  0  0  0  0  0  0  0  0  0  0
   -0.7993   -2.2463   -2.7374 H   0  0  0  0  0  0  0  0  0  0  0  0
   -0.5935   -0.5560   -3.3225 H   0  0  0  0  0  0  0  0  0  0  0  0
   -2.0923   -0.9482   -2.4055 H   0  0  0  0  0  0  0  0  0  0  0  0
   -2.0554   -2.4616    0.8863 H   0  0  0  0  0  0  0  0  0  0  0  0
   -2.2851   -2.2496   -0.8568 H   0  0  0  0  0  0  0  0  0  0  0  0
   -5.7800   -0.0145    0.5654 H   0  0  0  0  0  0  0  0  0  0  0  0
   -5.4270    1.1578   -0.8313 H   0  0  0  0  0  0  0  0  0  0  0  0
   -3.4167    1.9349    0.3656 H   0  0  0  0  0  0  0  0  0  0  0  0
   -4.6906    1.8187    1.6912 H   0  0  0  0  0  0  0  0  0  0  0  0
   -3.1039   -0.0718    2.4633 H   0  0  0  0  0  0  0  0  0  0  0  0
    4.5351    1.2839   -2.0990 H   0  0  0  0  0  0  0  0  0  0  0  0
    3.3776    0.0218   -2.5721 H   0  0  0  0  0  0  0  0  0  0  0  0
    2.7836    1.7169   -2.4090 H   0  0  0  0  0  0  0  0  0  0  0  0
    4.2951   -0.0495    1.1229 H   0  0  0  0  0  0  0  0  0  0  0  0
    3.7819   -1.2549   -0.0533 H   0  0  0  0  0  0  0  0  0  0  0  0
    5.1459   -0.0680   -0.4406 H   0  0  0  0  0  0  0  0  0  0  0  0
    4.4387    2.2544    0.1514 H   0  0  0  0  0  0  0  0  0  0  0  0
    3.1791    1.8172    1.3099 H   0  0  0  0  0  0  0  0  0  0  0  0
    2.7359    2.8891   -0.1151 H   0  0  0  0  0  0  0  0  0  0  0  0
  1  2  1  0
  2  3  2  0
  3  4  1  0
  4  5  2  0
  5  6  1  0
  6  7  1  0
  6  8  2  0
  8  9  1  0
  9 10  1  0
 10 11  2  0
 11 12  1  0
 12 13  1  0
 13 14  1  0
  4 15  1  0
 15 16  1  0
 15 17  1  0
 15 18  1  0
  8  2  1  0
 14 10  1  0
  1 19  1  0
  1 20  1  0
  1 21  1  0
  3 22  1  0
  5 23  1  0
  7 24  1  0
  7 25  1  0
  7 26  1  0
  9 27  1  0
  9 28  1  0
 12 29  1  0
 12 30  1  0
 13 31  1  0
 13 32  1  0
 14 33  1  0
 16 34  1  0
 16 35  1  0
 16 36  1  0
 17 37  1  0
 17 38  1  0
 17 39  1  0
 18 40  1  0
 18 41  1  0
 18 42  1  0
M  END
$$$$
