@<TRIPOS>MOLECULE
*****
 42 43 0 0 0
SMALL
GASTEIGER

@<TRIPOS>ATOM
      1 C          -0.3874   -0.9305    2.4339 C.3     1  UNL1       -0.0394
      2 C           0.0646   -0.6863    1.0413 C.ar    1  UNL1       -0.0462
      3 C           1.3053   -0.1030    0.9193 C.ar    1  UNL1       -0.0549
      4 C           1.8094    0.1437   -0.3361 C.ar    1  UNL1       -0.0415
      5 C           1.0224   -0.2172   -1.4096 C.ar    1  UNL1       -0.0549
      6 C          -0.2377   -0.8096   -1.2663 C.ar    1  UNL1       -0.0462
      7 C          -1.0271   -1.1726   -2.4998 C.3     1  UNL1       -0.0394
      8 C          -0.7504   -1.0602    0.0019 C.ar    1  UNL1       -0.0301
      9 C          -2.0843   -1.6694    0.0792 C.3     1  UNL1        0.0758
     10 C          -3.1469   -0.6972    0.3636 C.2     1  UNL1        0.2854
     11 N          -4.0948   -0.4737   -0.5171 N.2     1  UNL1       -0.0837
     12 C          -5.0308    0.5161   -0.0323 C.3     1  UNL1        0.1671
     13 C          -4.1180    1.2800    0.9378 C.3     1  UNL1        0.1194
     14 N          -3.3865    0.1240    1.4856 N.pl3   1  UNL1       -0.2335
     15 C           3.1306    0.7617   -0.5366 C.3     1  UNL1       -0.0127
     16 C           3.4641    0.9444   -2.0015 C.3     1  UNL1       -0.0560
     17 C           4.1613   -0.2153    0.0344 C.3     1  UNL1       -0.0560
     18 C           3.3325    2.0467    0.2307 C.3     1  UNL1       -0.0560
     19 H           0.4950   -1.3518    2.9996 H       1  UNL1        0.0278
     20 H          -1.2556   -1.5850    2.5249 H       1  UNL1        0.0278
     21 H          -0.5439    0.0683    2.9395 H       1  UNL1        0.0278
     22 H           1.8986    0.1685    1.7794 H       1  UNL1        0.0623
     23 H           1.3503   -0.0560   -2.4342 H       1  UNL1        0.0623
     24 H          -0.7993   -2.2463   -2.7374 H       1  UNL1        0.0278
     25 H          -0.5935   -0.5560   -3.3225 H       1  UNL1        0.0278
     26 H          -2.0923   -0.9482   -2.4055 H       1  UNL1        0.0278
     27 H          -2.0554   -2.4616    0.8863 H       1  UNL1        0.0436
     28 H          -2.2851   -2.2496   -0.8568 H       1  UNL1        0.0436
     29 H          -5.7800   -0.0145    0.5654 H       1  UNL1        0.0829
     30 H          -5.4270    1.1578   -0.8313 H       1  UNL1        0.0829
     31 H          -3.4167    1.9349    0.3656 H       1  UNL1        0.0765
     32 H          -4.6906    1.8187    1.6912 H       1  UNL1        0.0765
     33 H          -3.1039   -0.0718    2.4633 H       1  UNL1        0.2912
     34 H           4.5351    1.2839   -2.0990 H       1  UNL1        0.0238
     35 H           3.3776    0.0218   -2.5721 H       1  UNL1        0.0238
     36 H           2.7836    1.7169   -2.4090 H       1  UNL1        0.0238
     37 H           4.2951   -0.0495    1.1229 H       1  UNL1        0.0238
     38 H           3.7819   -1.2549   -0.0533 H       1  UNL1        0.0238
     39 H           5.1459   -0.0680   -0.4406 H       1  UNL1        0.0238
     40 H           4.4387    2.2544    0.1514 H       1  UNL1        0.0238
     41 H           3.1791    1.8172    1.3099 H       1  UNL1        0.0238
     42 H           2.7359    2.8891   -0.1151 H       1  UNL1        0.0238
@<TRIPOS>BOND
     1     1     2    1
     2     2     3   ar
     3     3     4   ar
     4     4     5   ar
     5     5     6   ar
     6     6     7    1
     7     6     8   ar
     8     8     9    1
     9     9    10    1
    10    10    11    2
    11    11    12    1
    12    12    13    1
    13    13    14    1
    14     4    15    1
    15    15    16    1
    16    15    17    1
    17    15    18    1
    18     8     2   ar
    19    14    10    1
    20     1    19    1
    21     1    20    1
    22     1    21    1
    23     3    22    1
    24     5    23    1
    25     7    24    1
    26     7    25    1
    27     7    26    1
    28     9    27    1
    29     9    28    1
    30    12    29    1
    31    12    30    1
    32    13    31    1
    33    13    32    1
    34    14    33    1
    35    16    34    1
    36    16    35    1
    37    16    36    1
    38    17    37    1
    39    17    38    1
    40    17    39    1
    41    18    40    1
    42    18    41    1
    43    18    42    1
