
     RDKit          3D

 55 58  0  0  0  0  0  0  0  0999 V2000
    9.3105    1.6831   -1.4102 C   0  0  0  0  0  0  0  0  0  0  0  0
    8.7942    0.9953   -0.2852 O   0  0  0  0  0  0  0  0  0  0  0  0
    7.4370    0.7287   -0.1874 C   0  0  0  0  0  0  0  0  0  0  0  0
    6.9443    0.0602    0.9089 C   0  0  0  0  0  0  0  0  0  0  0  0
    5.6231   -0.1672    0.9444 N   0  0  0  0  0  0  0  0  0  0  0  0
    4.7847    0.2249   -0.0282 C   0  0  0  0  0  0  0  0  0  0  0  0
    3.3171   -0.0454    0.0444 C   0  0  0  0  0  0  0  0  0  0  0  0
    2.5851    0.3336   -0.8726 O   0  0  0  0  0  0  0  0  0  0  0  0
    2.8412   -0.7274    1.1705 N   0  0  0  0  0  0  0  0  0  0  0  0
    1.5005   -1.0653    1.4058 C   0  0  0  0  0  0  0  0  0  0  0  0
    1.1785   -1.7566    2.5887 C   0  0  0  0  0  0  0  0  0  0  0  0
   -0.0842   -2.1351    2.9217 C   0  0  0  0  0  0  0  0  0  0  0  0
   -1.1202   -1.8380    2.0728 C   0  0  0  0  0  0  0  0  0  0  0  0
   -2.3921   -2.1748    2.3202 F   0  0  0  0  0  0  0  0  0  0  0  0
   -0.8420   -1.1589    0.8996 C   0  0  0  0  0  0  0  0  0  0  0  0
   -1.9597   -0.8155   -0.0349 C   0  0  2  0  0  0  0  0  0  0  0  0
   -1.3083   -0.2322   -1.2973 C   0  0  0  0  0  0  0  0  0  0  0  0
   -2.7916    0.2063    0.6601 C   0  0  0  0  0  0  0  0  0  0  0  0
   -4.2071    0.3402    0.2336 C   0  0  0  0  0  0  0  0  0  0  0  0
   -4.4386    0.8653   -1.1419 C   0  0  0  0  0  0  0  0  0  0  0  0
   -5.7613    1.6474   -1.1856 C   0  0  0  0  0  0  0  0  0  0  0  0
   -5.5939    2.8236   -0.4923 O   0  0  0  0  0  0  0  0  0  0  0  0
   -4.7627    2.6840    0.6173 C   0  0  0  0  0  0  0  0  0  0  0  0
   -4.9088    1.2782    1.1949 C   0  0  0  0  0  0  0  0  0  0  0  0
   -4.9610   -1.3232    0.4360 S   0  0  0  0  0  0  0  0  0  0  0  0
   -3.7883   -2.4134   -0.3430 C   0  0  0  0  0  0  0  0  0  0  0  0
   -4.2488   -3.6680   -0.8141 N   0  0  0  0  0  0  0  0  0  0  0  0
   -2.5923   -2.0158   -0.4406 N   0  0  0  0  0  0  0  0  0  0  0  0
    0.4593   -0.7731    0.5646 C   0  0  0  0  0  0  0  0  0  0  0  0
    5.2789    0.8935   -1.1239 C   0  0  0  0  0  0  0  0  0  0  0  0
    6.6037    1.1309   -1.1771 N   0  0  0  0  0  0  0  0  0  0  0  0
    9.3364    2.7634   -1.1354 H   0  0  0  0  0  0  0  0  0  0  0  0
    8.6725    1.4857   -2.2853 H   0  0  0  0  0  0  0  0  0  0  0  0
   10.3590    1.3604   -1.6064 H   0  0  0  0  0  0  0  0  0  0  0  0
    7.6209   -0.2554    1.6921 H   0  0  0  0  0  0  0  0  0  0  0  0
    3.5687   -1.0127    1.9123 H   0  0  0  0  0  0  0  0  0  0  0  0
    1.9891   -1.9909    3.2562 H   0  0  0  0  0  0  0  0  0  0  0  0
   -0.3461   -2.6651    3.8246 H   0  0  0  0  0  0  0  0  0  0  0  0
   -2.1124   -0.0869   -2.0828 H   0  0  0  0  0  0  0  0  0  0  0  0
   -0.8606    0.7418   -1.1521 H   0  0  0  0  0  0  0  0  0  0  0  0
   -0.5633   -0.9156   -1.7422 H   0  0  0  0  0  0  0  0  0  0  0  0
   -2.8143    0.0006    1.7721 H   0  0  0  0  0  0  0  0  0  0  0  0
   -2.2552    1.2042    0.6204 H   0  0  0  0  0  0  0  0  0  0  0  0
   -4.4921    0.0141   -1.8703 H   0  0  0  0  0  0  0  0  0  0  0  0
   -3.6712    1.6087   -1.4409 H   0  0  0  0  0  0  0  0  0  0  0  0
   -6.6110    1.0392   -0.8804 H   0  0  0  0  0  0  0  0  0  0  0  0
   -5.8788    1.9267   -2.2703 H   0  0  0  0  0  0  0  0  0  0  0  0
   -5.0678    3.4030    1.3767 H   0  0  0  0  0  0  0  0  0  0  0  0
   -3.7022    2.8446    0.3724 H   0  0  0  0  0  0  0  0  0  0  0  0
   -5.9934    1.0530    1.1726 H   0  0  0  0  0  0  0  0  0  0  0  0
   -4.5221    1.2276    2.2152 H   0  0  0  0  0  0  0  0  0  0  0  0
   -4.1637   -4.4972   -0.1909 H   0  0  0  0  0  0  0  0  0  0  0  0
   -4.6631   -3.8035   -1.7399 H   0  0  0  0  0  0  0  0  0  0  0  0
    0.6525   -0.2478   -0.3414 H   0  0  0  0  0  0  0  0  0  0  0  0
    4.6212    1.2172   -1.9167 H   0  0  0  0  0  0  0  0  0  0  0  0
  1  2  1  0
  2  3  1  0
  3  4  2  0
  4  5  1  0
  5  6  2  0
  6  7  1  0
  7  8  2  0
  7  9  1  0
  9 10  1  0
 10 11  2  0
 11 12  1  0
 12 13  2  0
 13 14  1  0
 13 15  1  0
 15 16  1  0
 16 17  1  6
 16 18  1  0
 18 19  1  0
 19 20  1  0
 20 21  1  0
 21 22  1  0
 22 23  1  0
 23 24  1  0
 19 25  1  0
 25 26  1  0
 26 27  1  0
 26 28  2  0
 15 29  2  0
  6 30  1  0
 30 31  2  0
 31  3  1  0
 29 10  1  0
 28 16  1  0
 24 19  1  0
  1 32  1  0
  1 33  1  0
  1 34  1  0
  4 35  1  0
  9 36  1  0
 11 37  1  0
 12 38  1  0
 17 39  1  0
 17 40  1  0
 17 41  1  0
 18 42  1  0
 18 43  1  0
 20 44  1  0
 20 45  1  0
 21 46  1  0
 21 47  1  0
 23 48  1  0
 23 49  1  0
 24 50  1  0
 24 51  1  0
 27 52  1  0
 27 53  1  0
 29 54  1  0
 30 55  1  0
M  END
$$$$
