@<TRIPOS>MOLECULE
*****
 55 58 0 0 0
SMALL
GASTEIGER

@<TRIPOS>ATOM
      1 C           9.3105    1.6831   -1.4102 C.3     1  UNL1        0.0805
      2 O           8.7942    0.9953   -0.2852 O.3     1  UNL1       -0.4786
      3 C           7.4370    0.7287   -0.1874 C.ar    1  UNL1        0.2332
      4 C           6.9443    0.0602    0.9089 C.ar    1  UNL1        0.0899
      5 N           5.6231   -0.1672    0.9444 N.ar    1  UNL1       -0.2435
      6 C           4.7847    0.2249   -0.0282 C.ar    1  UNL1        0.1439
      7 C           3.3171   -0.0454    0.0444 C.2     1  UNL1        0.2681
      8 O           2.5851    0.3336   -0.8726 O.2     1  UNL1       -0.2681
      9 N           2.8412   -0.7274    1.1705 N.am    1  UNL1       -0.2802
     10 C           1.5005   -1.0653    1.4058 C.ar    1  UNL1        0.0342
     11 C           1.1785   -1.7566    2.5887 C.ar    1  UNL1       -0.0377
     12 C          -0.0842   -2.1351    2.9217 C.ar    1  UNL1       -0.0243
     13 C          -1.1202   -1.8380    2.0728 C.ar    1  UNL1        0.1290
     14 F          -2.3921   -2.1748    2.3202 F       1  UNL1       -0.2051
     15 C          -0.8420   -1.1589    0.8996 C.ar    1  UNL1        0.0167
     16 C          -1.9597   -0.8155   -0.0349 C.3     1  UNL1        0.0903
     17 C          -1.3083   -0.2322   -1.2973 C.3     1  UNL1       -0.0354
     18 C          -2.7916    0.2063    0.6601 C.3     1  UNL1       -0.0084
     19 C          -4.2071    0.3402    0.2336 C.3     1  UNL1        0.0305
     20 C          -4.4386    0.8653   -1.1419 C.3     1  UNL1       -0.0142
     21 C          -5.7613    1.6474   -1.1856 C.3     1  UNL1        0.0489
     22 O          -5.5939    2.8236   -0.4923 O.3     1  UNL1       -0.3797
     23 C          -4.7627    2.6840    0.6173 C.3     1  UNL1        0.0489
     24 C          -4.9088    1.2782    1.1949 C.3     1  UNL1       -0.0142
     25 S          -4.9610   -1.3232    0.4360 S.3     1  UNL1       -0.0841
     26 C          -3.7883   -2.4134   -0.3430 C.2     1  UNL1        0.1480
     27 N          -4.2488   -3.6680   -0.8141 N.pl3   1  UNL1       -0.3380
     28 N          -2.5923   -2.0158   -0.4406 N.2     1  UNL1       -0.2524
     29 C           0.4593   -0.7731    0.5646 C.ar    1  UNL1       -0.0323
     30 C           5.2789    0.8935   -1.1239 C.ar    1  UNL1        0.0619
     31 N           6.6037    1.1309   -1.1771 N.ar    1  UNL1       -0.2178
     32 H           9.3364    2.7634   -1.1354 H       1  UNL1        0.0660
     33 H           8.6725    1.4857   -2.2853 H       1  UNL1        0.0660
     34 H          10.3590    1.3604   -1.6064 H       1  UNL1        0.0660
     35 H           7.6209   -0.2554    1.6921 H       1  UNL1        0.0884
     36 H           3.5687   -1.0127    1.9123 H       1  UNL1        0.1552
     37 H           1.9891   -1.9909    3.2562 H       1  UNL1        0.0637
     38 H          -0.3461   -2.6651    3.8246 H       1  UNL1        0.0647
     39 H          -2.1124   -0.0869   -2.0828 H       1  UNL1        0.0256
     40 H          -0.8606    0.7418   -1.1521 H       1  UNL1        0.0256
     41 H          -0.5633   -0.9156   -1.7422 H       1  UNL1        0.0256
     42 H          -2.8143    0.0006    1.7721 H       1  UNL1        0.0305
     43 H          -2.2552    1.2042    0.6204 H       1  UNL1        0.0305
     44 H          -4.4921    0.0141   -1.8703 H       1  UNL1        0.0301
     45 H          -3.6712    1.6087   -1.4409 H       1  UNL1        0.0301
     46 H          -6.6110    1.0392   -0.8804 H       1  UNL1        0.0560
     47 H          -5.8788    1.9267   -2.2703 H       1  UNL1        0.0560
     48 H          -5.0678    3.4030    1.3767 H       1  UNL1        0.0560
     49 H          -3.7022    2.8446    0.3724 H       1  UNL1        0.0560
     50 H          -5.9934    1.0530    1.1726 H       1  UNL1        0.0301
     51 H          -4.5221    1.2276    2.2152 H       1  UNL1        0.0301
     52 H          -4.1637   -4.4972   -0.1909 H       1  UNL1        0.1442
     53 H          -4.6631   -3.8035   -1.7399 H       1  UNL1        0.1442
     54 H           0.6525   -0.2478   -0.3414 H       1  UNL1        0.0640
     55 H           4.6212    1.2172   -1.9167 H       1  UNL1        0.0854
@<TRIPOS>BOND
     1     1     2    1
     2     2     3    1
     3     3     4   ar
     4     4     5   ar
     5     5     6   ar
     6     6     7    1
     7     7     8    2
     8     7     9   am
     9     9    10    1
    10    10    11   ar
    11    11    12   ar
    12    12    13   ar
    13    13    14    1
    14    13    15   ar
    15    15    16    1
    16    16    17    1
    17    16    18    1
    18    18    19    1
    19    19    20    1
    20    20    21    1
    21    21    22    1
    22    22    23    1
    23    23    24    1
    24    19    25    1
    25    25    26    1
    26    26    27    1
    27    26    28    2
    28    15    29   ar
    29     6    30   ar
    30    30    31   ar
    31    31     3   ar
    32    29    10   ar
    33    28    16    1
    34    24    19    1
    35     1    32    1
    36     1    33    1
    37     1    34    1
    38     4    35    1
    39     9    36    1
    40    11    37    1
    41    12    38    1
    42    17    39    1
    43    17    40    1
    44    17    41    1
    45    18    42    1
    46    18    43    1
    47    20    44    1
    48    20    45    1
    49    21    46    1
    50    21    47    1
    51    23    48    1
    52    23    49    1
    53    24    50    1
    54    24    51    1
    55    27    52    1
    56    27    53    1
    57    29    54    1
    58    30    55    1
