@<TRIPOS>MOLECULE
*****
 39 41 0 0 0
SMALL
GASTEIGER

@<TRIPOS>ATOM
      1 C          -7.2837   -1.2379   -1.4316 C.3     1  UNL1        0.0004
      2 N          -6.2535   -1.4937   -0.4335 N.am    1  UNL1       -0.3144
      3 C          -4.9790   -0.8766   -0.5995 C.2     1  UNL1        0.2439
      4 O          -4.8003   -0.1272   -1.6174 O.2     1  UNL1       -0.2702
      5 C          -3.8683   -1.0436    0.3133 C.ar    1  UNL1        0.0384
      6 C          -4.0150   -1.8395    1.4200 C.ar    1  UNL1       -0.0495
      7 C          -2.9330   -1.9820    2.2791 C.ar    1  UNL1       -0.0593
      8 C          -1.7532   -1.3301    2.0043 C.ar    1  UNL1       -0.0408
      9 C          -1.5844   -0.5264    0.8990 C.ar    1  UNL1        0.0282
     10 N          -0.3617    0.1401    0.6281 N.pl3   1  UNL1       -0.3367
     11 C           0.7284   -0.0403    1.5488 C.3     1  UNL1        0.0686
     12 C           1.9342    0.7026    1.1531 C.ar    1  UNL1        0.1427
     13 N           2.9699    0.3285    0.3804 N.ar    1  UNL1       -0.2099
     14 C           3.8678    1.3249    0.2740 C.ar    1  UNL1        0.1815
     15 C           5.1270    1.3463   -0.4622 C.ar    1  UNL1        0.0237
     16 C           5.8314    0.1758   -0.6581 C.ar    1  UNL1       -0.0328
     17 C           7.0110    0.2407   -1.3560 C.ar    1  UNL1        0.0282
     18 N           7.5329    1.3695   -1.8656 N.ar    1  UNL1       -0.2632
     19 C           6.8518    2.5288   -1.6812 C.ar    1  UNL1        0.0282
     20 C           5.6656    2.4990   -0.9859 C.ar    1  UNL1       -0.0328
     21 N           3.3493    2.3261    1.0080 N.ar    1  UNL1       -0.1522
     22 N           2.1933    1.9647    1.5381 N.ar    1  UNL1       -0.2609
     23 C          -2.6722   -0.4058    0.0695 C.ar    1  UNL1       -0.0287
     24 H          -7.0042   -1.7330   -2.3864 H       1  UNL1        0.0426
     25 H          -8.2244   -1.7060   -1.0923 H       1  UNL1        0.0426
     26 H          -7.4238   -0.1641   -1.5948 H       1  UNL1        0.0426
     27 H          -6.4324   -2.1004    0.3701 H       1  UNL1        0.1487
     28 H          -4.9430   -2.3677    1.6593 H       1  UNL1        0.0625
     29 H          -3.0762   -2.6130    3.1404 H       1  UNL1        0.0618
     30 H          -0.8996   -1.4423    2.6816 H       1  UNL1        0.0636
     31 H          -0.2892    0.7303   -0.2144 H       1  UNL1        0.1465
     32 H           0.9384   -1.1410    1.6577 H       1  UNL1        0.0542
     33 H           0.4152    0.3005    2.5429 H       1  UNL1        0.0542
     34 H           5.4250   -0.7436   -0.2539 H       1  UNL1        0.0640
     35 H           7.5445   -0.7096   -1.4927 H       1  UNL1        0.0830
     36 H           7.2799    3.4269   -2.0942 H       1  UNL1        0.0830
     37 H           5.1256    3.4200   -0.8401 H       1  UNL1        0.0640
     38 H           1.5856    2.5785    2.1597 H       1  UNL1        0.1903
     39 H          -2.5796    0.2207   -0.8153 H       1  UNL1        0.0643
@<TRIPOS>BOND
     1     1     2    1
     2     2     3   am
     3     3     4    2
     4     3     5    1
     5     5     6   ar
     6     6     7   ar
     7     7     8   ar
     8     8     9   ar
     9     9    10    1
    10    10    11    1
    11    11    12    1
    12    12    13   ar
    13    13    14   ar
    14    14    15    1
    15    15    16   ar
    16    16    17   ar
    17    17    18   ar
    18    18    19   ar
    19    19    20   ar
    20    14    21   ar
    21    21    22   ar
    22     9    23   ar
    23    23     5   ar
    24    22    12   ar
    25    20    15   ar
    26     1    24    1
    27     1    25    1
    28     1    26    1
    29     2    27    1
    30     6    28    1
    31     7    29    1
    32     8    30    1
    33    10    31    1
    34    11    32    1
    35    11    33    1
    36    16    34    1
    37    17    35    1
    38    19    36    1
    39    20    37    1
    40    22    38    1
    41    23    39    1
