@<TRIPOS>MOLECULE
*****
 88 94 0 0 0
SMALL
GASTEIGER

@<TRIPOS>ATOM
      1 C          -7.0158    1.7596   -3.7787 C.3     1  UNL1       -0.0438
      2 C          -6.9124    0.8004   -2.6445 C.2     1  UNL1       -0.0757
      3 C          -7.9216    0.0259   -2.2904 C.2     1  UNL1       -0.0815
      4 C          -7.8658   -0.5501   -0.9188 C.3     1  UNL1       -0.0167
      5 C          -6.9734   -1.7324   -0.8527 C.3     1  UNL1       -0.0038
      6 C          -5.8862   -1.6304    0.1468 C.ar    1  UNL1        0.0477
      7 N          -5.4853   -2.7617    0.8019 N.ar    1  UNL1       -0.2511
      8 C          -4.4721   -2.7521    1.6655 C.ar    1  UNL1        0.0744
      9 C          -4.0936   -3.9367    2.3143 C.ar    1  UNL1       -0.0173
     10 C          -3.0514   -3.9610    3.2072 C.ar    1  UNL1        0.0430
     11 CL         -2.5746   -5.4503    4.0243 Cl      1  UNL1       -0.0835
     12 C          -2.3988   -2.7796    3.4357 C.ar    1  UNL1       -0.0426
     13 C          -2.7798   -1.5984    2.7858 C.ar    1  UNL1       -0.0494
     14 C          -3.8205   -1.5697    1.8935 C.ar    1  UNL1        0.0216
     15 C          -4.2045   -0.3685    1.2329 C.ar    1  UNL1        0.0416
     16 N          -3.4709    0.7795    1.4898 N.pl3   1  UNL1       -0.3431
     17 C          -3.5199    2.0917    0.9459 C.3     1  UNL1        0.0091
     18 C          -2.2457    2.9112    1.2207 C.3     1  UNL1       -0.0375
     19 C          -1.0682    2.3778    0.5205 C.3     1  UNL1       -0.0516
     20 C          -0.6741    0.9834    0.8481 C.3     1  UNL1       -0.0530
     21 C           0.5772    0.5594    0.0689 C.3     1  UNL1       -0.0530
     22 C           1.7749    1.4108    0.3704 C.3     1  UNL1       -0.0516
     23 C           2.9702    0.9034   -0.4658 C.3     1  UNL1       -0.0375
     24 C           3.3161   -0.5154   -0.1573 C.3     1  UNL1        0.0091
     25 N           4.4711   -0.9574   -0.9045 N.pl3   1  UNL1       -0.3431
     26 C           5.7312   -0.3104   -0.7935 C.ar    1  UNL1        0.0413
     27 C           6.5836   -0.6781    0.2609 C.ar    1  UNL1       -0.0047
     28 C           7.8246   -0.1048    0.4336 C.ar    1  UNL1        0.0469
     29 N           8.2060    0.8268   -0.4419 N.ar    1  UNL1       -0.2512
     30 C           7.4147    1.2125   -1.4780 C.ar    1  UNL1        0.0731
     31 C           7.8428    2.1647   -2.3787 C.ar    1  UNL1       -0.0357
     32 C           7.0764    2.5635   -3.4477 C.ar    1  UNL1       -0.0597
     33 C           5.8401    1.9988   -3.6332 C.ar    1  UNL1       -0.0610
     34 C           5.3924    1.0483   -2.7483 C.ar    1  UNL1       -0.0508
     35 C           6.1612    0.6525   -1.6773 C.ar    1  UNL1        0.0215
     36 C           8.6433   -0.5686    1.5825 C.3     1  UNL1       -0.0101
     37 C           8.6704   -2.0857    1.5010 C.3     1  UNL1       -0.0473
     38 C           7.3028   -2.6966    1.4413 C.3     1  UNL1       -0.0486
     39 C           6.1891   -1.7128    1.2525 C.3     1  UNL1       -0.0242
     40 C          -5.2548   -0.4013    0.3507 C.ar    1  UNL1       -0.0012
     41 C          -5.8590    0.7282   -0.3668 C.3     1  UNL1       -0.0082
     42 C          -5.6370    0.6758   -1.8480 C.3     1  UNL1       -0.0250
     43 C          -7.3900    0.5813   -0.0370 C.3     1  UNL1       -0.0392
     44 H          -7.3063    2.7432   -3.3330 H       1  UNL1        0.0274
     45 H          -6.0784    1.8371   -4.3609 H       1  UNL1        0.0274
     46 H          -7.8621    1.4380   -4.4321 H       1  UNL1        0.0274
     47 H          -8.7240   -0.1738   -2.9428 H       1  UNL1        0.0574
     48 H          -8.8829   -0.8127   -0.5447 H       1  UNL1        0.0347
     49 H          -7.5787   -2.6347   -0.5717 H       1  UNL1        0.0334
     50 H          -6.5510   -2.0024   -1.8701 H       1  UNL1        0.0334
     51 H          -4.6280   -4.8543    2.1134 H       1  UNL1        0.0653
     52 H          -1.5824   -2.7919    4.1330 H       1  UNL1        0.0632
     53 H          -2.1934   -0.7517    3.0461 H       1  UNL1        0.0625
     54 H          -2.7541    0.7004    2.2924 H       1  UNL1        0.1461
     55 H          -3.5773    2.0994   -0.1601 H       1  UNL1        0.0461
     56 H          -4.3688    2.6508    1.4454 H       1  UNL1        0.0461
     57 H          -2.1157    3.0653    2.3073 H       1  UNL1        0.0280
     58 H          -2.4992    3.9288    0.7991 H       1  UNL1        0.0280
     59 H          -0.1786    3.0877    0.6361 H       1  UNL1        0.0266
     60 H          -1.2307    2.4501   -0.6140 H       1  UNL1        0.0266
     61 H          -1.4418    0.2281    0.5040 H       1  UNL1        0.0265
     62 H          -0.4776    0.7891    1.9061 H       1  UNL1        0.0265
     63 H           0.4079    0.5352   -1.0098 H       1  UNL1        0.0265
     64 H           0.8217   -0.4747    0.4545 H       1  UNL1        0.0265
     65 H           2.0617    1.3439    1.4579 H       1  UNL1        0.0266
     66 H           1.6390    2.4915    0.1764 H       1  UNL1        0.0266
     67 H           2.6278    0.9145   -1.5397 H       1  UNL1        0.0280
     68 H           3.8214    1.5946   -0.3821 H       1  UNL1        0.0280
     69 H           3.4647   -0.6431    0.9436 H       1  UNL1        0.0461
     70 H           2.4335   -1.1334   -0.4917 H       1  UNL1        0.0461
     71 H           4.3869   -1.7927   -1.5615 H       1  UNL1        0.1461
     72 H           8.8198    2.6098   -2.2317 H       1  UNL1        0.0639
     73 H           7.4529    3.3305   -4.1491 H       1  UNL1        0.0618
     74 H           5.2258    2.3107   -4.4812 H       1  UNL1        0.0618
     75 H           4.4240    0.5787   -2.9051 H       1  UNL1        0.0625
     76 H           8.2125   -0.2922    2.5626 H       1  UNL1        0.0328
     77 H           9.7043   -0.2350    1.4930 H       1  UNL1        0.0328
     78 H           9.3051   -2.3919    0.6200 H       1  UNL1        0.0269
     79 H           9.2176   -2.4980    2.3950 H       1  UNL1        0.0269
     80 H           7.3129   -3.4388    0.5976 H       1  UNL1        0.0269
     81 H           7.1197   -3.3166    2.3627 H       1  UNL1        0.0269
     82 H           6.0027   -1.1793    2.2272 H       1  UNL1        0.0314
     83 H           5.2650   -2.2252    0.9775 H       1  UNL1        0.0314
     84 H          -5.6816    1.7321    0.0307 H       1  UNL1        0.0353
     85 H          -5.0240   -0.1853   -2.1806 H       1  UNL1        0.0316
     86 H          -5.0106    1.5784   -2.1133 H       1  UNL1        0.0316
     87 H          -7.9095    1.5010   -0.3100 H       1  UNL1        0.0277
     88 H          -7.4827    0.3553    1.0242 H       1  UNL1        0.0277
@<TRIPOS>BOND
     1     1     2    1
     2     2     3    2
     3     3     4    1
     4     4     5    1
     5     5     6    1
     6     6     7   ar
     7     7     8   ar
     8     8     9   ar
     9     9    10   ar
    10    10    11    1
    11    10    12   ar
    12    12    13   ar
    13    13    14   ar
    14    14    15   ar
    15    15    16    1
    16    16    17    1
    17    17    18    1
    18    18    19    1
    19    19    20    1
    20    20    21    1
    21    21    22    1
    22    22    23    1
    23    23    24    1
    24    24    25    1
    25    25    26    1
    26    26    27   ar
    27    27    28   ar
    28    28    29   ar
    29    29    30   ar
    30    30    31   ar
    31    31    32   ar
    32    32    33   ar
    33    33    34   ar
    34    34    35   ar
    35    28    36    1
    36    36    37    1
    37    37    38    1
    38    38    39    1
    39    15    40   ar
    40    40    41    1
    41    41    42    1
    42    41    43    1
    43    42     2    1
    44    43     4    1
    45    40     6   ar
    46    14     8   ar
    47    35    26   ar
    48    39    27    1
    49    35    30   ar
    50     1    44    1
    51     1    45    1
    52     1    46    1
    53     3    47    1
    54     4    48    1
    55     5    49    1
    56     5    50    1
    57     9    51    1
    58    12    52    1
    59    13    53    1
    60    16    54    1
    61    17    55    1
    62    17    56    1
    63    18    57    1
    64    18    58    1
    65    19    59    1
    66    19    60    1
    67    20    61    1
    68    20    62    1
    69    21    63    1
    70    21    64    1
    71    22    65    1
    72    22    66    1
    73    23    67    1
    74    23    68    1
    75    24    69    1
    76    24    70    1
    77    25    71    1
    78    31    72    1
    79    32    73    1
    80    33    74    1
    81    34    75    1
    82    36    76    1
    83    36    77    1
    84    37    78    1
    85    37    79    1
    86    38    80    1
    87    38    81    1
    88    39    82    1
    89    39    83    1
    90    41    84    1
    91    42    85    1
    92    42    86    1
    93    43    87    1
    94    43    88    1
