@<TRIPOS>MOLECULE
*****
 54 56 0 0 0
SMALL
GASTEIGER

@<TRIPOS>ATOM
      1 C           1.6255   -0.5816   -4.1804 C.3     1  UNL1       -0.0364
      2 C           2.6101   -0.1239   -3.1644 C.ar    1  UNL1       -0.0061
      3 C           3.9285    0.1141   -3.6015 C.ar    1  UNL1        0.1276
      4 F           4.1835   -0.0290   -4.9170 F       1  UNL1       -0.2052
      5 C           4.8862    0.4780   -2.6907 C.ar    1  UNL1       -0.0140
      6 C           4.5695    0.6150   -1.3378 C.ar    1  UNL1        0.0400
      7 C           5.5736    0.9966   -0.3737 C.2     1  UNL1        0.2444
      8 O           6.7571    1.2011   -0.8215 O.2     1  UNL1       -0.2702
      9 N           5.3439    1.1588    1.0178 N.am    1  UNL1       -0.3085
     10 C           6.4417    1.5436    1.8626 C.3     1  UNL1        0.0235
     11 C           6.4745    0.7357    3.1831 C.3     1  UNL1       -0.0328
     12 C           6.2031    2.2130    3.1662 C.3     1  UNL1       -0.0328
     13 C           3.2903    0.3777   -0.9631 C.ar    1  UNL1       -0.0400
     14 C           2.2624    0.0008   -1.8617 C.ar    1  UNL1        0.0067
     15 C           0.9397   -0.2536   -1.2989 C.ar    1  UNL1        0.0714
     16 C          -0.2560   -0.1465   -1.9360 C.ar    1  UNL1       -0.0350
     17 C          -1.4696   -0.3602   -1.2630 C.ar    1  UNL1       -0.0461
     18 C          -1.5079   -0.6844    0.0645 C.ar    1  UNL1        0.0548
     19 C          -2.7397   -0.9183    0.8169 C.2     1  UNL1        0.2458
     20 O          -2.7125   -1.2134    2.0388 O.2     1  UNL1       -0.2701
     21 N          -3.9994   -0.8182    0.1867 N.am    1  UNL1       -0.3085
     22 C          -5.2070   -1.0594    0.9732 C.3     1  UNL1        0.0229
     23 C          -5.9965   -2.1516    0.2959 C.3     1  UNL1       -0.0464
     24 C          -5.9885    0.2563    0.9667 C.3     1  UNL1       -0.0285
     25 C          -5.0668    1.2954    1.6054 C.3     1  UNL1       -0.0610
     26 C          -7.2259    0.0801    1.7976 C.3     1  UNL1       -0.0610
     27 C          -0.2671   -0.7871    0.6983 C.ar    1  UNL1        0.0404
     28 N           0.8605   -0.5807    0.0377 N.ar    1  UNL1       -0.2542
     29 H           2.2554   -1.0441   -5.0306 H       1  UNL1        0.0279
     30 H           0.9943   -1.4164   -3.8628 H       1  UNL1        0.0279
     31 H           1.1322    0.2583   -4.6963 H       1  UNL1        0.0279
     32 H           5.8978    0.6646   -3.0009 H       1  UNL1        0.0654
     33 H           4.3706    0.9936    1.4056 H       1  UNL1        0.1493
     34 H           7.4064    1.6888    1.3586 H       1  UNL1        0.0498
     35 H           7.4798    0.3710    3.4688 H       1  UNL1        0.0284
     36 H           5.6251    0.1005    3.4302 H       1  UNL1        0.0284
     37 H           5.1859    2.5761    3.4475 H       1  UNL1        0.0284
     38 H           7.0351    2.8586    3.5248 H       1  UNL1        0.0284
     39 H           2.9961    0.4701    0.0639 H       1  UNL1        0.0632
     40 H          -0.3350    0.1418   -2.9703 H       1  UNL1        0.0639
     41 H          -2.4098   -0.2655   -1.8125 H       1  UNL1        0.0626
     42 H          -4.1154   -0.5817   -0.8090 H       1  UNL1        0.1493
     43 H          -4.9234   -1.2950    1.9954 H       1  UNL1        0.0498
     44 H          -5.2984   -2.9356   -0.0670 H       1  UNL1        0.0248
     45 H          -6.7122   -2.6196    1.0047 H       1  UNL1        0.0248
     46 H          -6.5058   -1.7482   -0.6002 H       1  UNL1        0.0248
     47 H          -6.1781    0.5826   -0.0594 H       1  UNL1        0.0313
     48 H          -4.8348    0.9497    2.6336 H       1  UNL1        0.0233
     49 H          -5.5250    2.3001    1.5831 H       1  UNL1        0.0233
     50 H          -4.1257    1.3030    0.9928 H       1  UNL1        0.0233
     51 H          -6.9877   -0.5562    2.6765 H       1  UNL1        0.0233
     52 H          -7.6435    1.0704    2.1076 H       1  UNL1        0.0233
     53 H          -7.9843   -0.4308    1.1571 H       1  UNL1        0.0233
     54 H          -0.3127   -1.0455    1.7573 H       1  UNL1        0.0837
@<TRIPOS>BOND
     1     1     2    1
     2     2     3   ar
     3     3     4    1
     4     3     5   ar
     5     5     6   ar
     6     6     7    1
     7     7     8    2
     8     7     9   am
     9     9    10    1
    10    10    11    1
    11    11    12    1
    12     6    13   ar
    13    13    14   ar
    14    14    15    1
    15    15    16   ar
    16    16    17   ar
    17    17    18   ar
    18    18    19    1
    19    19    20    2
    20    19    21   am
    21    21    22    1
    22    22    23    1
    23    22    24    1
    24    24    25    1
    25    24    26    1
    26    18    27   ar
    27    27    28   ar
    28    14     2   ar
    29    28    15   ar
    30    12    10    1
    31     1    29    1
    32     1    30    1
    33     1    31    1
    34     5    32    1
    35     9    33    1
    36    10    34    1
    37    11    35    1
    38    11    36    1
    39    12    37    1
    40    12    38    1
    41    13    39    1
    42    16    40    1
    43    17    41    1
    44    21    42    1
    45    22    43    1
    46    23    44    1
    47    23    45    1
    48    23    46    1
    49    24    47    1
    50    25    48    1
    51    25    49    1
    52    25    50    1
    53    26    51    1
    54    26    52    1
    55    26    53    1
    56    27    54    1
