@<TRIPOS>MOLECULE
*****
 65 69 0 0 0
SMALL
GASTEIGER

@<TRIPOS>ATOM
      1 C          -2.0385    0.1276    3.0116 C.3     1  UNL1       -0.0373
      2 C          -3.3343    0.0880    2.3206 C.ar    1  UNL1       -0.0202
      3 C          -3.6108   -1.0268    1.5017 C.ar    1  UNL1        0.0350
      4 N          -2.7165   -2.0971    1.2379 N.pl3   1  UNL1       -0.3127
      5 C          -3.1543   -2.9738    0.1891 C.ar    1  UNL1        0.0591
      6 C          -3.9506   -4.0464    0.6509 C.ar    1  UNL1        0.0914
      7 C          -4.0646   -4.3244    2.0171 C.1     1  UNL1        0.1026
      8 N          -4.1801   -4.5627    3.2020 N.1     1  UNL1       -0.1908
      9 C          -4.5454   -4.7971   -0.3083 C.ar    1  UNL1        0.0467
     10 N          -4.3821   -4.5264   -1.6058 N.ar    1  UNL1       -0.2613
     11 C          -3.6312   -3.5205   -2.0248 C.ar    1  UNL1        0.0365
     12 C          -2.9465   -2.6617   -1.0960 C.ar    1  UNL1        0.0155
     13 C          -2.0385   -1.7014   -1.6630 C.2     1  UNL1       -0.0508
     14 C          -1.0847   -1.0460   -1.0435 C.2     1  UNL1       -0.0539
     15 C          -0.1422   -0.0768   -1.5414 C.ar    1  UNL1       -0.0232
     16 C          -0.1754    0.3751   -2.8357 C.ar    1  UNL1       -0.0545
     17 C           0.7717    1.2993   -3.2393 C.ar    1  UNL1       -0.0594
     18 C           1.7379    1.7532   -2.3338 C.ar    1  UNL1       -0.0353
     19 C           1.8017    1.3285   -1.0436 C.ar    1  UNL1        0.1060
     20 S           2.9219    1.9154    0.1264 S.O2    1  UNL1        0.0609
     21 O           2.6525    1.2274    1.4659 O.2     1  UNL1       -0.1528
     22 O           2.7259    3.4008    0.4221 O.2     1  UNL1       -0.1528
     23 N           4.5631    1.6913   -0.1999 N.3     1  UNL1       -0.1741
     24 C           5.0185    2.3950   -1.4038 C.3     1  UNL1        0.0333
     25 C           6.5350    2.3937   -1.2735 C.3     1  UNL1        0.0131
     26 N           6.9993    1.0316   -1.5105 N.3     1  UNL1       -0.3028
     27 C           8.0936    0.7367   -0.5843 C.3     1  UNL1       -0.0127
     28 C           5.9481    0.0432   -1.3968 C.3     1  UNL1        0.0131
     29 C           4.9731    0.3013   -0.2779 C.3     1  UNL1        0.0333
     30 C           0.8227    0.3893   -0.6703 C.ar    1  UNL1       -0.0282
     31 C          -4.8671   -1.0010    0.8660 C.ar    1  UNL1       -0.0383
     32 C          -5.7498    0.0752    1.0632 C.ar    1  UNL1       -0.0360
     33 C          -5.4257    1.0763    1.8410 C.ar    1  UNL1        0.0468
     34 N          -6.0930    2.2327    2.2029 N.ar    1  UNL1       -0.3606
     35 C          -5.3407    2.9376    3.0207 C.ar    1  UNL1        0.0027
     36 C          -4.1618    2.3037    3.2416 C.ar    1  UNL1       -0.0364
     37 C          -4.2053    1.1221    2.5000 C.ar    1  UNL1        0.0043
     38 H          -1.6383   -0.8799    3.1468 H       1  UNL1        0.0278
     39 H          -1.3345    0.7981    2.4622 H       1  UNL1        0.0278
     40 H          -2.2392    0.6727    3.9844 H       1  UNL1        0.0278
     41 H          -1.8778   -2.2733    1.7402 H       1  UNL1        0.1522
     42 H          -5.1621   -5.6434    0.0001 H       1  UNL1        0.0843
     43 H          -3.4934   -3.2790   -3.0486 H       1  UNL1        0.0836
     44 H          -2.1261   -1.4585   -2.7225 H       1  UNL1        0.0625
     45 H          -0.9801   -1.2947    0.0192 H       1  UNL1        0.0624
     46 H          -0.9173    0.0138   -3.5220 H       1  UNL1        0.0623
     47 H           0.7648    1.6846   -4.2605 H       1  UNL1        0.0618
     48 H           2.4412    2.4663   -2.7337 H       1  UNL1        0.0637
     49 H           4.6892    3.4488   -1.3156 H       1  UNL1        0.0456
     50 H           4.7820    1.8830   -2.3325 H       1  UNL1        0.0456
     51 H           6.8253    2.6584   -0.2075 H       1  UNL1        0.0439
     52 H           7.0109    3.0846   -1.9481 H       1  UNL1        0.0439
     53 H           8.2918   -0.3629   -0.5199 H       1  UNL1        0.0391
     54 H           7.8242    1.1625    0.3790 H       1  UNL1        0.0391
     55 H           8.9987    1.2131   -1.0008 H       1  UNL1        0.0391
     56 H           5.4190   -0.0236   -2.3374 H       1  UNL1        0.0439
     57 H           6.4307   -0.9442   -1.1981 H       1  UNL1        0.0439
     58 H           4.1109   -0.3585   -0.4095 H       1  UNL1        0.0456
     59 H           5.4704    0.0478    0.6735 H       1  UNL1        0.0456
     60 H           0.8628    0.0409    0.3467 H       1  UNL1        0.0643
     61 H          -5.1995   -1.7769    0.2322 H       1  UNL1        0.0637
     62 H          -6.7148    0.0486    0.5397 H       1  UNL1        0.0639
     63 H          -7.0369    2.4929    1.8769 H       1  UNL1        0.1653
     64 H          -5.5987    3.9086    3.4698 H       1  UNL1        0.0807
     65 H          -3.3290    2.6276    3.8576 H       1  UNL1        0.0639
@<TRIPOS>BOND
     1     1     2    1
     2     2     3   ar
     3     3     4    1
     4     4     5    1
     5     5     6   ar
     6     6     7    1
     7     7     8    3
     8     6     9   ar
     9     9    10   ar
    10    10    11   ar
    11    11    12   ar
    12    12    13    1
    13    13    14    2
    14    14    15    1
    15    15    16   ar
    16    16    17   ar
    17    17    18   ar
    18    18    19   ar
    19    19    20    1
    20    20    21    2
    21    20    22    2
    22    20    23    1
    23    23    24    1
    24    24    25    1
    25    25    26    1
    26    26    27    1
    27    26    28    1
    28    28    29    1
    29    19    30   ar
    30     3    31   ar
    31    31    32   ar
    32    32    33   ar
    33    33    34   ar
    34    34    35   ar
    35    35    36   ar
    36    36    37   ar
    37    37     2   ar
    38    12     5   ar
    39    30    15   ar
    40    37    33   ar
    41    29    23    1
    42     1    38    1
    43     1    39    1
    44     1    40    1
    45     4    41    1
    46     9    42    1
    47    11    43    1
    48    13    44    1
    49    14    45    1
    50    16    46    1
    51    17    47    1
    52    18    48    1
    53    24    49    1
    54    24    50    1
    55    25    51    1
    56    25    52    1
    57    27    53    1
    58    27    54    1
    59    27    55    1
    60    28    56    1
    61    28    57    1
    62    29    58    1
    63    29    59    1
    64    30    60    1
    65    31    61    1
    66    32    62    1
    67    34    63    1
    68    35    64    1
    69    36    65    1
