
     RDKit          3D

 65 69  0  0  0  0  0  0  0  0999 V2000
   -2.0385    0.1276    3.0116 C   0  0  0  0  0  0  0  0  0  0  0  0
   -3.3343    0.0880    2.3206 C   0  0  0  0  0  0  0  0  0  0  0  0
   -3.6108   -1.0268    1.5017 C   0  0  0  0  0  0  0  0  0  0  0  0
   -2.7165   -2.0971    1.2379 N   0  0  0  0  0  0  0  0  0  0  0  0
   -3.1543   -2.9738    0.1891 C   0  0  0  0  0  0  0  0  0  0  0  0
   -3.9506   -4.0464    0.6509 C   0  0  0  0  0  0  0  0  0  0  0  0
   -4.0646   -4.3244    2.0171 C   0  0  0  0  0  0  0  0  0  0  0  0
   -4.1801   -4.5627    3.2020 N   0  0  0  0  0  0  0  0  0  0  0  0
   -4.5454   -4.7971   -0.3083 C   0  0  0  0  0  0  0  0  0  0  0  0
   -4.3821   -4.5264   -1.6058 N   0  0  0  0  0  0  0  0  0  0  0  0
   -3.6312   -3.5205   -2.0248 C   0  0  0  0  0  0  0  0  0  0  0  0
   -2.9465   -2.6617   -1.0960 C   0  0  0  0  0  0  0  0  0  0  0  0
   -2.0385   -1.7014   -1.6630 C   0  0  0  0  0  0  0  0  0  0  0  0
   -1.0847   -1.0460   -1.0435 C   0  0  0  0  0  0  0  0  0  0  0  0
   -0.1422   -0.0768   -1.5414 C   0  0  0  0  0  0  0  0  0  0  0  0
   -0.1754    0.3751   -2.8357 C   0  0  0  0  0  0  0  0  0  0  0  0
    0.7717    1.2993   -3.2393 C   0  0  0  0  0  0  0  0  0  0  0  0
    1.7379    1.7532   -2.3338 C   0  0  0  0  0  0  0  0  0  0  0  0
    1.8017    1.3285   -1.0436 C   0  0  0  0  0  0  0  0  0  0  0  0
    2.9219    1.9154    0.1264 S   0  0  0  0  0  6  0  0  0  0  0  0
    2.6525    1.2274    1.4659 O   0  0  0  0  0  0  0  0  0  0  0  0
    2.7259    3.4008    0.4221 O   0  0  0  0  0  0  0  0  0  0  0  0
    4.5631    1.6913   -0.1999 N   0  0  0  0  0  0  0  0  0  0  0  0
    5.0185    2.3950   -1.4038 C   0  0  0  0  0  0  0  0  0  0  0  0
    6.5350    2.3937   -1.2735 C   0  0  0  0  0  0  0  0  0  0  0  0
    6.9993    1.0316   -1.5105 N   0  0  0  0  0  0  0  0  0  0  0  0
    8.0936    0.7367   -0.5843 C   0  0  0  0  0  0  0  0  0  0  0  0
    5.9481    0.0432   -1.3968 C   0  0  0  0  0  0  0  0  0  0  0  0
    4.9731    0.3013   -0.2779 C   0  0  0  0  0  0  0  0  0  0  0  0
    0.8227    0.3893   -0.6703 C   0  0  0  0  0  0  0  0  0  0  0  0
   -4.8671   -1.0010    0.8660 C   0  0  0  0  0  0  0  0  0  0  0  0
   -5.7498    0.0752    1.0632 C   0  0  0  0  0  0  0  0  0  0  0  0
   -5.4257    1.0763    1.8410 C   0  0  0  0  0  0  0  0  0  0  0  0
   -6.0930    2.2327    2.2029 N   0  0  0  0  0  0  0  0  0  0  0  0
   -5.3407    2.9376    3.0207 C   0  0  0  0  0  0  0  0  0  0  0  0
   -4.1618    2.3037    3.2416 C   0  0  0  0  0  0  0  0  0  0  0  0
   -4.2053    1.1221    2.5000 C   0  0  0  0  0  0  0  0  0  0  0  0
   -1.6383   -0.8799    3.1468 H   0  0  0  0  0  0  0  0  0  0  0  0
   -1.3345    0.7981    2.4622 H   0  0  0  0  0  0  0  0  0  0  0  0
   -2.2392    0.6727    3.9844 H   0  0  0  0  0  0  0  0  0  0  0  0
   -1.8778   -2.2733    1.7402 H   0  0  0  0  0  0  0  0  0  0  0  0
   -5.1621   -5.6434    0.0001 H   0  0  0  0  0  0  0  0  0  0  0  0
   -3.4934   -3.2790   -3.0486 H   0  0  0  0  0  0  0  0  0  0  0  0
   -2.1261   -1.4585   -2.7225 H   0  0  0  0  0  0  0  0  0  0  0  0
   -0.9801   -1.2947    0.0192 H   0  0  0  0  0  0  0  0  0  0  0  0
   -0.9173    0.0138   -3.5220 H   0  0  0  0  0  0  0  0  0  0  0  0
    0.7648    1.6846   -4.2605 H   0  0  0  0  0  0  0  0  0  0  0  0
    2.4412    2.4663   -2.7337 H   0  0  0  0  0  0  0  0  0  0  0  0
    4.6892    3.4488   -1.3156 H   0  0  0  0  0  0  0  0  0  0  0  0
    4.7820    1.8830   -2.3325 H   0  0  0  0  0  0  0  0  0  0  0  0
    6.8253    2.6584   -0.2075 H   0  0  0  0  0  0  0  0  0  0  0  0
    7.0109    3.0846   -1.9481 H   0  0  0  0  0  0  0  0  0  0  0  0
    8.2918   -0.3629   -0.5199 H   0  0  0  0  0  0  0  0  0  0  0  0
    7.8242    1.1625    0.3790 H   0  0  0  0  0  0  0  0  0  0  0  0
    8.9987    1.2131   -1.0008 H   0  0  0  0  0  0  0  0  0  0  0  0
    5.4190   -0.0236   -2.3374 H   0  0  0  0  0  0  0  0  0  0  0  0
    6.4307   -0.9442   -1.1981 H   0  0  0  0  0  0  0  0  0  0  0  0
    4.1109   -0.3585   -0.4095 H   0  0  0  0  0  0  0  0  0  0  0  0
    5.4704    0.0478    0.6735 H   0  0  0  0  0  0  0  0  0  0  0  0
    0.8628    0.0409    0.3467 H   0  0  0  0  0  0  0  0  0  0  0  0
   -5.1995   -1.7769    0.2322 H   0  0  0  0  0  0  0  0  0  0  0  0
   -6.7148    0.0486    0.5397 H   0  0  0  0  0  0  0  0  0  0  0  0
   -7.0369    2.4929    1.8769 H   0  0  0  0  0  0  0  0  0  0  0  0
   -5.5987    3.9086    3.4698 H   0  0  0  0  0  0  0  0  0  0  0  0
   -3.3290    2.6276    3.8576 H   0  0  0  0  0  0  0  0  0  0  0  0
  1  2  1  0
  2  3  2  0
  3  4  1  0
  4  5  1  0
  5  6  2  0
  6  7  1  0
  7  8  3  0
  6  9  1  0
  9 10  2  0
 10 11  1  0
 11 12  2  0
 12 13  1  0
 13 14  2  0
 14 15  1  0
 15 16  2  0
 16 17  1  0
 17 18  2  0
 18 19  1  0
 19 20  1  0
 20 21  2  0
 20 22  2  0
 20 23  1  0
 23 24  1  0
 24 25  1  0
 25 26  1  0
 26 27  1  0
 26 28  1  0
 28 29  1  0
 19 30  2  0
  3 31  1  0
 31 32  2  0
 32 33  1  0
 33 34  1  0
 34 35  1  0
 35 36  2  0
 36 37  1  0
 37  2  1  0
 12  5  1  0
 30 15  1  0
 37 33  2  0
 29 23  1  0
  1 38  1  0
  1 39  1  0
  1 40  1  0
  4 41  1  0
  9 42  1  0
 11 43  1  0
 13 44  1  0
 14 45  1  0
 16 46  1  0
 17 47  1  0
 18 48  1  0
 24 49  1  0
 24 50  1  0
 25 51  1  0
 25 52  1  0
 27 53  1  0
 27 54  1  0
 27 55  1  0
 28 56  1  0
 28 57  1  0
 29 58  1  0
 29 59  1  0
 30 60  1  0
 31 61  1  0
 32 62  1  0
 34 63  1  0
 35 64  1  0
 36 65  1  0
M  END
$$$$
