
     RDKit          3D

 61 66  0  0  0  0  0  0  0  0999 V2000
   -8.3127   -1.5275   -0.7795 C   0  0  0  0  0  0  0  0  0  0  0  0
   -7.0581   -1.9835   -0.4242 C   0  0  0  0  0  0  0  0  0  0  0  0
   -6.3121   -1.2051    0.4353 C   0  0  0  0  0  0  0  0  0  0  0  0
   -4.9617   -1.6143    0.8693 C   0  0  0  0  0  0  0  0  0  0  0  0
   -4.6337   -2.3825    1.9669 C   0  0  0  0  0  0  0  0  0  0  0  0
   -3.2873   -2.5177    1.9931 N   0  0  0  0  0  0  0  0  0  0  0  0
   -2.7587   -1.8733    0.9682 N   0  0  0  0  0  0  0  0  0  0  0  0
   -1.4587   -1.7524    0.6222 C   0  0  0  0  0  0  0  0  0  0  0  0
   -1.1691   -1.0194   -0.5012 C   0  0  0  0  0  0  0  0  0  0  0  0
    0.2151   -0.8507   -0.9281 C   0  0  0  0  0  0  0  0  0  0  0  0
    0.6547    0.2792   -1.5791 C   0  0  0  0  0  0  0  0  0  0  0  0
    1.9955    0.3887   -1.9670 C   0  0  0  0  0  0  0  0  0  0  0  0
    2.9249   -0.5912   -1.7294 C   0  0  0  0  0  0  0  0  0  0  0  0
    4.2363   -0.5364   -2.0798 O   0  0  0  0  0  0  0  0  0  0  0  0
    5.0468    0.3591   -2.6854 C   0  0  0  0  0  0  0  0  0  0  0  0
    5.2262    1.6584   -1.9436 C   0  0  0  0  0  0  0  0  0  0  0  0
    5.7817    1.3852   -0.6863 N   0  0  0  0  0  0  0  0  0  0  0  0
    7.0949    0.9072   -0.5685 C   0  0  0  0  0  0  0  0  0  0  0  0
    7.7389    1.2067    0.7496 C   0  0  0  0  0  0  0  0  0  0  0  0
    6.9215    0.8350    1.9347 C   0  0  0  0  0  0  0  0  0  0  0  0
    5.4768    0.5887    1.5953 C   0  0  0  0  0  0  0  0  0  0  0  0
    4.9954    1.5045    0.4688 C   0  0  0  0  0  0  0  0  0  0  0  0
    2.4444   -1.7371   -1.0610 C   0  0  0  0  0  0  0  0  0  0  0  0
    1.1289   -1.8516   -0.6774 C   0  0  0  0  0  0  0  0  0  0  0  0
   -2.2168   -0.4397   -1.2259 C   0  0  0  0  0  0  0  0  0  0  0  0
   -3.4948   -0.5911   -0.8374 N   0  0  0  0  0  0  0  0  0  0  0  0
   -3.7554   -1.3140    0.2673 C   0  0  0  0  0  0  0  0  0  0  0  0
   -6.7754    0.0045    0.9470 C   0  0  0  0  0  0  0  0  0  0  0  0
   -5.9777    0.7458    1.8092 C   0  0  0  0  0  0  0  0  0  0  0  0
   -6.4641    1.9392    2.2987 C   0  0  0  0  0  0  0  0  0  0  0  0
   -7.7245    2.3291    1.8996 C   0  0  0  0  0  0  0  0  0  0  0  0
   -8.4897    1.6053    1.0647 N   0  0  0  0  0  0  0  0  0  0  0  0
   -8.0330    0.4360    0.5750 C   0  0  0  0  0  0  0  0  0  0  0  0
   -8.8009   -0.3339   -0.2903 C   0  0  0  0  0  0  0  0  0  0  0  0
   -8.8920   -2.1504   -1.4583 H   0  0  0  0  0  0  0  0  0  0  0  0
   -6.6475   -2.9119   -0.7889 H   0  0  0  0  0  0  0  0  0  0  0  0
   -5.3015   -2.8087    2.6861 H   0  0  0  0  0  0  0  0  0  0  0  0
   -0.6617   -2.2069    1.1942 H   0  0  0  0  0  0  0  0  0  0  0  0
   -0.0615    1.0684   -1.7779 H   0  0  0  0  0  0  0  0  0  0  0  0
    2.2834    1.2904   -2.4891 H   0  0  0  0  0  0  0  0  0  0  0  0
    6.0520   -0.1355   -2.8658 H   0  0  0  0  0  0  0  0  0  0  0  0
    4.6747    0.5572   -3.7320 H   0  0  0  0  0  0  0  0  0  0  0  0
    5.8655    2.3258   -2.5887 H   0  0  0  0  0  0  0  0  0  0  0  0
    4.2660    2.1835   -1.8058 H   0  0  0  0  0  0  0  0  0  0  0  0
    7.7221    1.3073   -1.3998 H   0  0  0  0  0  0  0  0  0  0  0  0
    7.0720   -0.2171   -0.6597 H   0  0  0  0  0  0  0  0  0  0  0  0
    8.7255    0.6736    0.7911 H   0  0  0  0  0  0  0  0  0  0  0  0
    7.9640    2.3073    0.8024 H   0  0  0  0  0  0  0  0  0  0  0  0
    7.3210   -0.1306    2.3583 H   0  0  0  0  0  0  0  0  0  0  0  0
    7.0372    1.5867    2.7480 H   0  0  0  0  0  0  0  0  0  0  0  0
    5.4072   -0.4715    1.2238 H   0  0  0  0  0  0  0  0  0  0  0  0
    4.8210    0.7534    2.4613 H   0  0  0  0  0  0  0  0  0  0  0  0
    3.9423    1.2353    0.2625 H   0  0  0  0  0  0  0  0  0  0  0  0
    5.0408    2.5584    0.8775 H   0  0  0  0  0  0  0  0  0  0  0  0
    3.1603   -2.5240   -0.8633 H   0  0  0  0  0  0  0  0  0  0  0  0
    0.7622   -2.7500   -0.1565 H   0  0  0  0  0  0  0  0  0  0  0  0
   -1.9920    0.1352   -2.1068 H   0  0  0  0  0  0  0  0  0  0  0  0
   -5.0137    0.3947    2.0819 H   0  0  0  0  0  0  0  0  0  0  0  0
   -5.8785    2.5658    2.9823 H   0  0  0  0  0  0  0  0  0  0  0  0
   -8.0749    3.2797    2.3083 H   0  0  0  0  0  0  0  0  0  0  0  0
   -9.7912    0.0324   -0.5667 H   0  0  0  0  0  0  0  0  0  0  0  0
  1  2  2  0
  2  3  1  0
  3  4  1  0
  4  5  1  0
  5  6  2  0
  6  7  1  0
  7  8  1  0
  8  9  2  0
  9 10  1  0
 10 11  2  0
 11 12  1  0
 12 13  2  0
 13 14  1  0
 14 15  1  0
 15 16  1  0
 16 17  1  0
 17 18  1  0
 18 19  1  0
 19 20  1  0
 20 21  1  0
 21 22  1  0
 13 23  1  0
 23 24  2  0
  9 25  1  0
 25 26  2  0
 26 27  1  0
  3 28  2  0
 28 29  1  0
 29 30  2  0
 30 31  1  0
 31 32  2  0
 32 33  1  0
 33 34  2  0
 34  1  1  0
 27  4  2  0
 33 28  1  0
 27  7  1  0
 24 10  1  0
 22 17  1  0
  1 35  1  0
  2 36  1  0
  5 37  1  0
  8 38  1  0
 11 39  1  0
 12 40  1  0
 15 41  1  0
 15 42  1  0
 16 43  1  0
 16 44  1  0
 18 45  1  0
 18 46  1  0
 19 47  1  0
 19 48  1  0
 20 49  1  0
 20 50  1  0
 21 51  1  0
 21 52  1  0
 22 53  1  0
 22 54  1  0
 23 55  1  0
 24 56  1  0
 25 57  1  0
 29 58  1  0
 30 59  1  0
 31 60  1  0
 34 61  1  0
M  END
$$$$
