@<TRIPOS>MOLECULE
*****
 61 66 0 0 0
SMALL
GASTEIGER

@<TRIPOS>ATOM
      1 C          -8.3127   -1.5275   -0.7795 C.ar    1  UNL1       -0.0591
      2 C          -7.0581   -1.9835   -0.4242 C.ar    1  UNL1       -0.0532
      3 C          -6.3121   -1.2051    0.4353 C.ar    1  UNL1       -0.0037
      4 C          -4.9617   -1.6143    0.8693 C.ar    1  UNL1        0.0466
      5 C          -4.6337   -2.3825    1.9669 C.ar    1  UNL1        0.0597
      6 N          -3.2873   -2.5177    1.9931 N.ar    1  UNL1       -0.1727
      7 N          -2.7587   -1.8733    0.9682 N.ar    1  UNL1       -0.2206
      8 C          -1.4587   -1.7524    0.6222 C.ar    1  UNL1        0.0406
      9 C          -1.1691   -1.0194   -0.5012 C.ar    1  UNL1        0.0184
     10 C           0.2151   -0.8507   -0.9281 C.ar    1  UNL1       -0.0148
     11 C           0.6547    0.2792   -1.5791 C.ar    1  UNL1       -0.0505
     12 C           1.9955    0.3887   -1.9670 C.ar    1  UNL1       -0.0194
     13 C           2.9249   -0.5912   -1.7294 C.ar    1  UNL1        0.1206
     14 O           4.2363   -0.5364   -2.0798 O.3     1  UNL1       -0.4907
     15 C           5.0468    0.3591   -2.6854 C.3     1  UNL1        0.1022
     16 C           5.2262    1.6584   -1.9436 C.3     1  UNL1        0.0331
     17 N           5.7817    1.3852   -0.6863 N.3     1  UNL1       -0.2991
     18 C           7.0949    0.9072   -0.5685 C.3     1  UNL1       -0.0010
     19 C           7.7389    1.2067    0.7496 C.3     1  UNL1       -0.0402
     20 C           6.9215    0.8350    1.9347 C.3     1  UNL1       -0.0507
     21 C           5.4768    0.5887    1.5953 C.3     1  UNL1       -0.0402
     22 C           4.9954    1.5045    0.4688 C.3     1  UNL1       -0.0010
     23 C           2.4444   -1.7371   -1.0610 C.ar    1  UNL1       -0.0194
     24 C           1.1289   -1.8516   -0.6774 C.ar    1  UNL1       -0.0505
     25 C          -2.2168   -0.4397   -1.2259 C.ar    1  UNL1        0.0391
     26 N          -3.4948   -0.5911   -0.8374 N.ar    1  UNL1       -0.2350
     27 C          -3.7554   -1.3140    0.2673 C.ar    1  UNL1        0.1632
     28 C          -6.7754    0.0045    0.9470 C.ar    1  UNL1        0.0082
     29 C          -5.9777    0.7458    1.8092 C.ar    1  UNL1       -0.0506
     30 C          -6.4641    1.9392    2.2987 C.ar    1  UNL1       -0.0430
     31 C          -7.7245    2.3291    1.8996 C.ar    1  UNL1        0.0283
     32 N          -8.4897    1.6053    1.0647 N.ar    1  UNL1       -0.2550
     33 C          -8.0330    0.4360    0.5750 C.ar    1  UNL1        0.0715
     34 C          -8.8009   -0.3339   -0.2903 C.ar    1  UNL1       -0.0357
     35 H          -8.8920   -2.1504   -1.4583 H       1  UNL1        0.0618
     36 H          -6.6475   -2.9119   -0.7889 H       1  UNL1        0.0624
     37 H          -5.3015   -2.8087    2.6861 H       1  UNL1        0.0855
     38 H          -0.6617   -2.2069    1.1942 H       1  UNL1        0.0837
     39 H          -0.0615    1.0684   -1.7779 H       1  UNL1        0.0625
     40 H           2.2834    1.2904   -2.4891 H       1  UNL1        0.0654
     41 H           6.0520   -0.1355   -2.8658 H       1  UNL1        0.0709
     42 H           4.6747    0.5572   -3.7320 H       1  UNL1        0.0709
     43 H           5.8655    2.3258   -2.5887 H       1  UNL1        0.0460
     44 H           4.2660    2.1835   -1.8058 H       1  UNL1        0.0460
     45 H           7.7221    1.3073   -1.3998 H       1  UNL1        0.0427
     46 H           7.0720   -0.2171   -0.6597 H       1  UNL1        0.0427
     47 H           8.7255    0.6736    0.7911 H       1  UNL1        0.0278
     48 H           7.9640    2.3073    0.8024 H       1  UNL1        0.0278
     49 H           7.3210   -0.1306    2.3583 H       1  UNL1        0.0266
     50 H           7.0372    1.5867    2.7480 H       1  UNL1        0.0266
     51 H           5.4072   -0.4715    1.2238 H       1  UNL1        0.0278
     52 H           4.8210    0.7534    2.4613 H       1  UNL1        0.0278
     53 H           3.9423    1.2353    0.2625 H       1  UNL1        0.0427
     54 H           5.0408    2.5584    0.8775 H       1  UNL1        0.0427
     55 H           3.1603   -2.5240   -0.8633 H       1  UNL1        0.0654
     56 H           0.7622   -2.7500   -0.1565 H       1  UNL1        0.0625
     57 H          -1.9920    0.1352   -2.1068 H       1  UNL1        0.0837
     58 H          -5.0137    0.3947    2.0819 H       1  UNL1        0.0625
     59 H          -5.8785    2.5658    2.9823 H       1  UNL1        0.0633
     60 H          -8.0749    3.2797    2.3083 H       1  UNL1        0.0830
     61 H          -9.7912    0.0324   -0.5667 H       1  UNL1        0.0639
@<TRIPOS>BOND
     1     1     2   ar
     2     2     3   ar
     3     3     4    1
     4     4     5   ar
     5     5     6   ar
     6     6     7   ar
     7     7     8   ar
     8     8     9   ar
     9     9    10    1
    10    10    11   ar
    11    11    12   ar
    12    12    13   ar
    13    13    14    1
    14    14    15    1
    15    15    16    1
    16    16    17    1
    17    17    18    1
    18    18    19    1
    19    19    20    1
    20    20    21    1
    21    21    22    1
    22    13    23   ar
    23    23    24   ar
    24     9    25   ar
    25    25    26   ar
    26    26    27   ar
    27     3    28   ar
    28    28    29   ar
    29    29    30   ar
    30    30    31   ar
    31    31    32   ar
    32    32    33   ar
    33    33    34   ar
    34    34     1   ar
    35    27     4   ar
    36    33    28   ar
    37    27     7   ar
    38    24    10   ar
    39    22    17    1
    40     1    35    1
    41     2    36    1
    42     5    37    1
    43     8    38    1
    44    11    39    1
    45    12    40    1
    46    15    41    1
    47    15    42    1
    48    16    43    1
    49    16    44    1
    50    18    45    1
    51    18    46    1
    52    19    47    1
    53    19    48    1
    54    20    49    1
    55    20    50    1
    56    21    51    1
    57    21    52    1
    58    22    53    1
    59    22    54    1
    60    23    55    1
    61    24    56    1
    62    25    57    1
    63    29    58    1
    64    30    59    1
    65    31    60    1
    66    34    61    1
