
     RDKit          3D

 70 73  0  0  0  0  0  0  0  0999 V2000
   -8.9422   -2.0517   -1.2850 C   0  0  0  0  0  0  0  0  0  0  0  0
   -9.3409   -1.3783   -0.1602 C   0  0  0  0  0  0  0  0  0  0  0  0
   -8.5268   -0.4066    0.3592 C   0  0  0  0  0  0  0  0  0  0  0  0
   -7.3089   -0.1058   -0.2474 C   0  0  0  0  0  0  0  0  0  0  0  0
   -6.4619    0.8604    0.2391 C   0  0  0  0  0  0  0  0  0  0  0  0
   -5.2765    1.1750   -0.3250 N   0  0  0  0  0  4  0  0  0  0  0  0
   -4.5449    2.2468    0.2316 C   0  0  0  0  0  0  0  0  0  0  0  0
   -3.6511    2.0778    1.3915 C   0  0  0  0  0  0  0  0  0  0  0  0
   -2.5150    1.1522    1.3738 C   0  0  0  0  0  0  0  0  0  0  0  0
   -2.8533   -0.2751    1.3008 C   0  0  0  0  0  0  0  0  0  0  0  0
   -1.6328   -1.1834    1.2962 C   0  0  0  0  0  0  0  0  0  0  0  0
   -0.7315   -0.9100    0.1298 C   0  0  0  0  0  0  0  0  0  0  0  0
    0.4795   -1.8160    0.1300 C   0  0  0  0  0  0  0  0  0  0  0  0
    1.3111   -1.6506    1.3704 C   0  0  0  0  0  0  0  0  0  0  0  0
    1.8321   -0.2362    1.5349 C   0  0  0  0  0  0  0  0  0  0  0  0
    2.7021    0.1608    0.3576 C   0  0  0  0  0  0  0  0  0  0  0  0
    3.1898    1.5698    0.5755 C   0  0  0  0  0  0  0  0  0  0  0  0
    4.0485    1.9746   -0.5795 C   0  0  0  0  0  0  0  0  0  0  0  0
    5.2131    1.1105   -0.7388 N   0  0  0  0  0  4  0  0  0  0  0  0
    5.1761    0.0059   -1.5061 C   0  0  0  0  0  0  0  0  0  0  0  0
    6.2668   -0.8266   -1.6709 C   0  0  0  0  0  0  0  0  0  0  0  0
    7.4646   -0.5479   -1.0379 C   0  0  0  0  0  0  0  0  0  0  0  0
    8.5565   -1.3760   -1.1991 C   0  0  0  0  0  0  0  0  0  0  0  0
    9.7385   -1.0860   -0.5642 C   0  0  0  0  0  0  0  0  0  0  0  0
    9.7966    0.0431    0.2277 C   0  0  0  0  0  0  0  0  0  0  0  0
    8.6953    0.8642    0.3808 C   0  0  0  0  0  0  0  0  0  0  0  0
    7.4949    0.5885   -0.2512 C   0  0  0  0  0  0  0  0  0  0  0  0
    6.3764    1.3854   -0.1210 C   0  0  0  0  0  0  0  0  0  0  0  0
   -4.9022    0.5097   -1.4207 C   0  0  0  0  0  0  0  0  0  0  0  0
   -5.7059   -0.4590   -1.9448 C   0  0  0  0  0  0  0  0  0  0  0  0
   -6.9171   -0.7905   -1.3804 C   0  0  0  0  0  0  0  0  0  0  0  0
   -7.7238   -1.7674   -1.9118 C   0  0  0  0  0  0  0  0  0  0  0  0
   -9.5441   -2.8215   -1.7305 H   0  0  0  0  0  0  0  0  0  0  0  0
  -10.2797   -1.6128    0.3043 H   0  0  0  0  0  0  0  0  0  0  0  0
   -8.7950    0.1628    1.2556 H   0  0  0  0  0  0  0  0  0  0  0  0
   -6.7882    1.3871    1.1306 H   0  0  0  0  0  0  0  0  0  0  0  0
   -3.8911    2.7308   -0.5845 H   0  0  0  0  0  0  0  0  0  0  0  0
   -5.2648    3.1226    0.4310 H   0  0  0  0  0  0  0  0  0  0  0  0
   -4.2610    1.9697    2.3594 H   0  0  0  0  0  0  0  0  0  0  0  0
   -3.2222    3.1407    1.5763 H   0  0  0  0  0  0  0  0  0  0  0  0
   -1.8780    1.4333    0.4767 H   0  0  0  0  0  0  0  0  0  0  0  0
   -1.9085    1.3247    2.3066 H   0  0  0  0  0  0  0  0  0  0  0  0
   -3.4369   -0.5321    2.2443 H   0  0  0  0  0  0  0  0  0  0  0  0
   -3.4834   -0.5519    0.4857 H   0  0  0  0  0  0  0  0  0  0  0  0
   -1.0555   -1.0276    2.2250 H   0  0  0  0  0  0  0  0  0  0  0  0
   -1.9546   -2.2427    1.2697 H   0  0  0  0  0  0  0  0  0  0  0  0
   -1.2853   -1.1313   -0.8233 H   0  0  0  0  0  0  0  0  0  0  0  0
   -0.3787    0.1151    0.0610 H   0  0  0  0  0  0  0  0  0  0  0  0
    0.1868   -2.8880    0.0814 H   0  0  0  0  0  0  0  0  0  0  0  0
    1.0929   -1.6098   -0.7573 H   0  0  0  0  0  0  0  0  0  0  0  0
    0.7567   -1.9627    2.2659 H   0  0  0  0  0  0  0  0  0  0  0  0
    2.2206   -2.3012    1.2238 H   0  0  0  0  0  0  0  0  0  0  0  0
    1.0435    0.4981    1.7045 H   0  0  0  0  0  0  0  0  0  0  0  0
    2.4789   -0.2400    2.4349 H   0  0  0  0  0  0  0  0  0  0  0  0
    3.5922   -0.5154    0.3032 H   0  0  0  0  0  0  0  0  0  0  0  0
    2.1675    0.1158   -0.6058 H   0  0  0  0  0  0  0  0  0  0  0  0
    3.7912    1.6372    1.5241 H   0  0  0  0  0  0  0  0  0  0  0  0
    2.3285    2.2462    0.6212 H   0  0  0  0  0  0  0  0  0  0  0  0
    4.3636    3.0369   -0.5323 H   0  0  0  0  0  0  0  0  0  0  0  0
    3.4438    1.8600   -1.5058 H   0  0  0  0  0  0  0  0  0  0  0  0
    4.2405   -0.2091   -1.9987 H   0  0  0  0  0  0  0  0  0  0  0  0
    6.2260   -1.7105   -2.2891 H   0  0  0  0  0  0  0  0  0  0  0  0
    8.4533   -2.2565   -1.8381 H   0  0  0  0  0  0  0  0  0  0  0  0
   10.5760   -1.7544   -0.7105 H   0  0  0  0  0  0  0  0  0  0  0  0
   10.7203    0.2811    0.7317 H   0  0  0  0  0  0  0  0  0  0  0  0
    8.7772    1.7402    1.0088 H   0  0  0  0  0  0  0  0  0  0  0  0
    6.4332    2.2786    0.5094 H   0  0  0  0  0  0  0  0  0  0  0  0
   -3.9641    0.7366   -1.8937 H   0  0  0  0  0  0  0  0  0  0  0  0
   -5.3879   -1.0001   -2.8468 H   0  0  0  0  0  0  0  0  0  0  0  0
   -7.4209   -2.3078   -2.8010 H   0  0  0  0  0  0  0  0  0  0  0  0
  1  2  2  0
  2  3  1  0
  3  4  2  0
  4  5  1  0
  5  6  2  0
  6  7  1  0
  7  8  1  0
  8  9  1  0
  9 10  1  0
 10 11  1  0
 11 12  1  0
 12 13  1  0
 13 14  1  0
 14 15  1  0
 15 16  1  0
 16 17  1  0
 17 18  1  0
 18 19  1  0
 19 20  2  0
 20 21  1  0
 21 22  2  0
 22 23  1  0
 23 24  2  0
 24 25  1  0
 25 26  2  0
 26 27  1  0
 27 28  2  0
  6 29  1  0
 29 30  2  0
 30 31  1  0
 31 32  2  0
 32  1  1  0
 31  4  1  0
 28 19  1  0
 27 22  1  0
  1 33  1  0
  2 34  1  0
  3 35  1  0
  5 36  1  0
  7 37  1  0
  7 38  1  0
  8 39  1  0
  8 40  1  0
  9 41  1  0
  9 42  1  0
 10 43  1  0
 10 44  1  0
 11 45  1  0
 11 46  1  0
 12 47  1  0
 12 48  1  0
 13 49  1  0
 13 50  1  0
 14 51  1  0
 14 52  1  0
 15 53  1  0
 15 54  1  0
 16 55  1  0
 16 56  1  0
 17 57  1  0
 17 58  1  0
 18 59  1  0
 18 60  1  0
 20 61  1  0
 21 62  1  0
 23 63  1  0
 24 64  1  0
 25 65  1  0
 26 66  1  0
 28 67  1  0
 29 68  1  0
 30 69  1  0
 32 70  1  0
M  CHG  2   6   1  19   1
M  END
$$$$
