@<TRIPOS>MOLECULE
*****
 70 73 0 0 0
SMALL
GASTEIGER

@<TRIPOS>ATOM
      1 C          -8.9422   -2.0517   -1.2850 C.ar    1  UNL1       -0.0612
      2 C          -9.3409   -1.3783   -0.1602 C.ar    1  UNL1       -0.0610
      3 C          -8.5268   -0.4066    0.3592 C.ar    1  UNL1       -0.0484
      4 C          -7.3089   -0.1058   -0.2474 C.ar    1  UNL1        0.0458
      5 C          -6.4619    0.8604    0.2391 C.ar    1  UNL1        0.1789
      6 N          -5.2765    1.1750   -0.3250 N.ar    1  UNL1       -0.2032
      7 C          -4.5449    2.2468    0.2316 C.3     1  UNL1        0.1505
      8 C          -3.6511    2.0778    1.3915 C.3     1  UNL1        0.0069
      9 C          -2.5150    1.1522    1.3738 C.3     1  UNL1       -0.0473
     10 C          -2.8533   -0.2751    1.3008 C.3     1  UNL1       -0.0529
     11 C          -1.6328   -1.1834    1.2962 C.3     1  UNL1       -0.0531
     12 C          -0.7315   -0.9100    0.1298 C.3     1  UNL1       -0.0531
     13 C           0.4795   -1.8160    0.1300 C.3     1  UNL1       -0.0531
     14 C           1.3111   -1.6506    1.3704 C.3     1  UNL1       -0.0531
     15 C           1.8321   -0.2362    1.5349 C.3     1  UNL1       -0.0529
     16 C           2.7021    0.1608    0.3576 C.3     1  UNL1       -0.0473
     17 C           3.1898    1.5698    0.5755 C.3     1  UNL1        0.0069
     18 C           4.0485    1.9746   -0.5795 C.3     1  UNL1        0.1505
     19 N           5.2131    1.1105   -0.7388 N.ar    1  UNL1       -0.2032
     20 C           5.1761    0.0059   -1.5061 C.ar    1  UNL1        0.1718
     21 C           6.2668   -0.8266   -1.6709 C.ar    1  UNL1        0.0098
     22 C           7.4646   -0.5479   -1.0379 C.ar    1  UNL1       -0.0067
     23 C           8.5565   -1.3760   -1.1991 C.ar    1  UNL1       -0.0537
     24 C           9.7385   -1.0860   -0.5642 C.ar    1  UNL1       -0.0612
     25 C           9.7966    0.0431    0.2277 C.ar    1  UNL1       -0.0610
     26 C           8.6953    0.8642    0.3808 C.ar    1  UNL1       -0.0484
     27 C           7.4949    0.5885   -0.2512 C.ar    1  UNL1        0.0458
     28 C           6.3764    1.3854   -0.1210 C.ar    1  UNL1        0.1789
     29 C          -4.9022    0.5097   -1.4207 C.ar    1  UNL1        0.1718
     30 C          -5.7059   -0.4590   -1.9448 C.ar    1  UNL1        0.0098
     31 C          -6.9171   -0.7905   -1.3804 C.ar    1  UNL1       -0.0067
     32 C          -7.7238   -1.7674   -1.9118 C.ar    1  UNL1       -0.0537
     33 H          -9.5441   -2.8215   -1.7305 H       1  UNL1        0.0618
     34 H         -10.2797   -1.6128    0.3043 H       1  UNL1        0.0618
     35 H          -8.7950    0.1628    1.2556 H       1  UNL1        0.0626
     36 H          -6.7882    1.3871    1.1306 H       1  UNL1        0.1383
     37 H          -3.8911    2.7308   -0.5845 H       1  UNL1        0.1030
     38 H          -5.2648    3.1226    0.4310 H       1  UNL1        0.1030
     39 H          -4.2610    1.9697    2.3594 H       1  UNL1        0.0326
     40 H          -3.2222    3.1407    1.5763 H       1  UNL1        0.0326
     41 H          -1.8780    1.4333    0.4767 H       1  UNL1        0.0267
     42 H          -1.9085    1.3247    2.3066 H       1  UNL1        0.0267
     43 H          -3.4369   -0.5321    2.2443 H       1  UNL1        0.0265
     44 H          -3.4834   -0.5519    0.4857 H       1  UNL1        0.0265
     45 H          -1.0555   -1.0276    2.2250 H       1  UNL1        0.0265
     46 H          -1.9546   -2.2427    1.2697 H       1  UNL1        0.0265
     47 H          -1.2853   -1.1313   -0.8233 H       1  UNL1        0.0265
     48 H          -0.3787    0.1151    0.0610 H       1  UNL1        0.0265
     49 H           0.1868   -2.8880    0.0814 H       1  UNL1        0.0265
     50 H           1.0929   -1.6098   -0.7573 H       1  UNL1        0.0265
     51 H           0.7567   -1.9627    2.2659 H       1  UNL1        0.0265
     52 H           2.2206   -2.3012    1.2238 H       1  UNL1        0.0265
     53 H           1.0435    0.4981    1.7045 H       1  UNL1        0.0265
     54 H           2.4789   -0.2400    2.4349 H       1  UNL1        0.0265
     55 H           3.5922   -0.5154    0.3032 H       1  UNL1        0.0267
     56 H           2.1675    0.1158   -0.6058 H       1  UNL1        0.0267
     57 H           3.7912    1.6372    1.5241 H       1  UNL1        0.0326
     58 H           2.3285    2.2462    0.6212 H       1  UNL1        0.0326
     59 H           4.3636    3.0369   -0.5323 H       1  UNL1        0.1030
     60 H           3.4438    1.8600   -1.5058 H       1  UNL1        0.1030
     61 H           4.2405   -0.2091   -1.9987 H       1  UNL1        0.1376
     62 H           6.2260   -1.7105   -2.2891 H       1  UNL1        0.0683
     63 H           8.4533   -2.2565   -1.8381 H       1  UNL1        0.0624
     64 H          10.5760   -1.7544   -0.7105 H       1  UNL1        0.0618
     65 H          10.7203    0.2811    0.7317 H       1  UNL1        0.0618
     66 H           8.7772    1.7402    1.0088 H       1  UNL1        0.0626
     67 H           6.4332    2.2786    0.5094 H       1  UNL1        0.1383
     68 H          -3.9641    0.7366   -1.8937 H       1  UNL1        0.1376
     69 H          -5.3879   -1.0001   -2.8468 H       1  UNL1        0.0683
     70 H          -7.4209   -2.3078   -2.8010 H       1  UNL1        0.0624
@<TRIPOS>UNITY_ATOM_ATTR
6 1
charge 1
19 1
charge 1
@<TRIPOS>BOND
     1     1     2   ar
     2     2     3   ar
     3     3     4   ar
     4     4     5   ar
     5     5     6   ar
     6     6     7    1
     7     7     8    1
     8     8     9    1
     9     9    10    1
    10    10    11    1
    11    11    12    1
    12    12    13    1
    13    13    14    1
    14    14    15    1
    15    15    16    1
    16    16    17    1
    17    17    18    1
    18    18    19    1
    19    19    20   ar
    20    20    21   ar
    21    21    22   ar
    22    22    23   ar
    23    23    24   ar
    24    24    25   ar
    25    25    26   ar
    26    26    27   ar
    27    27    28   ar
    28     6    29   ar
    29    29    30   ar
    30    30    31   ar
    31    31    32   ar
    32    32     1   ar
    33    31     4   ar
    34    28    19   ar
    35    27    22   ar
    36     1    33    1
    37     2    34    1
    38     3    35    1
    39     5    36    1
    40     7    37    1
    41     7    38    1
    42     8    39    1
    43     8    40    1
    44     9    41    1
    45     9    42    1
    46    10    43    1
    47    10    44    1
    48    11    45    1
    49    11    46    1
    50    12    47    1
    51    12    48    1
    52    13    49    1
    53    13    50    1
    54    14    51    1
    55    14    52    1
    56    15    53    1
    57    15    54    1
    58    16    55    1
    59    16    56    1
    60    17    57    1
    61    17    58    1
    62    18    59    1
    63    18    60    1
    64    20    61    1
    65    21    62    1
    66    23    63    1
    67    24    64    1
    68    25    65    1
    69    26    66    1
    70    28    67    1
    71    29    68    1
    72    30    69    1
    73    32    70    1
