@<TRIPOS>MOLECULE
*****
 64 67 0 0 0
SMALL
GASTEIGER

@<TRIPOS>ATOM
      1 C           9.9107    3.8232    2.7136 C.2     1  UNL1       -0.0938
      2 C          10.3771    2.7020    2.2083 C.2     1  UNL1       -0.0066
      3 C           9.5610    1.8397    1.3819 C.2     1  UNL1        0.2405
      4 O          10.0737    0.7637    0.9215 O.2     1  UNL1       -0.2705
      5 N           8.2262    2.1050    1.0465 N.am    1  UNL1       -0.2819
      6 C           7.4002    1.2698    0.2404 C.ar    1  UNL1        0.0354
      7 C           7.3432    1.4565   -1.1123 C.ar    1  UNL1       -0.0404
      8 C           6.4999    0.6457   -1.8350 C.ar    1  UNL1       -0.0583
      9 C           5.7217   -0.3347   -1.2593 C.ar    1  UNL1       -0.0404
     10 C           5.7711   -0.5316    0.0908 C.ar    1  UNL1        0.0353
     11 N           4.9604   -1.4461    0.8213 N.pl3   1  UNL1       -0.2836
     12 C           3.6016   -1.5836    0.4659 C.ar    1  UNL1        0.2195
     13 N           2.7439   -2.3334    1.2033 N.ar    1  UNL1       -0.2208
     14 C           1.4330   -2.3964    0.8840 C.ar    1  UNL1        0.0539
     15 C           0.9123   -1.7134   -0.1900 C.ar    1  UNL1        0.0704
     16 N          -0.4770   -1.6986   -0.5031 N.am    1  UNL1       -0.2790
     17 C          -1.1646   -2.6727   -1.2610 C.2     1  UNL1        0.2486
     18 O          -0.5002   -3.6529   -1.7057 O.2     1  UNL1       -0.2698
     19 C          -2.5762   -2.6259   -1.5605 C.ar    1  UNL1        0.0417
     20 C          -3.3516   -1.6706   -0.8916 C.ar    1  UNL1       -0.0281
     21 C          -4.7012   -1.5261   -1.0906 C.ar    1  UNL1        0.0344
     22 N          -5.4911   -0.5433   -0.4537 N.am    1  UNL1       -0.2815
     23 C          -5.0971    0.5420    0.3397 C.2     1  UNL1        0.2483
     24 O          -3.8698    0.7051    0.5484 O.2     1  UNL1       -0.2699
     25 C          -5.9972    1.5046    0.9500 C.ar    1  UNL1        0.0376
     26 C          -5.4682    2.5670    1.6452 C.ar    1  UNL1       -0.0496
     27 C          -6.2360    3.5420    2.2627 C.ar    1  UNL1       -0.0605
     28 C          -7.5921    3.4381    2.1725 C.ar    1  UNL1       -0.0501
     29 C          -8.1743    2.3923    1.4859 C.ar    1  UNL1        0.0555
     30 C          -9.6496    2.3628    1.4444 C.3     1  UNL1        0.4174
     31 F         -10.0555    3.1162    0.3413 F       1  UNL1       -0.1659
     32 F         -10.0561    1.0752    1.1834 F       1  UNL1       -0.1659
     33 F         -10.1955    2.8618    2.6141 F       1  UNL1       -0.1659
     34 C          -7.3705    1.4339    0.8802 C.ar    1  UNL1       -0.0380
     35 C          -5.3319   -2.3856   -2.0140 C.ar    1  UNL1       -0.0402
     36 C          -4.5866   -3.3227   -2.6725 C.ar    1  UNL1       -0.0564
     37 C          -3.2091   -3.4564   -2.4560 C.ar    1  UNL1       -0.0382
     38 C          -2.4313   -4.4693   -3.1826 C.3     1  UNL1       -0.0390
     39 C           1.8155   -0.9474   -0.9442 C.ar    1  UNL1        0.0539
     40 N           3.0975   -0.9221   -0.5837 N.ar    1  UNL1       -0.2208
     41 C           6.6279    0.2936    0.8289 C.ar    1  UNL1       -0.0192
     42 H           8.9139    4.2098    2.5724 H       1  UNL1        0.0536
     43 H          10.5776    4.4205    3.3370 H       1  UNL1        0.0536
     44 H          11.4062    2.4296    2.4231 H       1  UNL1        0.0663
     45 H           7.8161    3.0118    1.4393 H       1  UNL1        0.1551
     46 H           7.9401    2.2113   -1.6133 H       1  UNL1        0.0636
     47 H           6.4562    0.8125   -2.9271 H       1  UNL1        0.0619
     48 H           5.0766   -0.9500   -1.8700 H       1  UNL1        0.0636
     49 H           5.3378   -2.0091    1.6026 H       1  UNL1        0.1550
     50 H           0.7394   -2.9982    1.4753 H       1  UNL1        0.0850
     51 H          -1.0240   -0.8750   -0.1403 H       1  UNL1        0.1552
     52 H          -2.9043   -1.0124   -0.1731 H       1  UNL1        0.0644
     53 H          -6.5534   -0.6110   -0.5860 H       1  UNL1        0.1551
     54 H          -4.3855    2.6921    1.7528 H       1  UNL1        0.0625
     55 H          -5.7344    4.3484    2.7848 H       1  UNL1        0.0618
     56 H          -8.2266    4.1978    2.6612 H       1  UNL1        0.0623
     57 H          -7.8355    0.6251    0.3584 H       1  UNL1        0.0631
     58 H          -6.4091   -2.2812   -2.1863 H       1  UNL1        0.0636
     59 H          -5.0382   -3.9983   -3.3973 H       1  UNL1        0.0621
     60 H          -2.0523   -5.2400   -2.5104 H       1  UNL1        0.0278
     61 H          -3.0638   -5.0028   -3.9294 H       1  UNL1        0.0278
     62 H          -1.6132   -3.9166   -3.7258 H       1  UNL1        0.0278
     63 H           1.4164   -0.4117   -1.8126 H       1  UNL1        0.0850
     64 H           6.6658    0.1403    1.8980 H       1  UNL1        0.0655
@<TRIPOS>BOND
     1     1     2    2
     2     2     3    1
     3     3     4    2
     4     3     5   am
     5     5     6    1
     6     6     7   ar
     7     7     8   ar
     8     8     9   ar
     9     9    10   ar
    10    10    11    1
    11    11    12    1
    12    12    13   ar
    13    13    14   ar
    14    14    15   ar
    15    15    16    1
    16    16    17   am
    17    17    18    2
    18    17    19    1
    19    19    20   ar
    20    20    21   ar
    21    21    22    1
    22    22    23   am
    23    23    24    2
    24    23    25    1
    25    25    26   ar
    26    26    27   ar
    27    27    28   ar
    28    28    29   ar
    29    29    30    1
    30    30    31    1
    31    30    32    1
    32    30    33    1
    33    29    34   ar
    34    21    35   ar
    35    35    36   ar
    36    36    37   ar
    37    37    38    1
    38    15    39   ar
    39    39    40   ar
    40    10    41   ar
    41    41     6   ar
    42    40    12   ar
    43    37    19   ar
    44    34    25   ar
    45     1    42    1
    46     1    43    1
    47     2    44    1
    48     5    45    1
    49     7    46    1
    50     8    47    1
    51     9    48    1
    52    11    49    1
    53    14    50    1
    54    16    51    1
    55    20    52    1
    56    22    53    1
    57    26    54    1
    58    27    55    1
    59    28    56    1
    60    34    57    1
    61    35    58    1
    62    36    59    1
    63    38    60    1
    64    38    61    1
    65    38    62    1
    66    39    63    1
    67    41    64    1
