
     RDKit          3D

 64 67  0  0  0  0  0  0  0  0999 V2000
    9.9107    3.8232    2.7136 C   0  0  0  0  0  0  0  0  0  0  0  0
   10.3771    2.7020    2.2083 C   0  0  0  0  0  0  0  0  0  0  0  0
    9.5610    1.8397    1.3819 C   0  0  0  0  0  0  0  0  0  0  0  0
   10.0737    0.7637    0.9215 O   0  0  0  0  0  0  0  0  0  0  0  0
    8.2262    2.1050    1.0465 N   0  0  0  0  0  0  0  0  0  0  0  0
    7.4002    1.2698    0.2404 C   0  0  0  0  0  0  0  0  0  0  0  0
    7.3432    1.4565   -1.1123 C   0  0  0  0  0  0  0  0  0  0  0  0
    6.4999    0.6457   -1.8350 C   0  0  0  0  0  0  0  0  0  0  0  0
    5.7217   -0.3347   -1.2593 C   0  0  0  0  0  0  0  0  0  0  0  0
    5.7711   -0.5316    0.0908 C   0  0  0  0  0  0  0  0  0  0  0  0
    4.9604   -1.4461    0.8213 N   0  0  0  0  0  0  0  0  0  0  0  0
    3.6016   -1.5836    0.4659 C   0  0  0  0  0  0  0  0  0  0  0  0
    2.7439   -2.3334    1.2033 N   0  0  0  0  0  0  0  0  0  0  0  0
    1.4330   -2.3964    0.8840 C   0  0  0  0  0  0  0  0  0  0  0  0
    0.9123   -1.7134   -0.1900 C   0  0  0  0  0  0  0  0  0  0  0  0
   -0.4770   -1.6986   -0.5031 N   0  0  0  0  0  0  0  0  0  0  0  0
   -1.1646   -2.6727   -1.2610 C   0  0  0  0  0  0  0  0  0  0  0  0
   -0.5002   -3.6529   -1.7057 O   0  0  0  0  0  0  0  0  0  0  0  0
   -2.5762   -2.6259   -1.5605 C   0  0  0  0  0  0  0  0  0  0  0  0
   -3.3516   -1.6706   -0.8916 C   0  0  0  0  0  0  0  0  0  0  0  0
   -4.7012   -1.5261   -1.0906 C   0  0  0  0  0  0  0  0  0  0  0  0
   -5.4911   -0.5433   -0.4537 N   0  0  0  0  0  0  0  0  0  0  0  0
   -5.0971    0.5420    0.3397 C   0  0  0  0  0  0  0  0  0  0  0  0
   -3.8698    0.7051    0.5484 O   0  0  0  0  0  0  0  0  0  0  0  0
   -5.9972    1.5046    0.9500 C   0  0  0  0  0  0  0  0  0  0  0  0
   -5.4682    2.5670    1.6452 C   0  0  0  0  0  0  0  0  0  0  0  0
   -6.2360    3.5420    2.2627 C   0  0  0  0  0  0  0  0  0  0  0  0
   -7.5921    3.4381    2.1725 C   0  0  0  0  0  0  0  0  0  0  0  0
   -8.1743    2.3923    1.4859 C   0  0  0  0  0  0  0  0  0  0  0  0
   -9.6496    2.3628    1.4444 C   0  0  0  0  0  0  0  0  0  0  0  0
  -10.0555    3.1162    0.3413 F   0  0  0  0  0  0  0  0  0  0  0  0
  -10.0561    1.0752    1.1834 F   0  0  0  0  0  0  0  0  0  0  0  0
  -10.1955    2.8618    2.6141 F   0  0  0  0  0  0  0  0  0  0  0  0
   -7.3705    1.4339    0.8802 C   0  0  0  0  0  0  0  0  0  0  0  0
   -5.3319   -2.3856   -2.0140 C   0  0  0  0  0  0  0  0  0  0  0  0
   -4.5866   -3.3227   -2.6725 C   0  0  0  0  0  0  0  0  0  0  0  0
   -3.2091   -3.4564   -2.4560 C   0  0  0  0  0  0  0  0  0  0  0  0
   -2.4313   -4.4693   -3.1826 C   0  0  0  0  0  0  0  0  0  0  0  0
    1.8155   -0.9474   -0.9442 C   0  0  0  0  0  0  0  0  0  0  0  0
    3.0975   -0.9221   -0.5837 N   0  0  0  0  0  0  0  0  0  0  0  0
    6.6279    0.2936    0.8289 C   0  0  0  0  0  0  0  0  0  0  0  0
    8.9139    4.2098    2.5724 H   0  0  0  0  0  0  0  0  0  0  0  0
   10.5776    4.4205    3.3370 H   0  0  0  0  0  0  0  0  0  0  0  0
   11.4062    2.4296    2.4231 H   0  0  0  0  0  0  0  0  0  0  0  0
    7.8161    3.0118    1.4393 H   0  0  0  0  0  0  0  0  0  0  0  0
    7.9401    2.2113   -1.6133 H   0  0  0  0  0  0  0  0  0  0  0  0
    6.4562    0.8125   -2.9271 H   0  0  0  0  0  0  0  0  0  0  0  0
    5.0766   -0.9500   -1.8700 H   0  0  0  0  0  0  0  0  0  0  0  0
    5.3378   -2.0091    1.6026 H   0  0  0  0  0  0  0  0  0  0  0  0
    0.7394   -2.9982    1.4753 H   0  0  0  0  0  0  0  0  0  0  0  0
   -1.0240   -0.8750   -0.1403 H   0  0  0  0  0  0  0  0  0  0  0  0
   -2.9043   -1.0124   -0.1731 H   0  0  0  0  0  0  0  0  0  0  0  0
   -6.5534   -0.6110   -0.5860 H   0  0  0  0  0  0  0  0  0  0  0  0
   -4.3855    2.6921    1.7528 H   0  0  0  0  0  0  0  0  0  0  0  0
   -5.7344    4.3484    2.7848 H   0  0  0  0  0  0  0  0  0  0  0  0
   -8.2266    4.1978    2.6612 H   0  0  0  0  0  0  0  0  0  0  0  0
   -7.8355    0.6251    0.3584 H   0  0  0  0  0  0  0  0  0  0  0  0
   -6.4091   -2.2812   -2.1863 H   0  0  0  0  0  0  0  0  0  0  0  0
   -5.0382   -3.9983   -3.3973 H   0  0  0  0  0  0  0  0  0  0  0  0
   -2.0523   -5.2400   -2.5104 H   0  0  0  0  0  0  0  0  0  0  0  0
   -3.0638   -5.0028   -3.9294 H   0  0  0  0  0  0  0  0  0  0  0  0
   -1.6132   -3.9166   -3.7258 H   0  0  0  0  0  0  0  0  0  0  0  0
    1.4164   -0.4117   -1.8126 H   0  0  0  0  0  0  0  0  0  0  0  0
    6.6658    0.1403    1.8980 H   0  0  0  0  0  0  0  0  0  0  0  0
  1  2  2  3
  2  3  1  0
  3  4  2  0
  3  5  1  0
  5  6  1  0
  6  7  2  0
  7  8  1  0
  8  9  2  0
  9 10  1  0
 10 11  1  0
 11 12  1  0
 12 13  2  0
 13 14  1  0
 14 15  2  0
 15 16  1  0
 16 17  1  0
 17 18  2  0
 17 19  1  0
 19 20  2  0
 20 21  1  0
 21 22  1  0
 22 23  1  0
 23 24  2  0
 23 25  1  0
 25 26  2  0
 26 27  1  0
 27 28  2  0
 28 29  1  0
 29 30  1  0
 30 31  1  0
 30 32  1  0
 30 33  1  0
 29 34  2  0
 21 35  2  0
 35 36  1  0
 36 37  2  0
 37 38  1  0
 15 39  1  0
 39 40  2  0
 10 41  2  0
 41  6  1  0
 40 12  1  0
 37 19  1  0
 34 25  1  0
  1 42  1  0
  1 43  1  0
  2 44  1  0
  5 45  1  0
  7 46  1  0
  8 47  1  0
  9 48  1  0
 11 49  1  0
 14 50  1  0
 16 51  1  0
 20 52  1  0
 22 53  1  0
 26 54  1  0
 27 55  1  0
 28 56  1  0
 34 57  1  0
 35 58  1  0
 36 59  1  0
 38 60  1  0
 38 61  1  0
 38 62  1  0
 39 63  1  0
 41 64  1  0
M  END
$$$$
