@<TRIPOS>MOLECULE
*****
 45 47 0 0 0
SMALL
GASTEIGER

@<TRIPOS>ATOM
      1 C           3.7511    1.0092    0.0606 C.3     1  UNL1       -0.0130
      2 N           3.6675   -0.1583    0.8241 N.3     1  UNL1       -0.3083
      3 C           4.8843   -0.3817    1.5523 C.3     1  UNL1       -0.0130
      4 C           2.9318   -1.2739    0.4409 C.3     1  UNL1       -0.0003
      5 C           1.4151   -1.1496    0.4763 C.3     1  UNL1       -0.0240
      6 C           0.8726   -0.0714   -0.4328 C.3     1  UNL1        0.0184
      7 N          -0.5732    0.0562   -0.4372 N.pl3   1  UNL1       -0.2995
      8 C          -1.1476    1.3992   -0.4937 C.ar    1  UNL1        0.0372
      9 C          -0.2589    2.2781   -1.0734 C.ar    1  UNL1       -0.0401
     10 C          -0.6676    3.5671   -1.1686 C.ar    1  UNL1       -0.0600
     11 C          -1.9202    3.9593   -0.7005 C.ar    1  UNL1       -0.0614
     12 C          -2.7657    3.0291   -0.1296 C.ar    1  UNL1       -0.0568
     13 C          -2.4146    1.6799    0.0037 C.ar    1  UNL1       -0.0257
     14 C          -3.5432    0.9710    0.6368 C.3     1  UNL1       -0.0219
     15 C          -3.2611   -0.3782    1.1823 C.3     1  UNL1       -0.0219
     16 C          -2.5029   -1.2927    0.3005 C.ar    1  UNL1       -0.0256
     17 C          -1.3344   -1.1745   -0.4217 C.ar    1  UNL1        0.0385
     18 C          -0.6817   -2.1170   -1.2367 C.ar    1  UNL1       -0.0217
     19 C          -1.3253   -3.3308   -1.3076 C.ar    1  UNL1        0.0428
     20 CL         -0.5446   -4.5310   -2.3124 Cl      1  UNL1       -0.0835
     21 C          -2.5031   -3.5526   -0.6217 C.ar    1  UNL1       -0.0430
     22 C          -3.0886   -2.5592    0.1698 C.ar    1  UNL1       -0.0554
     23 H           4.8362    1.2967   -0.0536 H       1  UNL1        0.0391
     24 H           3.3375    1.0268   -0.9467 H       1  UNL1        0.0391
     25 H           3.2812    1.8742    0.6218 H       1  UNL1        0.0391
     26 H           5.2671    0.6487    1.8182 H       1  UNL1        0.0391
     27 H           5.6741   -0.8723    0.9523 H       1  UNL1        0.0391
     28 H           4.7181   -0.8772    2.5284 H       1  UNL1        0.0391
     29 H           3.2179   -2.1640    1.0768 H       1  UNL1        0.0427
     30 H           3.2334   -1.5351   -0.6226 H       1  UNL1        0.0427
     31 H           0.9125   -2.1035    0.4789 H       1  UNL1        0.0293
     32 H           1.2579   -0.8351    1.5807 H       1  UNL1        0.0293
     33 H           1.3204   -0.0685   -1.4196 H       1  UNL1        0.0468
     34 H           1.2242    0.8352    0.1038 H       1  UNL1        0.0468
     35 H           0.6914    1.8631   -1.4163 H       1  UNL1        0.0636
     36 H           0.0110    4.2825   -1.6202 H       1  UNL1        0.0618
     37 H          -2.1888    5.0012   -0.8034 H       1  UNL1        0.0618
     38 H          -3.7159    3.4330    0.2031 H       1  UNL1        0.0621
     39 H          -4.3502    0.8614   -0.1327 H       1  UNL1        0.0317
     40 H          -3.9422    1.6013    1.4623 H       1  UNL1        0.0317
     41 H          -4.2621   -0.8585    1.3730 H       1  UNL1        0.0317
     42 H          -2.7758   -0.2843    2.1828 H       1  UNL1        0.0317
     43 H           0.2403   -1.7878   -1.7090 H       1  UNL1        0.0651
     44 H          -2.9705   -4.5370   -0.7150 H       1  UNL1        0.0632
     45 H          -4.0077   -2.7789    0.6866 H       1  UNL1        0.0621
@<TRIPOS>BOND
     1     1     2    1
     2     2     3    1
     3     2     4    1
     4     4     5    1
     5     5     6    1
     6     6     7    1
     7     7     8    1
     8     8     9   ar
     9     9    10   ar
    10    10    11   ar
    11    11    12   ar
    12    12    13   ar
    13    13    14    1
    14    14    15    1
    15    15    16    1
    16    16    17   ar
    17    17    18   ar
    18    18    19   ar
    19    19    20    1
    20    19    21   ar
    21    21    22   ar
    22    17     7    1
    23    13     8   ar
    24    22    16   ar
    25     1    23    1
    26     1    24    1
    27     1    25    1
    28     3    26    1
    29     3    27    1
    30     3    28    1
    31     4    29    1
    32     4    30    1
    33     5    31    1
    34     5    32    1
    35     6    33    1
    36     6    34    1
    37     9    35    1
    38    10    36    1
    39    11    37    1
    40    12    38    1
    41    14    39    1
    42    14    40    1
    43    15    41    1
    44    15    42    1
    45    18    43    1
    46    21    44    1
    47    22    45    1
