@<TRIPOS>MOLECULE
*****
 50 53 0 0 0
SMALL
GASTEIGER

@<TRIPOS>ATOM
      1 C           6.8644   -0.1540   -0.2670 C.3     1  UNL1        0.0790
      2 O           6.5440   -1.1817    0.6641 O.3     1  UNL1       -0.4914
      3 C           5.2273   -1.4224    1.0383 C.ar    1  UNL1        0.1619
      4 C           4.1803   -0.6690    0.5168 C.ar    1  UNL1       -0.0071
      5 C           2.8705   -0.8822    0.8663 C.ar    1  UNL1        0.0042
      6 C           1.7710   -0.0744    0.3040 C.ar    1  UNL1        0.0770
      7 C           2.0275    0.9275   -0.5973 C.ar    1  UNL1       -0.0077
      8 C           0.9779    1.6828   -1.1208 C.ar    1  UNL1        0.0999
      9 N           0.9272    2.7009   -1.9977 N.ar    1  UNL1       -0.1712
     10 N          -0.3227    3.0867   -2.1756 N.ar    1  UNL1       -0.2732
     11 C          -0.7546    4.1800   -3.0699 C.3     1  UNL1        0.0302
     12 C          -1.1172    2.3274   -1.4171 C.ar    1  UNL1        0.0380
     13 C          -0.3183    1.4337   -0.7420 C.ar    1  UNL1        0.0812
     14 C          -0.5701    0.4125    0.1754 C.ar    1  UNL1        0.2265
     15 O          -1.7678    0.1083    0.5895 O.3     1  UNL1       -0.4725
     16 C          -3.0780    0.2434    0.6367 C.3     1  UNL1        0.1037
     17 C          -3.6695    0.5792    2.0076 C.3     1  UNL1       -0.0274
     18 C          -3.8911   -0.9754    0.1790 C.3     1  UNL1        0.0196
     19 C          -5.3477   -0.6024    0.3139 C.3     1  UNL1        0.0182
     20 N          -6.0001   -1.1096   -0.8818 N.am    1  UNL1       -0.3149
     21 C          -5.0505   -1.4790   -1.8478 C.2     1  UNL1        0.2135
     22 O          -5.3180   -1.9129   -2.9910 O.2     1  UNL1       -0.2758
     23 C          -3.6736   -1.2693   -1.2875 C.3     1  UNL1        0.0315
     24 N           0.5096   -0.2779    0.6388 N.ar    1  UNL1       -0.2122
     25 C           2.6151   -1.8926    1.7742 C.ar    1  UNL1       -0.0489
     26 C           3.6577   -2.6465    2.2967 C.ar    1  UNL1       -0.0159
     27 C           4.9668   -2.4152    1.9316 C.ar    1  UNL1        0.1585
     28 O           5.9920   -3.1794    2.4652 O.3     1  UNL1       -0.5033
     29 H           7.9698   -0.2166   -0.4433 H       1  UNL1        0.0660
     30 H           6.5994    0.8067    0.2019 H       1  UNL1        0.0660
     31 H           6.3038   -0.3200   -1.1984 H       1  UNL1        0.0660
     32 H           4.4868    0.0938   -0.1829 H       1  UNL1        0.0662
     33 H           3.0351    1.1727   -0.9365 H       1  UNL1        0.0661
     34 H          -0.5425    5.1176   -2.5491 H       1  UNL1        0.0473
     35 H          -0.1888    4.0381   -4.0127 H       1  UNL1        0.0473
     36 H          -1.8292    4.0701   -3.3176 H       1  UNL1        0.0473
     37 H          -2.1813    2.4120   -1.3570 H       1  UNL1        0.0834
     38 H          -3.4580    1.0597   -0.0234 H       1  UNL1        0.0734
     39 H          -4.5523    1.2454    1.9291 H       1  UNL1        0.0265
     40 H          -2.9421    1.0646    2.6636 H       1  UNL1        0.0265
     41 H          -4.0180   -0.3411    2.5296 H       1  UNL1        0.0265
     42 H          -3.6999   -1.8508    0.8316 H       1  UNL1        0.0356
     43 H          -5.5048    0.5102    0.2848 H       1  UNL1        0.0466
     44 H          -5.8106   -0.9691    1.2313 H       1  UNL1        0.0466
     45 H          -7.0237   -1.1852   -0.9984 H       1  UNL1        0.1487
     46 H          -3.1424   -0.4542   -1.7994 H       1  UNL1        0.0363
     47 H          -3.1569   -2.2485   -1.3595 H       1  UNL1        0.0363
     48 H           1.6018   -2.0814    2.0653 H       1  UNL1        0.0625
     49 H           3.4769   -3.4493    3.0154 H       1  UNL1        0.0655
     50 H           6.3247   -4.0135    1.9998 H       1  UNL1        0.2923
@<TRIPOS>BOND
     1     1     2    1
     2     2     3    1
     3     3     4   ar
     4     4     5   ar
     5     5     6    1
     6     6     7   ar
     7     7     8   ar
     8     8     9   ar
     9     9    10   ar
    10    10    11    1
    11    10    12   ar
    12    12    13   ar
    13    13    14   ar
    14    14    15    1
    15    15    16    1
    16    16    17    1
    17    16    18    1
    18    18    19    1
    19    19    20    1
    20    20    21   am
    21    21    22    2
    22    21    23    1
    23    14    24   ar
    24     5    25   ar
    25    25    26   ar
    26    26    27   ar
    27    27    28    1
    28    27     3   ar
    29    24     6   ar
    30    13     8   ar
    31    23    18    1
    32     1    29    1
    33     1    30    1
    34     1    31    1
    35     4    32    1
    36     7    33    1
    37    11    34    1
    38    11    35    1
    39    11    36    1
    40    12    37    1
    41    16    38    1
    42    17    39    1
    43    17    40    1
    44    17    41    1
    45    18    42    1
    46    19    43    1
    47    19    44    1
    48    20    45    1
    49    23    46    1
    50    23    47    1
    51    25    48    1
    52    26    49    1
    53    28    50    1
