@<TRIPOS>MOLECULE
*****
 44 45 0 0 0
SMALL
GASTEIGER

@<TRIPOS>ATOM
      1 C           0.3930    3.3827    0.3196 C.3     1  UNL1       -0.0619
      2 C          -0.4746    2.1686   -0.1473 C.3     1  UNL1       -0.0370
      3 C          -1.5365    1.9754    0.8471 C.3     1  UNL1       -0.0247
      4 C          -2.5037    0.8892    0.6404 C.ar    1  UNL1       -0.0434
      5 C          -3.6223    1.0837   -0.1827 C.ar    1  UNL1       -0.0549
      6 C          -4.5728    0.1085   -0.3750 C.ar    1  UNL1       -0.0163
      7 C          -4.4593   -1.1152    0.2440 C.ar    1  UNL1        0.1582
      8 O          -5.4330   -2.1097    0.0450 O.3     1  UNL1       -0.5033
      9 C          -3.3708   -1.3338    1.0582 C.ar    1  UNL1        0.1585
     10 O          -3.1914   -2.5432    1.7144 O.3     1  UNL1       -0.5033
     11 C          -2.4280   -0.3479    1.2406 C.ar    1  UNL1       -0.0133
     12 C           0.4782    1.0804   -0.4513 C.3     1  UNL1       -0.0370
     13 C          -0.1228   -0.1866   -0.9487 C.3     1  UNL1       -0.0619
     14 C           1.4751    0.8039    0.6298 C.3     1  UNL1       -0.0247
     15 C           2.3683   -0.2972    0.1988 C.ar    1  UNL1       -0.0434
     16 C           2.2037   -1.6156    0.5565 C.ar    1  UNL1       -0.0549
     17 C           3.0183   -2.6433    0.1395 C.ar    1  UNL1       -0.0163
     18 C           4.0708   -2.3150   -0.6949 C.ar    1  UNL1        0.1582
     19 O           4.9187   -3.3107   -1.1422 O.3     1  UNL1       -0.5033
     20 C           4.2774   -1.0057   -1.0809 C.ar    1  UNL1        0.1585
     21 O           5.3692   -0.7581   -1.9294 O.3     1  UNL1       -0.5033
     22 C           3.4468    0.0045   -0.6495 C.ar    1  UNL1       -0.0133
     23 H          -0.1068    4.3165    0.0559 H       1  UNL1        0.0233
     24 H           0.5721    3.2271    1.3904 H       1  UNL1        0.0233
     25 H           1.3594    3.3556   -0.2214 H       1  UNL1        0.0233
     26 H          -0.9267    2.5221   -1.0994 H       1  UNL1        0.0304
     27 H          -2.1307    2.9460    0.9086 H       1  UNL1        0.0316
     28 H          -1.1692    1.8641    1.8991 H       1  UNL1        0.0316
     29 H          -3.6950    2.0573   -0.6636 H       1  UNL1        0.0621
     30 H          -5.4334    0.2672   -1.0124 H       1  UNL1        0.0655
     31 H          -6.2888   -2.1044    0.5859 H       1  UNL1        0.2923
     32 H          -2.9272   -3.4016    1.2491 H       1  UNL1        0.2923
     33 H          -1.5816   -0.5441    1.8854 H       1  UNL1        0.0658
     34 H           1.1329    1.4484   -1.3268 H       1  UNL1        0.0304
     35 H          -1.1684    0.0222   -1.2990 H       1  UNL1        0.0233
     36 H          -0.1603   -1.0252   -0.2416 H       1  UNL1        0.0233
     37 H           0.4034   -0.5834   -1.8616 H       1  UNL1        0.0233
     38 H           2.0917    1.7315    0.7740 H       1  UNL1        0.0316
     39 H           1.0072    0.4818    1.5830 H       1  UNL1        0.0316
     40 H           1.3964   -1.8682    1.2211 H       1  UNL1        0.0621
     41 H           2.8223   -3.6470    0.4632 H       1  UNL1        0.0655
     42 H           4.7105   -3.8028   -2.0107 H       1  UNL1        0.2923
     43 H           6.1588   -0.2015   -1.6268 H       1  UNL1        0.2923
     44 H           3.6291    1.0234   -0.9657 H       1  UNL1        0.0658
@<TRIPOS>BOND
     1     1     2    1
     2     2     3    1
     3     3     4    1
     4     4     5   ar
     5     5     6   ar
     6     6     7   ar
     7     7     8    1
     8     7     9   ar
     9     9    10    1
    10     9    11   ar
    11     2    12    1
    12    12    13    1
    13    12    14    1
    14    14    15    1
    15    15    16   ar
    16    16    17   ar
    17    17    18   ar
    18    18    19    1
    19    18    20   ar
    20    20    21    1
    21    20    22   ar
    22    11     4   ar
    23    22    15   ar
    24     1    23    1
    25     1    24    1
    26     1    25    1
    27     2    26    1
    28     3    27    1
    29     3    28    1
    30     5    29    1
    31     6    30    1
    32     8    31    1
    33    10    32    1
    34    11    33    1
    35    12    34    1
    36    13    35    1
    37    13    36    1
    38    13    37    1
    39    14    38    1
    40    14    39    1
    41    16    40    1
    42    17    41    1
    43    19    42    1
    44    21    43    1
    45    22    44    1
