
     RDKit          3D

 44 45  0  0  0  0  0  0  0  0999 V2000
    0.3930    3.3827    0.3196 C   0  0  0  0  0  0  0  0  0  0  0  0
   -0.4746    2.1686   -0.1473 C   0  0  0  0  0  0  0  0  0  0  0  0
   -1.5365    1.9754    0.8471 C   0  0  0  0  0  0  0  0  0  0  0  0
   -2.5037    0.8892    0.6404 C   0  0  0  0  0  0  0  0  0  0  0  0
   -3.6223    1.0837   -0.1827 C   0  0  0  0  0  0  0  0  0  0  0  0
   -4.5728    0.1085   -0.3750 C   0  0  0  0  0  0  0  0  0  0  0  0
   -4.4593   -1.1152    0.2440 C   0  0  0  0  0  0  0  0  0  0  0  0
   -5.4330   -2.1097    0.0450 O   0  0  0  0  0  0  0  0  0  0  0  0
   -3.3708   -1.3338    1.0582 C   0  0  0  0  0  0  0  0  0  0  0  0
   -3.1914   -2.5432    1.7144 O   0  0  0  0  0  0  0  0  0  0  0  0
   -2.4280   -0.3479    1.2406 C   0  0  0  0  0  0  0  0  0  0  0  0
    0.4782    1.0804   -0.4513 C   0  0  0  0  0  0  0  0  0  0  0  0
   -0.1228   -0.1866   -0.9487 C   0  0  0  0  0  0  0  0  0  0  0  0
    1.4751    0.8039    0.6298 C   0  0  0  0  0  0  0  0  0  0  0  0
    2.3683   -0.2972    0.1988 C   0  0  0  0  0  0  0  0  0  0  0  0
    2.2037   -1.6156    0.5565 C   0  0  0  0  0  0  0  0  0  0  0  0
    3.0183   -2.6433    0.1395 C   0  0  0  0  0  0  0  0  0  0  0  0
    4.0708   -2.3150   -0.6949 C   0  0  0  0  0  0  0  0  0  0  0  0
    4.9187   -3.3107   -1.1422 O   0  0  0  0  0  0  0  0  0  0  0  0
    4.2774   -1.0057   -1.0809 C   0  0  0  0  0  0  0  0  0  0  0  0
    5.3692   -0.7581   -1.9294 O   0  0  0  0  0  0  0  0  0  0  0  0
    3.4468    0.0045   -0.6495 C   0  0  0  0  0  0  0  0  0  0  0  0
   -0.1068    4.3165    0.0559 H   0  0  0  0  0  0  0  0  0  0  0  0
    0.5721    3.2271    1.3904 H   0  0  0  0  0  0  0  0  0  0  0  0
    1.3594    3.3556   -0.2214 H   0  0  0  0  0  0  0  0  0  0  0  0
   -0.9267    2.5221   -1.0994 H   0  0  0  0  0  0  0  0  0  0  0  0
   -2.1307    2.9460    0.9086 H   0  0  0  0  0  0  0  0  0  0  0  0
   -1.1692    1.8641    1.8991 H   0  0  0  0  0  0  0  0  0  0  0  0
   -3.6950    2.0573   -0.6636 H   0  0  0  0  0  0  0  0  0  0  0  0
   -5.4334    0.2672   -1.0124 H   0  0  0  0  0  0  0  0  0  0  0  0
   -6.2888   -2.1044    0.5859 H   0  0  0  0  0  0  0  0  0  0  0  0
   -2.9272   -3.4016    1.2491 H   0  0  0  0  0  0  0  0  0  0  0  0
   -1.5816   -0.5441    1.8854 H   0  0  0  0  0  0  0  0  0  0  0  0
    1.1329    1.4484   -1.3268 H   0  0  0  0  0  0  0  0  0  0  0  0
   -1.1684    0.0222   -1.2990 H   0  0  0  0  0  0  0  0  0  0  0  0
   -0.1603   -1.0252   -0.2416 H   0  0  0  0  0  0  0  0  0  0  0  0
    0.4034   -0.5834   -1.8616 H   0  0  0  0  0  0  0  0  0  0  0  0
    2.0917    1.7315    0.7740 H   0  0  0  0  0  0  0  0  0  0  0  0
    1.0072    0.4818    1.5830 H   0  0  0  0  0  0  0  0  0  0  0  0
    1.3964   -1.8682    1.2211 H   0  0  0  0  0  0  0  0  0  0  0  0
    2.8223   -3.6470    0.4632 H   0  0  0  0  0  0  0  0  0  0  0  0
    4.7105   -3.8028   -2.0107 H   0  0  0  0  0  0  0  0  0  0  0  0
    6.1588   -0.2015   -1.6268 H   0  0  0  0  0  0  0  0  0  0  0  0
    3.6291    1.0234   -0.9657 H   0  0  0  0  0  0  0  0  0  0  0  0
  1  2  1  0
  2  3  1  0
  3  4  1  0
  4  5  2  0
  5  6  1  0
  6  7  2  0
  7  8  1  0
  7  9  1  0
  9 10  1  0
  9 11  2  0
  2 12  1  0
 12 13  1  0
 12 14  1  0
 14 15  1  0
 15 16  2  0
 16 17  1  0
 17 18  2  0
 18 19  1  0
 18 20  1  0
 20 21  1  0
 20 22  2  0
 11  4  1  0
 22 15  1  0
  1 23  1  0
  1 24  1  0
  1 25  1  0
  2 26  1  0
  3 27  1  0
  3 28  1  0
  5 29  1  0
  6 30  1  0
  8 31  1  0
 10 32  1  0
 11 33  1  0
 12 34  1  0
 13 35  1  0
 13 36  1  0
 13 37  1  0
 14 38  1  0
 14 39  1  0
 16 40  1  0
 17 41  1  0
 19 42  1  0
 21 43  1  0
 22 44  1  0
M  END
$$$$
