
     RDKit          3D

 61 63  0  0  0  0  0  0  0  0999 V2000
    7.1884   -0.2593    0.7604 C   0  0  0  0  0  0  0  0  0  0  0  0
    5.9214   -0.0636   -0.0234 C   0  0  0  0  0  0  0  0  0  0  0  0
    5.0224   -1.2891    0.0303 C   0  0  0  0  0  0  0  0  0  0  0  0
    3.5349   -1.0212   -0.9064 S   0  0  0  0  0  6  0  0  0  0  0  0
    2.6772   -2.2504   -0.8294 O   0  0  0  0  0  0  0  0  0  0  0  0
    3.8836   -0.7692   -2.3388 O   0  0  0  0  0  0  0  0  0  0  0  0
    2.6994    0.3048   -0.2562 N   0  0  0  0  0  0  0  0  0  0  0  0
    2.2916    0.0988    1.1104 C   0  0  0  0  0  0  0  0  0  0  0  0
    1.0639    0.9048    1.3544 C   0  0  0  0  0  0  0  0  0  0  0  0
   -0.1503    0.3135    0.6342 C   0  0  0  0  0  0  0  0  0  0  0  0
   -0.3786   -1.0457    1.2834 C   0  0  0  0  0  0  0  0  0  0  0  0
   -1.5435   -1.7591    0.8933 N   0  0  0  0  0  0  0  0  0  0  0  0
   -2.0108   -2.2807   -0.2942 C   0  0  0  0  0  0  0  0  0  0  0  0
   -1.3727   -2.1906   -1.3526 O   0  0  0  0  0  0  0  0  0  0  0  0
   -3.3185   -2.9910   -0.3977 C   0  0  0  0  0  0  0  0  0  0  0  0
   -3.5305   -4.1803    0.2604 C   0  0  0  0  0  0  0  0  0  0  0  0
   -4.7338   -4.8487    0.1759 C   0  0  0  0  0  0  0  0  0  0  0  0
   -5.7274   -4.2735   -0.6014 C   0  0  0  0  0  0  0  0  0  0  0  0
   -6.9113   -4.9187   -0.6932 F   0  0  0  0  0  0  0  0  0  0  0  0
   -5.5691   -3.0843   -1.2816 C   0  0  0  0  0  0  0  0  0  0  0  0
   -4.3376   -2.4649   -1.1548 C   0  0  0  0  0  0  0  0  0  0  0  0
   -4.1139   -0.9558   -2.0051 Cl  0  0  0  0  0  0  0  0  0  0  0  0
   -1.3093    1.1631    0.8145 C   0  0  0  0  0  0  0  0  0  0  0  0
   -2.2125    0.6076    1.6040 O   0  0  0  0  0  0  0  0  0  0  0  0
   -1.6923    2.4086    0.3566 N   0  0  0  0  0  0  0  0  0  0  0  0
   -0.9369    3.2250   -0.5279 C   0  0  0  0  0  0  0  0  0  0  0  0
   -1.5748    4.4753   -1.0256 C   0  0  0  0  0  0  0  0  0  0  0  0
   -2.8517    4.7343   -0.6227 O   0  0  0  0  0  0  0  0  0  0  0  0
   -2.9054    4.4362    0.7550 C   0  0  0  0  0  0  0  0  0  0  0  0
   -2.9946    2.9306    0.8223 C   0  0  0  0  0  0  0  0  0  0  0  0
    0.3365    0.1018   -0.7754 C   0  0  0  0  0  0  0  0  0  0  0  0
    1.6567    0.8536   -1.0609 C   0  0  0  0  0  0  0  0  0  0  0  0
    8.1009    0.0680    0.1810 H   0  0  0  0  0  0  0  0  0  0  0  0
    7.3579   -1.3074    1.0470 H   0  0  0  0  0  0  0  0  0  0  0  0
    7.2181    0.3938    1.6735 H   0  0  0  0  0  0  0  0  0  0  0  0
    5.3749    0.8049    0.4222 H   0  0  0  0  0  0  0  0  0  0  0  0
    6.1767    0.1099   -1.0933 H   0  0  0  0  0  0  0  0  0  0  0  0
    5.6064   -2.1142   -0.4472 H   0  0  0  0  0  0  0  0  0  0  0  0
    4.8446   -1.5674    1.0711 H   0  0  0  0  0  0  0  0  0  0  0  0
    3.1138    0.6022    1.7355 H   0  0  0  0  0  0  0  0  0  0  0  0
    2.2839   -0.9301    1.4552 H   0  0  0  0  0  0  0  0  0  0  0  0
    1.2436    1.9375    1.0609 H   0  0  0  0  0  0  0  0  0  0  0  0
    0.7545    0.8973    2.4365 H   0  0  0  0  0  0  0  0  0  0  0  0
   -0.3440   -0.8704    2.3630 H   0  0  0  0  0  0  0  0  0  0  0  0
    0.5522   -1.6508    1.0598 H   0  0  0  0  0  0  0  0  0  0  0  0
   -2.2333   -1.9360    1.7361 H   0  0  0  0  0  0  0  0  0  0  0  0
   -2.7290   -4.5856    0.8501 H   0  0  0  0  0  0  0  0  0  0  0  0
   -4.9226   -5.7934    0.6916 H   0  0  0  0  0  0  0  0  0  0  0  0
   -6.3885   -2.6966   -1.8683 H   0  0  0  0  0  0  0  0  0  0  0  0
   -0.6527    2.6043   -1.4211 H   0  0  0  0  0  0  0  0  0  0  0  0
    0.0503    3.5538   -0.0757 H   0  0  0  0  0  0  0  0  0  0  0  0
   -0.9725    5.4013   -0.7615 H   0  0  0  0  0  0  0  0  0  0  0  0
   -1.5472    4.4838   -2.1486 H   0  0  0  0  0  0  0  0  0  0  0  0
   -3.7755    4.9364    1.2265 H   0  0  0  0  0  0  0  0  0  0  0  0
   -1.9748    4.7485    1.2659 H   0  0  0  0  0  0  0  0  0  0  0  0
   -3.8112    2.5583    0.1543 H   0  0  0  0  0  0  0  0  0  0  0  0
   -3.1742    2.6775    1.8801 H   0  0  0  0  0  0  0  0  0  0  0  0
    0.7090   -0.9733   -0.8234 H   0  0  0  0  0  0  0  0  0  0  0  0
   -0.3608    0.2654   -1.5692 H   0  0  0  0  0  0  0  0  0  0  0  0
    1.5103    1.9106   -0.9790 H   0  0  0  0  0  0  0  0  0  0  0  0
    1.8885    0.5597   -2.1239 H   0  0  0  0  0  0  0  0  0  0  0  0
  1  2  1  0
  2  3  1  0
  3  4  1  0
  4  5  2  0
  4  6  2  0
  4  7  1  0
  7  8  1  0
  8  9  1  0
  9 10  1  0
 10 11  1  0
 11 12  1  0
 12 13  1  0
 13 14  2  0
 13 15  1  0
 15 16  2  0
 16 17  1  0
 17 18  2  0
 18 19  1  0
 18 20  1  0
 20 21  2  0
 21 22  1  0
 10 23  1  0
 23 24  2  0
 23 25  1  0
 25 26  1  0
 26 27  1  0
 27 28  1  0
 28 29  1  0
 29 30  1  0
 10 31  1  0
 31 32  1  0
 32  7  1  0
 21 15  1  0
 30 25  1  0
  1 33  1  0
  1 34  1  0
  1 35  1  0
  2 36  1  0
  2 37  1  0
  3 38  1  0
  3 39  1  0
  8 40  1  0
  8 41  1  0
  9 42  1  0
  9 43  1  0
 11 44  1  0
 11 45  1  0
 12 46  1  0
 16 47  1  0
 17 48  1  0
 20 49  1  0
 26 50  1  0
 26 51  1  0
 27 52  1  0
 27 53  1  0
 29 54  1  0
 29 55  1  0
 30 56  1  0
 30 57  1  0
 31 58  1  0
 31 59  1  0
 32 60  1  0
 32 61  1  0
M  END
$$$$
