@<TRIPOS>MOLECULE
*****
 61 63 0 0 0
SMALL
GASTEIGER

@<TRIPOS>ATOM
      1 C           7.1884   -0.2593    0.7604 C.3     1  UNL1       -0.0638
      2 C           5.9214   -0.0636   -0.0234 C.3     1  UNL1       -0.0350
      3 C           5.0224   -1.2891    0.0303 C.3     1  UNL1        0.0817
      4 S           3.5349   -1.0212   -0.9064 S.O2    1  UNL1        0.0318
      5 O           2.6772   -2.2504   -0.8294 O.2     1  UNL1       -0.1580
      6 O           3.8836   -0.7692   -2.3388 O.2     1  UNL1       -0.1580
      7 N           2.6994    0.3048   -0.2562 N.3     1  UNL1       -0.1811
      8 C           2.2916    0.0988    1.1104 C.3     1  UNL1        0.0211
      9 C           1.0639    0.9048    1.3544 C.3     1  UNL1       -0.0231
     10 C          -0.1503    0.3135    0.6342 C.3     1  UNL1        0.0650
     11 C          -0.3786   -1.0457    1.2834 C.3     1  UNL1        0.0259
     12 N          -1.5435   -1.7591    0.8933 N.am    1  UNL1       -0.3103
     13 C          -2.0108   -2.2807   -0.2942 C.2     1  UNL1        0.2455
     14 O          -1.3727   -2.1906   -1.3526 O.2     1  UNL1       -0.2702
     15 C          -3.3185   -2.9910   -0.3977 C.ar    1  UNL1        0.0551
     16 C          -3.5305   -4.1803    0.2604 C.ar    1  UNL1       -0.0455
     17 C          -4.7338   -4.8487    0.1759 C.ar    1  UNL1       -0.0256
     18 C          -5.7274   -4.2735   -0.6014 C.ar    1  UNL1        0.1248
     19 F          -6.9113   -4.9187   -0.6932 F       1  UNL1       -0.2054
     20 C          -5.5691   -3.0843   -1.2816 C.ar    1  UNL1       -0.0074
     21 C          -4.3376   -2.4649   -1.1548 C.ar    1  UNL1        0.0558
     22 CL         -4.1139   -0.9558   -2.0051 Cl      1  UNL1       -0.0827
     23 C          -1.3093    1.1631    0.8145 C.2     1  UNL1        0.2235
     24 O          -2.2125    0.6076    1.6040 O.2     1  UNL1       -0.2749
     25 N          -1.6923    2.4086    0.3566 N.am    1  UNL1       -0.2966
     26 C          -0.9369    3.2250   -0.5279 C.3     1  UNL1        0.0382
     27 C          -1.5748    4.4753   -1.0256 C.3     1  UNL1        0.0635
     28 O          -2.8517    4.7343   -0.6227 O.3     1  UNL1       -0.3767
     29 C          -2.9054    4.4362    0.7550 C.3     1  UNL1        0.0635
     30 C          -2.9946    2.9306    0.8223 C.3     1  UNL1        0.0382
     31 C           0.3365    0.1018   -0.7754 C.3     1  UNL1       -0.0231
     32 C           1.6567    0.8536   -1.0609 C.3     1  UNL1        0.0211
     33 H           8.1009    0.0680    0.1810 H       1  UNL1        0.0230
     34 H           7.3579   -1.3074    1.0470 H       1  UNL1        0.0230
     35 H           7.2181    0.3938    1.6735 H       1  UNL1        0.0230
     36 H           5.3749    0.8049    0.4222 H       1  UNL1        0.0279
     37 H           6.1767    0.1099   -1.0933 H       1  UNL1        0.0279
     38 H           5.6064   -2.1142   -0.4472 H       1  UNL1        0.0515
     39 H           4.8446   -1.5674    1.0711 H       1  UNL1        0.0515
     40 H           3.1138    0.6022    1.7355 H       1  UNL1        0.0444
     41 H           2.2839   -0.9301    1.4552 H       1  UNL1        0.0444
     42 H           1.2436    1.9375    1.0609 H       1  UNL1        0.0289
     43 H           0.7545    0.8973    2.4365 H       1  UNL1        0.0289
     44 H          -0.3440   -0.8704    2.3630 H       1  UNL1        0.0472
     45 H           0.5522   -1.6508    1.0598 H       1  UNL1        0.0472
     46 H          -2.2333   -1.9360    1.7361 H       1  UNL1        0.1490
     47 H          -2.7290   -4.5856    0.8501 H       1  UNL1        0.0626
     48 H          -4.9226   -5.7934    0.6916 H       1  UNL1        0.0646
     49 H          -6.3885   -2.6966   -1.8683 H       1  UNL1        0.0661
     50 H          -0.6527    2.6043   -1.4211 H       1  UNL1        0.0487
     51 H           0.0503    3.5538   -0.0757 H       1  UNL1        0.0487
     52 H          -0.9725    5.4013   -0.7615 H       1  UNL1        0.0575
     53 H          -1.5472    4.4838   -2.1486 H       1  UNL1        0.0575
     54 H          -3.7755    4.9364    1.2265 H       1  UNL1        0.0575
     55 H          -1.9748    4.7485    1.2659 H       1  UNL1        0.0575
     56 H          -3.8112    2.5583    0.1543 H       1  UNL1        0.0487
     57 H          -3.1742    2.6775    1.8801 H       1  UNL1        0.0487
     58 H           0.7090   -0.9733   -0.8234 H       1  UNL1        0.0289
     59 H          -0.3608    0.2654   -1.5692 H       1  UNL1        0.0289
     60 H           1.5103    1.9106   -0.9790 H       1  UNL1        0.0444
     61 H           1.8885    0.5597   -2.1239 H       1  UNL1        0.0444
@<TRIPOS>BOND
     1     1     2    1
     2     2     3    1
     3     3     4    1
     4     4     5    2
     5     4     6    2
     6     4     7    1
     7     7     8    1
     8     8     9    1
     9     9    10    1
    10    10    11    1
    11    11    12    1
    12    12    13   am
    13    13    14    2
    14    13    15    1
    15    15    16   ar
    16    16    17   ar
    17    17    18   ar
    18    18    19    1
    19    18    20   ar
    20    20    21   ar
    21    21    22    1
    22    10    23    1
    23    23    24    2
    24    23    25   am
    25    25    26    1
    26    26    27    1
    27    27    28    1
    28    28    29    1
    29    29    30    1
    30    10    31    1
    31    31    32    1
    32    32     7    1
    33    21    15   ar
    34    30    25    1
    35     1    33    1
    36     1    34    1
    37     1    35    1
    38     2    36    1
    39     2    37    1
    40     3    38    1
    41     3    39    1
    42     8    40    1
    43     8    41    1
    44     9    42    1
    45     9    43    1
    46    11    44    1
    47    11    45    1
    48    12    46    1
    49    16    47    1
    50    17    48    1
    51    20    49    1
    52    26    50    1
    53    26    51    1
    54    27    52    1
    55    27    53    1
    56    29    54    1
    57    29    55    1
    58    30    56    1
    59    30    57    1
    60    31    58    1
    61    31    59    1
    62    32    60    1
    63    32    61    1
