@<TRIPOS>MOLECULE
*****
 56 60 0 0 0
SMALL
GASTEIGER

@<TRIPOS>ATOM
      1 C           0.1475    1.9854    0.0864 C.3     1  UNL1       -0.0351
      2 C          -0.6462    0.8682   -0.5823 C.3     1  UNL1        0.0935
      3 C           0.3568   -0.1163   -1.1213 C.ar    1  UNL1        0.0158
      4 C           1.7239    0.1009   -0.9366 C.ar    1  UNL1       -0.0463
      5 C           2.6702   -0.7822   -1.4231 C.ar    1  UNL1       -0.0217
      6 C           4.0792   -0.4636   -1.2395 C.2     1  UNL1       -0.0171
      7 C           4.9764   -1.3791   -0.8335 C.2     1  UNL1        0.1506
      8 F           4.4969   -2.6163   -0.6031 F       1  UNL1       -0.2032
      9 C           6.3838   -0.9954   -0.6915 C.ar    1  UNL1        0.1170
     10 C           7.3683   -1.8703   -0.2717 C.ar    1  UNL1        0.0572
     11 N           8.6594   -1.4429   -0.1887 N.ar    1  UNL1       -0.2409
     12 C           9.0200   -0.2063   -0.4969 C.ar    1  UNL1        0.1581
     13 C          10.3504    0.3131   -0.4541 C.1     1  UNL1        0.1206
     14 N          11.4327    0.7501   -0.4084 N.1     1  UNL1       -0.1892
     15 C           8.0303    0.6976   -0.9255 C.ar    1  UNL1        0.0642
     16 N           6.7858    0.2495   -0.9945 N.ar    1  UNL1       -0.2483
     17 C           2.2198   -1.9077   -2.1085 C.ar    1  UNL1       -0.0518
     18 C           0.8904   -2.1633   -2.3157 C.ar    1  UNL1       -0.0255
     19 C          -0.0061   -1.2436   -1.8075 C.ar    1  UNL1        0.1289
     20 F          -1.3104   -1.5049   -2.0289 F       1  UNL1       -0.2051
     21 N          -1.3991    1.4249   -1.6580 N.2     1  UNL1       -0.2521
     22 C          -2.4350    2.1522   -1.4859 C.2     1  UNL1        0.1485
     23 N          -3.1692    2.6986   -2.5433 N.pl3   1  UNL1       -0.3380
     24 S          -2.9414    2.4093    0.2333 S.3     1  UNL1       -0.0746
     25 C          -2.6233    0.7476    0.9905 C.3     1  UNL1        0.1054
     26 C          -3.2072    0.4865    2.2980 C.2     1  UNL1        0.2324
     27 O          -2.5694    0.3925    3.3773 O.2     1  UNL1       -0.2741
     28 N          -4.6333    0.3203    2.3837 N.am    1  UNL1       -0.3003
     29 C          -5.4353    0.0403    3.5594 C.3     1  UNL1        0.0148
     30 C          -6.3664   -1.0382    3.0321 C.3     1  UNL1       -0.0357
     31 C          -6.4572   -0.8310    1.5319 C.3     1  UNL1       -0.0357
     32 C          -5.6152    0.4168    1.3029 C.3     1  UNL1        0.0148
     33 C          -2.7681   -0.4200    0.0204 C.3     1  UNL1       -0.0220
     34 C          -1.4447    0.0962    0.4393 C.3     1  UNL1        0.0134
     35 H           0.8328    2.4753   -0.6302 H       1  UNL1        0.0256
     36 H           0.7288    1.5901    0.9536 H       1  UNL1        0.0256
     37 H          -0.4974    2.7766    0.4897 H       1  UNL1        0.0256
     38 H           2.0619    0.9499   -0.4133 H       1  UNL1        0.0628
     39 H           4.4865    0.5210   -1.4207 H       1  UNL1        0.0653
     40 H           7.0966   -2.8659   -0.0206 H       1  UNL1        0.0852
     41 H           8.2623    1.7155   -1.1861 H       1  UNL1        0.0859
     42 H           2.9403   -2.6124   -2.4948 H       1  UNL1        0.0624
     43 H           0.5357   -3.0477   -2.8506 H       1  UNL1        0.0646
     44 H          -2.7039    3.1878   -3.3568 H       1  UNL1        0.1442
     45 H          -4.2275    2.6603   -2.6028 H       1  UNL1        0.1442
     46 H          -6.0239    0.9216    3.8728 H       1  UNL1        0.0464
     47 H          -4.7961   -0.3424    4.3777 H       1  UNL1        0.0464
     48 H          -7.3840   -0.9854    3.4373 H       1  UNL1        0.0281
     49 H          -5.9409   -2.0321    3.2023 H       1  UNL1        0.0281
     50 H          -5.9384   -1.6570    0.9683 H       1  UNL1        0.0281
     51 H          -7.4860   -0.7209    1.1624 H       1  UNL1        0.0281
     52 H          -6.2658    1.3215    1.4886 H       1  UNL1        0.0464
     53 H          -5.1735    0.4531    0.3074 H       1  UNL1        0.0464
     54 H          -3.0332   -1.4154    0.4452 H       1  UNL1        0.0287
     55 H          -3.2491   -0.1336   -0.9354 H       1  UNL1        0.0287
     56 H          -0.7899   -0.5643    1.0694 H       1  UNL1        0.0346
@<TRIPOS>BOND
     1     2     1    1
     2     2     3    1
     3     3     4   ar
     4     4     5   ar
     5     5     6    1
     6     6     7    2
     7     7     8    1
     8     7     9    1
     9     9    10   ar
    10    10    11   ar
    11    11    12   ar
    12    12    13    1
    13    13    14    3
    14    12    15   ar
    15    15    16   ar
    16     5    17   ar
    17    17    18   ar
    18    18    19   ar
    19    19    20    1
    20     2    21    1
    21    21    22    2
    22    22    23    1
    23    22    24    1
    24    24    25    1
    25    25    26    1
    26    26    27    2
    27    26    28   am
    28    28    29    1
    29    29    30    1
    30    30    31    1
    31    31    32    1
    32    25    33    1
    33    33    34    1
    34    34     2    1
    35    19     3   ar
    36    34    25    1
    37    16     9   ar
    38    32    28    1
    39     1    35    1
    40     1    36    1
    41     1    37    1
    42     4    38    1
    43     6    39    1
    44    10    40    1
    45    15    41    1
    46    17    42    1
    47    18    43    1
    48    23    44    1
    49    23    45    1
    50    29    46    1
    51    29    47    1
    52    30    48    1
    53    30    49    1
    54    31    50    1
    55    31    51    1
    56    32    52    1
    57    32    53    1
    58    33    54    1
    59    33    55    1
    60    34    56    1
