
     RDKit          3D

 56 60  0  0  0  0  0  0  0  0999 V2000
    0.1475    1.9854    0.0864 C   0  0  0  0  0  0  0  0  0  0  0  0
   -0.6462    0.8682   -0.5823 C   0  0  2  0  0  0  0  0  0  0  0  0
    0.3568   -0.1163   -1.1213 C   0  0  0  0  0  0  0  0  0  0  0  0
    1.7239    0.1009   -0.9366 C   0  0  0  0  0  0  0  0  0  0  0  0
    2.6702   -0.7822   -1.4231 C   0  0  0  0  0  0  0  0  0  0  0  0
    4.0792   -0.4636   -1.2395 C   0  0  0  0  0  0  0  0  0  0  0  0
    4.9764   -1.3791   -0.8335 C   0  0  0  0  0  0  0  0  0  0  0  0
    4.4969   -2.6163   -0.6031 F   0  0  0  0  0  0  0  0  0  0  0  0
    6.3838   -0.9954   -0.6915 C   0  0  0  0  0  0  0  0  0  0  0  0
    7.3683   -1.8703   -0.2717 C   0  0  0  0  0  0  0  0  0  0  0  0
    8.6594   -1.4429   -0.1887 N   0  0  0  0  0  0  0  0  0  0  0  0
    9.0200   -0.2063   -0.4969 C   0  0  0  0  0  0  0  0  0  0  0  0
   10.3504    0.3131   -0.4541 C   0  0  0  0  0  0  0  0  0  0  0  0
   11.4327    0.7501   -0.4084 N   0  0  0  0  0  0  0  0  0  0  0  0
    8.0303    0.6976   -0.9255 C   0  0  0  0  0  0  0  0  0  0  0  0
    6.7858    0.2495   -0.9945 N   0  0  0  0  0  0  0  0  0  0  0  0
    2.2198   -1.9077   -2.1085 C   0  0  0  0  0  0  0  0  0  0  0  0
    0.8904   -2.1633   -2.3157 C   0  0  0  0  0  0  0  0  0  0  0  0
   -0.0061   -1.2436   -1.8075 C   0  0  0  0  0  0  0  0  0  0  0  0
   -1.3104   -1.5049   -2.0289 F   0  0  0  0  0  0  0  0  0  0  0  0
   -1.3991    1.4249   -1.6580 N   0  0  0  0  0  0  0  0  0  0  0  0
   -2.4350    2.1522   -1.4859 C   0  0  0  0  0  0  0  0  0  0  0  0
   -3.1692    2.6986   -2.5433 N   0  0  0  0  0  0  0  0  0  0  0  0
   -2.9414    2.4093    0.2333 S   0  0  0  0  0  0  0  0  0  0  0  0
   -2.6233    0.7476    0.9905 C   0  0  1  0  0  0  0  0  0  0  0  0
   -3.2072    0.4865    2.2980 C   0  0  0  0  0  0  0  0  0  0  0  0
   -2.5694    0.3925    3.3773 O   0  0  0  0  0  0  0  0  0  0  0  0
   -4.6333    0.3203    2.3837 N   0  0  0  0  0  0  0  0  0  0  0  0
   -5.4353    0.0403    3.5594 C   0  0  0  0  0  0  0  0  0  0  0  0
   -6.3664   -1.0382    3.0321 C   0  0  0  0  0  0  0  0  0  0  0  0
   -6.4572   -0.8310    1.5319 C   0  0  0  0  0  0  0  0  0  0  0  0
   -5.6152    0.4168    1.3029 C   0  0  0  0  0  0  0  0  0  0  0  0
   -2.7681   -0.4200    0.0204 C   0  0  0  0  0  0  0  0  0  0  0  0
   -1.4447    0.0962    0.4393 C   0  0  1  0  0  0  0  0  0  0  0  0
    0.8328    2.4753   -0.6302 H   0  0  0  0  0  0  0  0  0  0  0  0
    0.7288    1.5901    0.9536 H   0  0  0  0  0  0  0  0  0  0  0  0
   -0.4974    2.7766    0.4897 H   0  0  0  0  0  0  0  0  0  0  0  0
    2.0619    0.9499   -0.4133 H   0  0  0  0  0  0  0  0  0  0  0  0
    4.4865    0.5210   -1.4207 H   0  0  0  0  0  0  0  0  0  0  0  0
    7.0966   -2.8659   -0.0206 H   0  0  0  0  0  0  0  0  0  0  0  0
    8.2623    1.7155   -1.1861 H   0  0  0  0  0  0  0  0  0  0  0  0
    2.9403   -2.6124   -2.4948 H   0  0  0  0  0  0  0  0  0  0  0  0
    0.5357   -3.0477   -2.8506 H   0  0  0  0  0  0  0  0  0  0  0  0
   -2.7039    3.1878   -3.3568 H   0  0  0  0  0  0  0  0  0  0  0  0
   -4.2275    2.6603   -2.6028 H   0  0  0  0  0  0  0  0  0  0  0  0
   -6.0239    0.9216    3.8728 H   0  0  0  0  0  0  0  0  0  0  0  0
   -4.7961   -0.3424    4.3777 H   0  0  0  0  0  0  0  0  0  0  0  0
   -7.3840   -0.9854    3.4373 H   0  0  0  0  0  0  0  0  0  0  0  0
   -5.9409   -2.0321    3.2023 H   0  0  0  0  0  0  0  0  0  0  0  0
   -5.9384   -1.6570    0.9683 H   0  0  0  0  0  0  0  0  0  0  0  0
   -7.4860   -0.7209    1.1624 H   0  0  0  0  0  0  0  0  0  0  0  0
   -6.2658    1.3215    1.4886 H   0  0  0  0  0  0  0  0  0  0  0  0
   -5.1735    0.4531    0.3074 H   0  0  0  0  0  0  0  0  0  0  0  0
   -3.0332   -1.4154    0.4452 H   0  0  0  0  0  0  0  0  0  0  0  0
   -3.2491   -0.1336   -0.9354 H   0  0  0  0  0  0  0  0  0  0  0  0
   -0.7899   -0.5643    1.0694 H   0  0  0  0  0  0  0  0  0  0  0  0
  2  1  1  1
  2  3  1  0
  3  4  2  0
  4  5  1  0
  5  6  1  0
  6  7  2  0
  7  8  1  0
  7  9  1  0
  9 10  2  0
 10 11  1  0
 11 12  2  0
 12 13  1  0
 13 14  3  0
 12 15  1  0
 15 16  2  0
  5 17  2  0
 17 18  1  0
 18 19  2  0
 19 20  1  0
  2 21  1  0
 21 22  2  0
 22 23  1  0
 22 24  1  0
 24 25  1  0
 25 26  1  1
 26 27  2  0
 26 28  1  0
 28 29  1  0
 29 30  1  0
 30 31  1  0
 31 32  1  0
 25 33  1  0
 33 34  1  0
 34  2  1  0
 19  3  1  0
 34 25  1  0
 16  9  1  0
 32 28  1  0
  1 35  1  0
  1 36  1  0
  1 37  1  0
  4 38  1  0
  6 39  1  0
 10 40  1  0
 15 41  1  0
 17 42  1  0
 18 43  1  0
 23 44  1  0
 23 45  1  0
 29 46  1  0
 29 47  1  0
 30 48  1  0
 30 49  1  0
 31 50  1  0
 31 51  1  0
 32 52  1  0
 32 53  1  0
 33 54  1  0
 33 55  1  0
 34 56  1  1
M  END
$$$$
