
     RDKit          3D

 77 81  0  0  0  0  0  0  0  0999 V2000
   -5.1759   -5.2506   -1.4289 C   0  0  0  0  0  0  0  0  0  0  0  0
   -4.8794   -5.1880    0.0363 C   0  0  0  0  0  0  0  0  0  0  0  0
   -5.1684   -3.8675    0.6351 C   0  0  0  0  0  0  0  0  0  0  0  0
   -6.2452   -3.4839    1.4409 C   0  0  0  0  0  0  0  0  0  0  0  0
   -6.0641   -2.2229    1.7231 O   0  0  0  0  0  0  0  0  0  0  0  0
   -4.9638   -1.7456    1.1735 C   0  0  0  0  0  0  0  0  0  0  0  0
   -4.3542   -0.5085    1.1758 C   0  0  0  0  0  0  0  0  0  0  0  0
   -4.9752    0.5385    1.8970 N   0  0  0  0  0  0  0  0  0  0  0  0
   -6.0045    1.3977    1.3170 C   0  0  0  0  0  0  0  0  0  0  0  0
   -6.2472    2.4983    2.2938 C   0  0  0  0  0  0  0  0  0  0  0  0
   -5.2603    2.3429    3.4034 C   0  0  0  0  0  0  0  0  0  0  0  0
   -4.7503    0.9342    3.2376 C   0  0  0  0  0  0  0  0  0  0  0  0
   -4.2287    0.2847    4.1684 O   0  0  0  0  0  0  0  0  0  0  0  0
   -3.1619   -0.2954    0.4853 C   0  0  0  0  0  0  0  0  0  0  0  0
   -2.5487   -1.3057   -0.2231 C   0  0  0  0  0  0  0  0  0  0  0  0
   -1.2957   -1.0852   -0.9316 C   0  0  0  0  0  0  0  0  0  0  0  0
   -0.8383   -2.0370   -1.6526 O   0  0  0  0  0  0  0  0  0  0  0  0
   -0.5285    0.0877   -0.8987 N   0  0  0  0  0  0  0  0  0  0  0  0
    0.7146    0.2863   -1.6110 C   0  0  1  0  0  0  0  0  0  0  0  0
    0.7135    1.3928   -2.5712 C   0  0  0  0  0  0  0  0  0  0  0  0
    0.4561    2.7387   -2.1006 C   0  0  0  0  0  0  0  0  0  0  0  0
    1.3968    3.6470   -1.6899 C   0  0  0  0  0  0  0  0  0  0  0  0
    1.0470    4.9116   -1.2564 C   0  0  0  0  0  0  0  0  0  0  0  0
   -0.2922    5.3184   -1.2188 C   0  0  0  0  0  0  0  0  0  0  0  0
   -1.2214    4.4137   -1.6271 C   0  0  0  0  0  0  0  0  0  0  0  0
   -0.8614    3.1524   -2.0589 C   0  0  0  0  0  0  0  0  0  0  0  0
    1.9140    0.1910   -0.6981 C   0  0  2  0  0  0  0  0  0  0  0  0
    1.9155    1.1193    0.3365 O   0  0  0  0  0  0  0  0  0  0  0  0
    3.2178    0.1947   -1.4668 C   0  0  0  0  0  0  0  0  0  0  0  0
    4.2482   -0.1694   -0.4782 N   0  0  0  0  0  0  0  0  0  0  0  0
    5.5331   -0.1622   -1.1461 C   0  0  0  0  0  0  0  0  0  0  0  0
    6.5738   -0.6021   -0.2077 C   0  0  0  0  0  0  0  0  0  0  0  0
    6.9348   -1.9296   -0.0748 C   0  0  0  0  0  0  0  0  0  0  0  0
    7.9140   -2.2985    0.8191 C   0  0  0  0  0  0  0  0  0  0  0  0
    8.5483   -1.3463    1.5956 C   0  0  0  0  0  0  0  0  0  0  0  0
    8.1972   -0.0155    1.4734 C   0  0  0  0  0  0  0  0  0  0  0  0
    8.9029    0.9576    2.3253 C   0  0  0  0  0  0  0  0  0  0  0  0
   10.2377    1.0610    1.9940 F   0  0  0  0  0  0  0  0  0  0  0  0
    8.8510    0.4495    3.6314 F   0  0  0  0  0  0  0  0  0  0  0  0
    8.2752    2.1841    2.3414 F   0  0  0  0  0  0  0  0  0  0  0  0
    7.2133    0.3362    0.5711 C   0  0  0  0  0  0  0  0  0  0  0  0
   -3.1588   -2.5398   -0.2251 C   0  0  0  0  0  0  0  0  0  0  0  0
   -4.3566   -2.7630    0.4665 C   0  0  0  0  0  0  0  0  0  0  0  0
   -4.9902   -4.2981   -1.9640 H   0  0  0  0  0  0  0  0  0  0  0  0
   -4.5654   -6.0925   -1.8562 H   0  0  0  0  0  0  0  0  0  0  0  0
   -6.2334   -5.5244   -1.6263 H   0  0  0  0  0  0  0  0  0  0  0  0
   -5.4972   -5.9410    0.5705 H   0  0  0  0  0  0  0  0  0  0  0  0
   -3.8146   -5.4443    0.2574 H   0  0  0  0  0  0  0  0  0  0  0  0
   -7.0577   -4.1404    1.7505 H   0  0  0  0  0  0  0  0  0  0  0  0
   -5.5938    1.7800    0.3584 H   0  0  0  0  0  0  0  0  0  0  0  0
   -6.9274    0.7798    1.1388 H   0  0  0  0  0  0  0  0  0  0  0  0
   -7.3113    2.4731    2.6699 H   0  0  0  0  0  0  0  0  0  0  0  0
   -6.0770    3.4758    1.7561 H   0  0  0  0  0  0  0  0  0  0  0  0
   -4.4352    3.0792    3.2778 H   0  0  0  0  0  0  0  0  0  0  0  0
   -5.7460    2.4675    4.3936 H   0  0  0  0  0  0  0  0  0  0  0  0
   -2.7213    0.6903    0.5188 H   0  0  0  0  0  0  0  0  0  0  0  0
   -0.8802    0.8786   -0.3164 H   0  0  0  0  0  0  0  0  0  0  0  0
    0.8166   -0.6578   -2.2451 H   0  0  0  0  0  0  0  0  0  0  0  0
   -0.0306    1.1531   -3.3782 H   0  0  0  0  0  0  0  0  0  0  0  0
    1.6906    1.4011   -3.1049 H   0  0  0  0  0  0  0  0  0  0  0  0
    2.4219    3.3501   -1.7138 H   0  0  0  0  0  0  0  0  0  0  0  0
    1.7671    5.6516   -0.9258 H   0  0  0  0  0  0  0  0  0  0  0  0
   -0.6045    6.2853   -0.8916 H   0  0  0  0  0  0  0  0  0  0  0  0
   -2.2746    4.6998   -1.6099 H   0  0  0  0  0  0  0  0  0  0  0  0
   -1.6783    2.5007   -2.3654 H   0  0  0  0  0  0  0  0  0  0  0  0
    1.9227   -0.8097   -0.1634 H   0  0  0  0  0  0  0  0  0  0  0  0
    1.4468    0.7996    1.1446 H   0  0  0  0  0  0  0  0  0  0  0  0
    3.4439    1.1737   -1.9110 H   0  0  0  0  0  0  0  0  0  0  0  0
    3.2008   -0.6396   -2.1947 H   0  0  0  0  0  0  0  0  0  0  0  0
    4.0974   -1.1502   -0.1454 H   0  0  0  0  0  0  0  0  0  0  0  0
    5.6875    0.8966   -1.4813 H   0  0  0  0  0  0  0  0  0  0  0  0
    5.4652   -0.8263   -2.0266 H   0  0  0  0  0  0  0  0  0  0  0  0
    6.4669   -2.6943   -0.6573 H   0  0  0  0  0  0  0  0  0  0  0  0
    8.2257   -3.3262    0.9531 H   0  0  0  0  0  0  0  0  0  0  0  0
    9.3254   -1.6451    2.3045 H   0  0  0  0  0  0  0  0  0  0  0  0
    6.9585    1.3972    0.4965 H   0  0  0  0  0  0  0  0  0  0  0  0
   -2.7227   -3.3648   -0.7642 H   0  0  0  0  0  0  0  0  0  0  0  0
  1  2  1  0
  2  3  1  0
  3  4  2  0
  4  5  1  0
  5  6  1  0
  6  7  2  0
  7  8  1  0
  8  9  1  0
  9 10  1  0
 10 11  1  0
 11 12  1  0
 12 13  2  0
  7 14  1  0
 14 15  2  0
 15 16  1  0
 16 17  2  0
 16 18  1  0
 18 19  1  0
 19 20  1  0
 20 21  1  0
 21 22  2  0
 22 23  1  0
 23 24  2  0
 24 25  1  0
 25 26  2  0
 19 27  1  0
 27 28  1  0
 27 29  1  0
 29 30  1  0
 30 31  1  0
 31 32  1  0
 32 33  2  0
 33 34  1  0
 34 35  2  0
 35 36  1  0
 36 37  1  0
 37 38  1  0
 37 39  1  0
 37 40  1  0
 36 41  2  0
 15 42  1  0
 42 43  2  0
 43  3  1  0
 43  6  1  0
 12  8  1  0
 26 21  1  0
 41 32  1  0
  1 44  1  0
  1 45  1  0
  1 46  1  0
  2 47  1  0
  2 48  1  0
  4 49  1  0
  9 50  1  0
  9 51  1  0
 10 52  1  0
 10 53  1  0
 11 54  1  0
 11 55  1  0
 14 56  1  0
 18 57  1  0
 19 58  1  6
 20 59  1  0
 20 60  1  0
 22 61  1  0
 23 62  1  0
 24 63  1  0
 25 64  1  0
 26 65  1  0
 27 66  1  1
 28 67  1  0
 29 68  1  0
 29 69  1  0
 30 70  1  0
 31 71  1  0
 31 72  1  0
 33 73  1  0
 34 74  1  0
 35 75  1  0
 41 76  1  0
 42 77  1  0
M  END
$$$$
