@<TRIPOS>MOLECULE
*****
 77 81 0 0 0
SMALL
GASTEIGER

@<TRIPOS>ATOM
      1 C          -5.1759   -5.2506   -1.4289 C.3     1  UNL1       -0.0611
      2 C          -4.8794   -5.1880    0.0363 C.3     1  UNL1       -0.0270
      3 C          -5.1684   -3.8675    0.6351 C.ar    1  UNL1       -0.0021
      4 C          -6.2452   -3.4839    1.4409 C.ar    1  UNL1        0.0964
      5 O          -6.0641   -2.2229    1.7231 O.2     1  UNL1       -0.4608
      6 C          -4.9638   -1.7456    1.1735 C.ar    1  UNL1        0.1564
      7 C          -4.3542   -0.5085    1.1758 C.ar    1  UNL1        0.0801
      8 N          -4.9752    0.5385    1.8970 N.am    1  UNL1       -0.2682
      9 C          -6.0045    1.3977    1.3170 C.3     1  UNL1        0.0203
     10 C          -6.2472    2.4983    2.2938 C.3     1  UNL1       -0.0285
     11 C          -5.2603    2.3429    3.4034 C.3     1  UNL1        0.0259
     12 C          -4.7503    0.9342    3.2376 C.2     1  UNL1        0.2199
     13 O          -4.2287    0.2847    4.1684 O.2     1  UNL1       -0.2753
     14 C          -3.1619   -0.2954    0.4853 C.ar    1  UNL1       -0.0245
     15 C          -2.5487   -1.3057   -0.2231 C.ar    1  UNL1        0.0393
     16 C          -1.2957   -1.0852   -0.9316 C.2     1  UNL1        0.2445
     17 O          -0.8383   -2.0370   -1.6526 O.2     1  UNL1       -0.2702
     18 N          -0.5285    0.0877   -0.8987 N.am    1  UNL1       -0.3057
     19 C           0.7146    0.2863   -1.6110 C.3     1  UNL1        0.0545
     20 C           0.7135    1.3928   -2.5712 C.3     1  UNL1       -0.0067
     21 C           0.4561    2.7387   -2.1006 C.ar    1  UNL1       -0.0455
     22 C           1.3968    3.6470   -1.6899 C.ar    1  UNL1       -0.0585
     23 C           1.0470    4.9116   -1.2564 C.ar    1  UNL1       -0.0615
     24 C          -0.2922    5.3184   -1.2188 C.ar    1  UNL1       -0.0617
     25 C          -1.2214    4.4137   -1.6271 C.ar    1  UNL1       -0.0615
     26 C          -0.8614    3.1524   -2.0589 C.ar    1  UNL1       -0.0585
     27 C           1.9140    0.1910   -0.6981 C.3     1  UNL1        0.0862
     28 O           1.9155    1.1193    0.3365 O.3     1  UNL1       -0.3887
     29 C           3.2178    0.1947   -1.4668 C.3     1  UNL1        0.0240
     30 N           4.2482   -0.1694   -0.4782 N.3     1  UNL1       -0.3095
     31 C           5.5331   -0.1622   -1.1461 C.3     1  UNL1        0.0213
     32 C           6.5738   -0.6021   -0.2077 C.ar    1  UNL1       -0.0330
     33 C           6.9348   -1.9296   -0.0748 C.ar    1  UNL1       -0.0573
     34 C           7.9140   -2.2985    0.8191 C.ar    1  UNL1       -0.0609
     35 C           8.5483   -1.3463    1.5956 C.ar    1  UNL1       -0.0501
     36 C           8.1972   -0.0155    1.4734 C.ar    1  UNL1        0.0551
     37 C           8.9029    0.9576    2.3253 C.3     1  UNL1        0.4174
     38 F          10.2377    1.0610    1.9940 F       1  UNL1       -0.1659
     39 F           8.8510    0.4495    3.6314 F       1  UNL1       -0.1659
     40 F           8.2752    2.1841    2.3414 F       1  UNL1       -0.1659
     41 C           7.2133    0.3362    0.5711 C.ar    1  UNL1       -0.0457
     42 C          -3.1588   -2.5398   -0.2251 C.ar    1  UNL1       -0.0385
     43 C          -4.3566   -2.7630    0.4665 C.ar    1  UNL1        0.0259
     44 H          -4.9902   -4.2981   -1.9640 H       1  UNL1        0.0233
     45 H          -4.5654   -6.0925   -1.8562 H       1  UNL1        0.0233
     46 H          -6.2334   -5.5244   -1.6263 H       1  UNL1        0.0233
     47 H          -5.4972   -5.9410    0.5705 H       1  UNL1        0.0312
     48 H          -3.8146   -5.4443    0.2574 H       1  UNL1        0.0312
     49 H          -7.0577   -4.1404    1.7505 H       1  UNL1        0.1032
     50 H          -5.5938    1.7800    0.3584 H       1  UNL1        0.0469
     51 H          -6.9274    0.7798    1.1388 H       1  UNL1        0.0469
     52 H          -7.3113    2.4731    2.6699 H       1  UNL1        0.0285
     53 H          -6.0770    3.4758    1.7561 H       1  UNL1        0.0285
     54 H          -4.4352    3.0792    3.2778 H       1  UNL1        0.0359
     55 H          -5.7460    2.4675    4.3936 H       1  UNL1        0.0359
     56 H          -2.7213    0.6903    0.5188 H       1  UNL1        0.0645
     57 H          -0.8802    0.8786   -0.3164 H       1  UNL1        0.1494
     58 H           0.8166   -0.6578   -2.2451 H       1  UNL1        0.0527
     59 H          -0.0306    1.1531   -3.3782 H       1  UNL1        0.0332
     60 H           1.6906    1.4011   -3.1049 H       1  UNL1        0.0332
     61 H           2.4219    3.3501   -1.7138 H       1  UNL1        0.0620
     62 H           1.7671    5.6516   -0.9258 H       1  UNL1        0.0618
     63 H          -0.6045    6.2853   -0.8916 H       1  UNL1        0.0618
     64 H          -2.2746    4.6998   -1.6099 H       1  UNL1        0.0618
     65 H          -1.6783    2.5007   -2.3654 H       1  UNL1        0.0620
     66 H           1.9227   -0.8097   -0.1634 H       1  UNL1        0.0624
     67 H           1.4468    0.7996    1.1446 H       1  UNL1        0.2099
     68 H           3.4439    1.1737   -1.9110 H       1  UNL1        0.0450
     69 H           3.2008   -0.6396   -2.1947 H       1  UNL1        0.0450
     70 H           4.0974   -1.1502   -0.1454 H       1  UNL1        0.1223
     71 H           5.6875    0.8966   -1.4813 H       1  UNL1        0.0473
     72 H           5.4652   -0.8263   -2.0266 H       1  UNL1        0.0473
     73 H           6.4669   -2.6943   -0.6573 H       1  UNL1        0.0621
     74 H           8.2257   -3.3262    0.9531 H       1  UNL1        0.0618
     75 H           9.3254   -1.6451    2.3045 H       1  UNL1        0.0623
     76 H           6.9585    1.3972    0.4965 H       1  UNL1        0.0626
     77 H          -2.7227   -3.3648   -0.7642 H       1  UNL1        0.0632
@<TRIPOS>BOND
     1     1     2    1
     2     2     3    1
     3     3     4   ar
     4     4     5   ar
     5     5     6   ar
     6     6     7   ar
     7     7     8    1
     8     8     9    1
     9     9    10    1
    10    10    11    1
    11    11    12    1
    12    12    13    2
    13     7    14   ar
    14    14    15   ar
    15    15    16    1
    16    16    17    2
    17    16    18   am
    18    18    19    1
    19    19    20    1
    20    20    21    1
    21    21    22   ar
    22    22    23   ar
    23    23    24   ar
    24    24    25   ar
    25    25    26   ar
    26    19    27    1
    27    27    28    1
    28    27    29    1
    29    29    30    1
    30    30    31    1
    31    31    32    1
    32    32    33   ar
    33    33    34   ar
    34    34    35   ar
    35    35    36   ar
    36    36    37    1
    37    37    38    1
    38    37    39    1
    39    37    40    1
    40    36    41   ar
    41    15    42   ar
    42    42    43   ar
    43    43     3   ar
    44    43     6   ar
    45    12     8   am
    46    26    21   ar
    47    41    32   ar
    48     1    44    1
    49     1    45    1
    50     1    46    1
    51     2    47    1
    52     2    48    1
    53     4    49    1
    54     9    50    1
    55     9    51    1
    56    10    52    1
    57    10    53    1
    58    11    54    1
    59    11    55    1
    60    14    56    1
    61    18    57    1
    62    19    58    1
    63    20    59    1
    64    20    60    1
    65    22    61    1
    66    23    62    1
    67    24    63    1
    68    25    64    1
    69    26    65    1
    70    27    66    1
    71    28    67    1
    72    29    68    1
    73    29    69    1
    74    30    70    1
    75    31    71    1
    76    31    72    1
    77    33    73    1
    78    34    74    1
    79    35    75    1
    80    41    76    1
    81    42    77    1
