@<TRIPOS>MOLECULE
*****
 59 62 0 0 0
SMALL
GASTEIGER

@<TRIPOS>ATOM
      1 C           2.5080   -6.4139    0.9199 C.2     1  UNL1       -0.0938
      2 C           1.4856   -5.6152    0.9016 C.2     1  UNL1       -0.0066
      3 C           1.7074   -4.1827    0.6292 C.2     1  UNL1        0.2406
      4 O           2.8591   -3.7466    0.4194 O.2     1  UNL1       -0.2705
      5 N           0.6119   -3.2851    0.6031 N.am    1  UNL1       -0.2790
      6 C           0.6900   -1.9044    0.3558 C.ar    1  UNL1        0.0766
      7 C           1.8180   -1.1773    0.0862 C.ar    1  UNL1       -0.0244
      8 C           1.8282    0.1890   -0.1475 C.ar    1  UNL1        0.0424
      9 C           3.0036    0.8586   -0.4130 C.ar    1  UNL1        0.1339
     10 N           4.2599    0.2225   -0.4980 N.pl3   1  UNL1       -0.2988
     11 C           5.4523    0.9908   -0.6555 C.ar    1  UNL1        0.0339
     12 C           6.5395    0.4429   -1.3389 C.ar    1  UNL1       -0.0377
     13 C           7.6949    1.1664   -1.4764 C.ar    1  UNL1       -0.0232
     14 C           7.8554    2.4299   -0.9712 C.ar    1  UNL1        0.1417
     15 F           9.0256    3.0709   -1.1525 F       1  UNL1       -0.2040
     16 C           6.7984    2.9867   -0.2956 C.ar    1  UNL1        0.0778
     17 CL          6.9654    4.5976    0.3635 Cl      1  UNL1       -0.0805
     18 C           5.6100    2.2542   -0.1485 C.ar    1  UNL1       -0.0194
     19 N           2.8720    2.1884   -0.6200 N.ar    1  UNL1       -0.2200
     20 C           1.7121    2.8504   -0.5813 C.ar    1  UNL1        0.1187
     21 N           0.5646    2.2083   -0.3245 N.ar    1  UNL1       -0.2352
     22 C           0.6189    0.8824   -0.1079 C.ar    1  UNL1        0.0796
     23 C          -0.5459    0.1685    0.1649 C.ar    1  UNL1        0.0080
     24 C          -0.5219   -1.1689    0.3874 C.ar    1  UNL1        0.1437
     25 O          -1.6773   -1.8608    0.6610 O.3     1  UNL1       -0.4900
     26 C          -2.9368   -1.2255    0.6606 C.3     1  UNL1        0.0908
     27 C          -3.2709   -0.8436   -0.7384 C.3     1  UNL1       -0.0058
     28 C          -4.5392   -0.1512   -1.0153 C.3     1  UNL1        0.0021
     29 N          -4.6675    1.1151   -0.3368 N.3     1  UNL1       -0.2979
     30 C          -5.8320    1.8402   -0.9137 C.3     1  UNL1        0.0224
     31 C          -5.8613    3.2144   -0.3205 C.3     1  UNL1        0.0604
     32 O          -6.1807    3.0854    1.0347 O.3     1  UNL1       -0.3772
     33 C          -6.1859    1.7727    1.4413 C.3     1  UNL1        0.0604
     34 C          -4.9108    1.0207    1.0698 C.3     1  UNL1        0.0224
     35 H           3.5129   -6.0674    0.7433 H       1  UNL1        0.0536
     36 H           2.3600   -7.4629    1.1177 H       1  UNL1        0.0536
     37 H           0.4976   -5.9499    1.0742 H       1  UNL1        0.0663
     38 H          -0.3546   -3.7257    0.7921 H       1  UNL1        0.1552
     39 H           2.7723   -1.6572    0.0458 H       1  UNL1        0.0645
     40 H           4.4180   -0.8086   -0.4580 H       1  UNL1        0.1536
     41 H           6.4063   -0.5528   -1.7344 H       1  UNL1        0.0637
     42 H           8.5429    0.7230   -2.0169 H       1  UNL1        0.0647
     43 H           4.8159    2.7439    0.4079 H       1  UNL1        0.0652
     44 H           1.6764    3.9279   -0.7583 H       1  UNL1        0.1048
     45 H          -1.4359    0.8037    0.2153 H       1  UNL1        0.0676
     46 H          -2.8219   -0.3408    1.3366 H       1  UNL1        0.0697
     47 H          -3.6702   -1.9005    1.1296 H       1  UNL1        0.0697
     48 H          -2.4223   -0.4013   -1.2855 H       1  UNL1        0.0310
     49 H          -3.3396   -1.8801   -1.3101 H       1  UNL1        0.0310
     50 H          -5.4469   -0.7901   -0.8667 H       1  UNL1        0.0428
     51 H          -4.5707    0.1020   -2.1238 H       1  UNL1        0.0428
     52 H          -5.5922    1.8788   -2.0049 H       1  UNL1        0.0449
     53 H          -6.7546    1.2904   -0.7673 H       1  UNL1        0.0449
     54 H          -6.5648    3.8904   -0.8138 H       1  UNL1        0.0572
     55 H          -4.8470    3.6632   -0.4020 H       1  UNL1        0.0572
     56 H          -6.2135    1.8026    2.5689 H       1  UNL1        0.0572
     57 H          -7.1090    1.2304    1.1729 H       1  UNL1        0.0572
     58 H          -5.1105   -0.0227    1.4142 H       1  UNL1        0.0449
     59 H          -4.0995    1.5228    1.6787 H       1  UNL1        0.0449
@<TRIPOS>BOND
     1     1     2    2
     2     2     3    1
     3     3     4    2
     4     3     5   am
     5     5     6    1
     6     6     7   ar
     7     7     8   ar
     8     8     9   ar
     9     9    10    1
    10    10    11    1
    11    11    12   ar
    12    12    13   ar
    13    13    14   ar
    14    14    15    1
    15    14    16   ar
    16    16    17    1
    17    16    18   ar
    18     9    19   ar
    19    19    20   ar
    20    20    21   ar
    21    21    22   ar
    22    22    23   ar
    23    23    24   ar
    24    24    25    1
    25    25    26    1
    26    26    27    1
    27    27    28    1
    28    28    29    1
    29    29    30    1
    30    30    31    1
    31    31    32    1
    32    32    33    1
    33    33    34    1
    34    24     6   ar
    35    34    29    1
    36    22     8   ar
    37    18    11   ar
    38     1    35    1
    39     1    36    1
    40     2    37    1
    41     5    38    1
    42     7    39    1
    43    10    40    1
    44    12    41    1
    45    13    42    1
    46    18    43    1
    47    20    44    1
    48    23    45    1
    49    26    46    1
    50    26    47    1
    51    27    48    1
    52    27    49    1
    53    28    50    1
    54    28    51    1
    55    30    52    1
    56    30    53    1
    57    31    54    1
    58    31    55    1
    59    33    56    1
    60    33    57    1
    61    34    58    1
    62    34    59    1
