
     RDKit          3D

 59 62  0  0  0  0  0  0  0  0999 V2000
    2.5080   -6.4139    0.9199 C   0  0  0  0  0  0  0  0  0  0  0  0
    1.4856   -5.6152    0.9016 C   0  0  0  0  0  0  0  0  0  0  0  0
    1.7074   -4.1827    0.6292 C   0  0  0  0  0  0  0  0  0  0  0  0
    2.8591   -3.7466    0.4194 O   0  0  0  0  0  0  0  0  0  0  0  0
    0.6119   -3.2851    0.6031 N   0  0  0  0  0  0  0  0  0  0  0  0
    0.6900   -1.9044    0.3558 C   0  0  0  0  0  0  0  0  0  0  0  0
    1.8180   -1.1773    0.0862 C   0  0  0  0  0  0  0  0  0  0  0  0
    1.8282    0.1890   -0.1475 C   0  0  0  0  0  0  0  0  0  0  0  0
    3.0036    0.8586   -0.4130 C   0  0  0  0  0  0  0  0  0  0  0  0
    4.2599    0.2225   -0.4980 N   0  0  0  0  0  0  0  0  0  0  0  0
    5.4523    0.9908   -0.6555 C   0  0  0  0  0  0  0  0  0  0  0  0
    6.5395    0.4429   -1.3389 C   0  0  0  0  0  0  0  0  0  0  0  0
    7.6949    1.1664   -1.4764 C   0  0  0  0  0  0  0  0  0  0  0  0
    7.8554    2.4299   -0.9712 C   0  0  0  0  0  0  0  0  0  0  0  0
    9.0256    3.0709   -1.1525 F   0  0  0  0  0  0  0  0  0  0  0  0
    6.7984    2.9867   -0.2956 C   0  0  0  0  0  0  0  0  0  0  0  0
    6.9654    4.5976    0.3635 Cl  0  0  0  0  0  0  0  0  0  0  0  0
    5.6100    2.2542   -0.1485 C   0  0  0  0  0  0  0  0  0  0  0  0
    2.8720    2.1884   -0.6200 N   0  0  0  0  0  0  0  0  0  0  0  0
    1.7121    2.8504   -0.5813 C   0  0  0  0  0  0  0  0  0  0  0  0
    0.5646    2.2083   -0.3245 N   0  0  0  0  0  0  0  0  0  0  0  0
    0.6189    0.8824   -0.1079 C   0  0  0  0  0  0  0  0  0  0  0  0
   -0.5459    0.1685    0.1649 C   0  0  0  0  0  0  0  0  0  0  0  0
   -0.5219   -1.1689    0.3874 C   0  0  0  0  0  0  0  0  0  0  0  0
   -1.6773   -1.8608    0.6610 O   0  0  0  0  0  0  0  0  0  0  0  0
   -2.9368   -1.2255    0.6606 C   0  0  0  0  0  0  0  0  0  0  0  0
   -3.2709   -0.8436   -0.7384 C   0  0  0  0  0  0  0  0  0  0  0  0
   -4.5392   -0.1512   -1.0153 C   0  0  0  0  0  0  0  0  0  0  0  0
   -4.6675    1.1151   -0.3368 N   0  0  0  0  0  0  0  0  0  0  0  0
   -5.8320    1.8402   -0.9137 C   0  0  0  0  0  0  0  0  0  0  0  0
   -5.8613    3.2144   -0.3205 C   0  0  0  0  0  0  0  0  0  0  0  0
   -6.1807    3.0854    1.0347 O   0  0  0  0  0  0  0  0  0  0  0  0
   -6.1859    1.7727    1.4413 C   0  0  0  0  0  0  0  0  0  0  0  0
   -4.9108    1.0207    1.0698 C   0  0  0  0  0  0  0  0  0  0  0  0
    3.5129   -6.0674    0.7433 H   0  0  0  0  0  0  0  0  0  0  0  0
    2.3600   -7.4629    1.1177 H   0  0  0  0  0  0  0  0  0  0  0  0
    0.4976   -5.9499    1.0742 H   0  0  0  0  0  0  0  0  0  0  0  0
   -0.3546   -3.7257    0.7921 H   0  0  0  0  0  0  0  0  0  0  0  0
    2.7723   -1.6572    0.0458 H   0  0  0  0  0  0  0  0  0  0  0  0
    4.4180   -0.8086   -0.4580 H   0  0  0  0  0  0  0  0  0  0  0  0
    6.4063   -0.5528   -1.7344 H   0  0  0  0  0  0  0  0  0  0  0  0
    8.5429    0.7230   -2.0169 H   0  0  0  0  0  0  0  0  0  0  0  0
    4.8159    2.7439    0.4079 H   0  0  0  0  0  0  0  0  0  0  0  0
    1.6764    3.9279   -0.7583 H   0  0  0  0  0  0  0  0  0  0  0  0
   -1.4359    0.8037    0.2153 H   0  0  0  0  0  0  0  0  0  0  0  0
   -2.8219   -0.3408    1.3366 H   0  0  0  0  0  0  0  0  0  0  0  0
   -3.6702   -1.9005    1.1296 H   0  0  0  0  0  0  0  0  0  0  0  0
   -2.4223   -0.4013   -1.2855 H   0  0  0  0  0  0  0  0  0  0  0  0
   -3.3396   -1.8801   -1.3101 H   0  0  0  0  0  0  0  0  0  0  0  0
   -5.4469   -0.7901   -0.8667 H   0  0  0  0  0  0  0  0  0  0  0  0
   -4.5707    0.1020   -2.1238 H   0  0  0  0  0  0  0  0  0  0  0  0
   -5.5922    1.8788   -2.0049 H   0  0  0  0  0  0  0  0  0  0  0  0
   -6.7546    1.2904   -0.7673 H   0  0  0  0  0  0  0  0  0  0  0  0
   -6.5648    3.8904   -0.8138 H   0  0  0  0  0  0  0  0  0  0  0  0
   -4.8470    3.6632   -0.4020 H   0  0  0  0  0  0  0  0  0  0  0  0
   -6.2135    1.8026    2.5689 H   0  0  0  0  0  0  0  0  0  0  0  0
   -7.1090    1.2304    1.1729 H   0  0  0  0  0  0  0  0  0  0  0  0
   -5.1105   -0.0227    1.4142 H   0  0  0  0  0  0  0  0  0  0  0  0
   -4.0995    1.5228    1.6787 H   0  0  0  0  0  0  0  0  0  0  0  0
  1  2  2  3
  2  3  1  0
  3  4  2  0
  3  5  1  0
  5  6  1  0
  6  7  2  0
  7  8  1  0
  8  9  2  0
  9 10  1  0
 10 11  1  0
 11 12  2  0
 12 13  1  0
 13 14  2  0
 14 15  1  0
 14 16  1  0
 16 17  1  0
 16 18  2  0
  9 19  1  0
 19 20  2  0
 20 21  1  0
 21 22  2  0
 22 23  1  0
 23 24  2  0
 24 25  1  0
 25 26  1  0
 26 27  1  0
 27 28  1  0
 28 29  1  0
 29 30  1  0
 30 31  1  0
 31 32  1  0
 32 33  1  0
 33 34  1  0
 24  6  1  0
 34 29  1  0
 22  8  1  0
 18 11  1  0
  1 35  1  0
  1 36  1  0
  2 37  1  0
  5 38  1  0
  7 39  1  0
 10 40  1  0
 12 41  1  0
 13 42  1  0
 18 43  1  0
 20 44  1  0
 23 45  1  0
 26 46  1  0
 26 47  1  0
 27 48  1  0
 27 49  1  0
 28 50  1  0
 28 51  1  0
 30 52  1  0
 30 53  1  0
 31 54  1  0
 31 55  1  0
 33 56  1  0
 33 57  1  0
 34 58  1  0
 34 59  1  0
M  END
$$$$
