@<TRIPOS>MOLECULE
*****
 54 58 0 0 0
SMALL
GASTEIGER

@<TRIPOS>ATOM
      1 CL          9.2623    0.6397    0.9695 Cl      1  UNL1       -0.0835
      2 C           7.5860    0.3305    0.5135 C.ar    1  UNL1        0.0430
      3 C           7.3548   -0.6204   -0.4532 C.ar    1  UNL1       -0.0179
      4 C           6.0584   -0.8843   -0.8331 C.ar    1  UNL1        0.0684
      5 C           4.9906   -0.2212   -0.2702 C.ar    1  UNL1        0.0700
      6 C           5.2194    0.7362    0.7024 C.ar    1  UNL1       -0.0346
      7 C           6.5191    1.0010    1.0835 C.ar    1  UNL1       -0.0413
      8 N           3.7998   -0.6333   -0.7908 N.ar    1  UNL1       -0.2891
      9 C           2.4981   -0.1367   -0.4102 C.3     1  UNL1        0.0417
     10 C           1.5470   -1.2447   -0.2010 C.3     1  UNL1       -0.0191
     11 C           0.0711   -0.9142   -0.3296 C.3     1  UNL1        0.0008
     12 N          -0.1771    0.4427   -0.5206 N.3     1  UNL1       -0.3021
     13 C          -0.7474    1.2936    0.4002 C.3     1  UNL1        0.0005
     14 C          -2.2169    1.1457    0.6147 C.3     1  UNL1       -0.0220
     15 C          -2.5899   -0.2278    1.0626 C.3     1  UNL1        0.0293
     16 N          -4.0538   -0.1959    1.3288 N.ar    1  UNL1       -0.2921
     17 C          -4.5042    0.1228    2.5680 C.ar    1  UNL1        0.3276
     18 O          -3.7930    0.4278    3.5852 O.2     1  UNL1       -0.2465
     19 N          -5.8441    0.0803    2.6115 N.ar    1  UNL1       -0.3060
     20 C          -6.2647   -0.2718    1.3787 C.ar    1  UNL1        0.0670
     21 C          -7.5084   -0.4814    0.7941 C.ar    1  UNL1       -0.0362
     22 C          -7.5337   -0.8429   -0.5349 C.ar    1  UNL1       -0.0597
     23 C          -6.4261   -1.0112   -1.3237 C.ar    1  UNL1       -0.0597
     24 C          -5.1832   -0.8032   -0.7440 C.ar    1  UNL1       -0.0360
     25 C          -5.1306   -0.4418    0.5795 C.ar    1  UNL1        0.0696
     26 C           0.5872    0.9673   -1.5915 C.3     1  UNL1        0.0008
     27 C           2.0721    0.9953   -1.2916 C.3     1  UNL1       -0.0191
     28 C           4.1858   -1.5615   -1.6813 C.ar    1  UNL1        0.3278
     29 O           3.4165   -2.2245   -2.4168 O.2     1  UNL1       -0.2465
     30 N           5.5118   -1.7365   -1.7334 N.ar    1  UNL1       -0.3059
     31 H           8.1722   -1.1542   -0.9116 H       1  UNL1        0.0653
     32 H           4.4151    1.2774    1.1663 H       1  UNL1        0.0639
     33 H           6.7167    1.7393    1.8379 H       1  UNL1        0.0633
     34 H           2.6339    0.3434    0.6127 H       1  UNL1        0.0530
     35 H           1.6711   -1.6873    0.8365 H       1  UNL1        0.0298
     36 H           1.7372   -2.1156   -0.8594 H       1  UNL1        0.0298
     37 H          -0.4012   -1.3910    0.5662 H       1  UNL1        0.0427
     38 H          -0.3404   -1.4768   -1.1989 H       1  UNL1        0.0427
     39 H          -0.5785    2.3875    0.1201 H       1  UNL1        0.0427
     40 H          -0.2611    1.2146    1.4335 H       1  UNL1        0.0427
     41 H          -2.6817    1.3633   -0.4013 H       1  UNL1        0.0295
     42 H          -2.6278    1.9373    1.2969 H       1  UNL1        0.0295
     43 H          -2.0652   -0.5577    1.9621 H       1  UNL1        0.0494
     44 H          -2.5360   -0.9542    0.2029 H       1  UNL1        0.0494
     45 H          -6.4752    0.2796    3.4326 H       1  UNL1        0.1704
     46 H          -8.3859   -0.3621    1.3779 H       1  UNL1        0.0639
     47 H          -8.4927   -1.0127   -1.0076 H       1  UNL1        0.0618
     48 H          -6.4909   -1.2942   -2.3725 H       1  UNL1        0.0618
     49 H          -4.2847   -0.9226   -1.3317 H       1  UNL1        0.0639
     50 H           0.4028    0.3232   -2.5017 H       1  UNL1        0.0427
     51 H           0.2101    1.9720   -1.8610 H       1  UNL1        0.0427
     52 H           2.5898    0.9264   -2.2641 H       1  UNL1        0.0298
     53 H           2.2995    1.9951   -0.8724 H       1  UNL1        0.0298
     54 H           6.0661   -2.3870   -2.3295 H       1  UNL1        0.1705
@<TRIPOS>BOND
     1     1     2    1
     2     2     3   ar
     3     3     4   ar
     4     4     5   ar
     5     5     6   ar
     6     6     7   ar
     7     5     8   ar
     8     8     9    1
     9     9    10    1
    10    10    11    1
    11    11    12    1
    12    12    13    1
    13    13    14    1
    14    14    15    1
    15    15    16    1
    16    16    17   ar
    17    17    18    2
    18    17    19   ar
    19    19    20   ar
    20    20    21   ar
    21    21    22   ar
    22    22    23   ar
    23    23    24   ar
    24    24    25   ar
    25    12    26    1
    26    26    27    1
    27     8    28   ar
    28    28    29    2
    29    28    30   ar
    30     7     2   ar
    31    27     9    1
    32    30     4   ar
    33    25    16   ar
    34    25    20   ar
    35     3    31    1
    36     6    32    1
    37     7    33    1
    38     9    34    1
    39    10    35    1
    40    10    36    1
    41    11    37    1
    42    11    38    1
    43    13    39    1
    44    13    40    1
    45    14    41    1
    46    14    42    1
    47    15    43    1
    48    15    44    1
    49    19    45    1
    50    21    46    1
    51    22    47    1
    52    23    48    1
    53    24    49    1
    54    26    50    1
    55    26    51    1
    56    27    52    1
    57    27    53    1
    58    30    54    1
