@<TRIPOS>MOLECULE
*****
 53 56 0 0 0
SMALL
GASTEIGER

@<TRIPOS>ATOM
      1 C          -7.7749    1.9983   -0.9966 C.3     1  UNL1        0.0596
      2 S          -7.2998    0.9494    0.3523 S.O2    1  UNL1       -0.0059
      3 O          -7.9525    1.3744    1.6365 O.2     1  UNL1       -0.1696
      4 O          -7.7978   -0.4354    0.0464 O.2     1  UNL1       -0.1696
      5 C          -5.5690    0.8687    0.5310 C.ar    1  UNL1        0.0883
      6 C          -4.8268    1.7228    1.3149 C.ar    1  UNL1       -0.0334
      7 C          -3.4508    1.5811    1.3928 C.ar    1  UNL1       -0.0178
      8 C          -2.7666    0.5915    0.6981 C.ar    1  UNL1        0.1246
      9 C          -3.5227   -0.2538   -0.0807 C.ar    1  UNL1       -0.0038
     10 C          -4.8810   -0.1087   -0.1530 C.ar    1  UNL1       -0.0302
     11 C          -2.8273   -1.3153   -0.8372 C.3     1  UNL1       -0.0206
     12 C          -1.4998   -0.7157   -1.2637 C.3     1  UNL1       -0.0087
     13 C          -0.6160   -0.3529   -0.0991 C.3     1  UNL1        0.1138
     14 C           0.5467    0.4233   -0.6645 C.3     1  UNL1        0.0030
     15 C           1.8884   -0.0053   -0.1497 C.3     1  UNL1        0.0186
     16 N           2.0497   -1.4163   -0.0409 N.am    1  UNL1       -0.2973
     17 C           3.3512   -1.9598    0.0529 C.2     1  UNL1        0.2466
     18 O           3.5867   -3.2028    0.1543 O.2     1  UNL1       -0.2700
     19 C           4.5391   -1.0828    0.0365 C.ar    1  UNL1        0.0369
     20 C           4.9292   -0.3701    1.1449 C.ar    1  UNL1       -0.0491
     21 C           6.0297    0.4514    1.1409 C.ar    1  UNL1       -0.0494
     22 C           6.7949    0.5889   -0.0029 C.ar    1  UNL1        0.0549
     23 C           8.0024    1.4824   -0.0343 C.3     1  UNL1        0.4174
     24 F           8.0036    2.2967    1.0799 F       1  UNL1       -0.1659
     25 F           7.8567    2.2760   -1.1630 F       1  UNL1       -0.1659
     26 F           9.1570    0.7394   -0.0908 F       1  UNL1       -0.1659
     27 C           6.3926   -0.1280   -1.0979 C.ar    1  UNL1       -0.0494
     28 C           5.2888   -0.9584   -1.1103 C.ar    1  UNL1       -0.0491
     29 C           0.8926   -2.2776   -0.0278 C.3     1  UNL1        0.0186
     30 C          -0.1956   -1.5455    0.6851 C.3     1  UNL1        0.0030
     31 O          -1.3844    0.4652    0.7886 O.3     1  UNL1       -0.4853
     32 H          -8.7250    1.5998   -1.4151 H       1  UNL1        0.0468
     33 H          -8.0148    3.0126   -0.6095 H       1  UNL1        0.0468
     34 H          -7.0069    2.0119   -1.7715 H       1  UNL1        0.0468
     35 H          -5.3712    2.4903    1.8516 H       1  UNL1        0.0638
     36 H          -2.8936    2.2670    2.0149 H       1  UNL1        0.0655
     37 H          -5.4504   -0.7905   -0.7712 H       1  UNL1        0.0640
     38 H          -3.3552   -1.5761   -1.7926 H       1  UNL1        0.0316
     39 H          -2.7110   -2.2546   -0.2876 H       1  UNL1        0.0316
     40 H          -1.7585    0.2573   -1.7748 H       1  UNL1        0.0307
     41 H          -1.0034   -1.3271   -2.0168 H       1  UNL1        0.0307
     42 H           0.4024    1.4884   -0.3814 H       1  UNL1        0.0319
     43 H           0.5719    0.4139   -1.7784 H       1  UNL1        0.0319
     44 H           2.6517    0.3694   -0.8726 H       1  UNL1        0.0466
     45 H           2.1136    0.5143    0.8109 H       1  UNL1        0.0466
     46 H           4.3729   -0.4298    2.0735 H       1  UNL1        0.0625
     47 H           6.3149    1.0050    2.0436 H       1  UNL1        0.0623
     48 H           6.9908   -0.0289   -2.0165 H       1  UNL1        0.0623
     49 H           5.0198   -1.5104   -2.0287 H       1  UNL1        0.0625
     50 H           1.1175   -3.2542    0.4917 H       1  UNL1        0.0466
     51 H           0.6266   -2.5681   -1.0667 H       1  UNL1        0.0466
     52 H          -1.0661   -2.1813    0.9368 H       1  UNL1        0.0319
     53 H           0.2296   -1.1902    1.6571 H       1  UNL1        0.0319
@<TRIPOS>BOND
     1     1     2    1
     2     2     3    2
     3     2     4    2
     4     2     5    1
     5     5     6   ar
     6     6     7   ar
     7     7     8   ar
     8     8     9   ar
     9     9    10   ar
    10     9    11    1
    11    11    12    1
    12    12    13    1
    13    13    14    1
    14    14    15    1
    15    15    16    1
    16    16    17   am
    17    17    18    2
    18    17    19    1
    19    19    20   ar
    20    20    21   ar
    21    21    22   ar
    22    22    23    1
    23    23    24    1
    24    23    25    1
    25    23    26    1
    26    22    27   ar
    27    27    28   ar
    28    16    29    1
    29    29    30    1
    30    13    31    1
    31    10     5   ar
    32    30    13    1
    33    31     8    1
    34    28    19   ar
    35     1    32    1
    36     1    33    1
    37     1    34    1
    38     6    35    1
    39     7    36    1
    40    10    37    1
    41    11    38    1
    42    11    39    1
    43    12    40    1
    44    12    41    1
    45    14    42    1
    46    14    43    1
    47    15    44    1
    48    15    45    1
    49    20    46    1
    50    21    47    1
    51    27    48    1
    52    28    49    1
    53    29    50    1
    54    29    51    1
    55    30    52    1
    56    30    53    1
