
     RDKit          3D

 53 56  0  0  0  0  0  0  0  0999 V2000
   -7.7749    1.9983   -0.9966 C   0  0  0  0  0  0  0  0  0  0  0  0
   -7.2998    0.9494    0.3523 S   0  0  0  0  0  6  0  0  0  0  0  0
   -7.9525    1.3744    1.6365 O   0  0  0  0  0  0  0  0  0  0  0  0
   -7.7978   -0.4354    0.0464 O   0  0  0  0  0  0  0  0  0  0  0  0
   -5.5690    0.8687    0.5310 C   0  0  0  0  0  0  0  0  0  0  0  0
   -4.8268    1.7228    1.3149 C   0  0  0  0  0  0  0  0  0  0  0  0
   -3.4508    1.5811    1.3928 C   0  0  0  0  0  0  0  0  0  0  0  0
   -2.7666    0.5915    0.6981 C   0  0  0  0  0  0  0  0  0  0  0  0
   -3.5227   -0.2538   -0.0807 C   0  0  0  0  0  0  0  0  0  0  0  0
   -4.8810   -0.1087   -0.1530 C   0  0  0  0  0  0  0  0  0  0  0  0
   -2.8273   -1.3153   -0.8372 C   0  0  0  0  0  0  0  0  0  0  0  0
   -1.4998   -0.7157   -1.2637 C   0  0  0  0  0  0  0  0  0  0  0  0
   -0.6160   -0.3529   -0.0991 C   0  0  0  0  0  0  0  0  0  0  0  0
    0.5467    0.4233   -0.6645 C   0  0  0  0  0  0  0  0  0  0  0  0
    1.8884   -0.0053   -0.1497 C   0  0  0  0  0  0  0  0  0  0  0  0
    2.0497   -1.4163   -0.0409 N   0  0  0  0  0  0  0  0  0  0  0  0
    3.3512   -1.9598    0.0529 C   0  0  0  0  0  0  0  0  0  0  0  0
    3.5867   -3.2028    0.1543 O   0  0  0  0  0  0  0  0  0  0  0  0
    4.5391   -1.0828    0.0365 C   0  0  0  0  0  0  0  0  0  0  0  0
    4.9292   -0.3701    1.1449 C   0  0  0  0  0  0  0  0  0  0  0  0
    6.0297    0.4514    1.1409 C   0  0  0  0  0  0  0  0  0  0  0  0
    6.7949    0.5889   -0.0029 C   0  0  0  0  0  0  0  0  0  0  0  0
    8.0024    1.4824   -0.0343 C   0  0  0  0  0  0  0  0  0  0  0  0
    8.0036    2.2967    1.0799 F   0  0  0  0  0  0  0  0  0  0  0  0
    7.8567    2.2760   -1.1630 F   0  0  0  0  0  0  0  0  0  0  0  0
    9.1570    0.7394   -0.0908 F   0  0  0  0  0  0  0  0  0  0  0  0
    6.3926   -0.1280   -1.0979 C   0  0  0  0  0  0  0  0  0  0  0  0
    5.2888   -0.9584   -1.1103 C   0  0  0  0  0  0  0  0  0  0  0  0
    0.8926   -2.2776   -0.0278 C   0  0  0  0  0  0  0  0  0  0  0  0
   -0.1956   -1.5455    0.6851 C   0  0  0  0  0  0  0  0  0  0  0  0
   -1.3844    0.4652    0.7886 O   0  0  0  0  0  0  0  0  0  0  0  0
   -8.7250    1.5998   -1.4151 H   0  0  0  0  0  0  0  0  0  0  0  0
   -8.0148    3.0126   -0.6095 H   0  0  0  0  0  0  0  0  0  0  0  0
   -7.0069    2.0119   -1.7715 H   0  0  0  0  0  0  0  0  0  0  0  0
   -5.3712    2.4903    1.8516 H   0  0  0  0  0  0  0  0  0  0  0  0
   -2.8936    2.2670    2.0149 H   0  0  0  0  0  0  0  0  0  0  0  0
   -5.4504   -0.7905   -0.7712 H   0  0  0  0  0  0  0  0  0  0  0  0
   -3.3552   -1.5761   -1.7926 H   0  0  0  0  0  0  0  0  0  0  0  0
   -2.7110   -2.2546   -0.2876 H   0  0  0  0  0  0  0  0  0  0  0  0
   -1.7585    0.2573   -1.7748 H   0  0  0  0  0  0  0  0  0  0  0  0
   -1.0034   -1.3271   -2.0168 H   0  0  0  0  0  0  0  0  0  0  0  0
    0.4024    1.4884   -0.3814 H   0  0  0  0  0  0  0  0  0  0  0  0
    0.5719    0.4139   -1.7784 H   0  0  0  0  0  0  0  0  0  0  0  0
    2.6517    0.3694   -0.8726 H   0  0  0  0  0  0  0  0  0  0  0  0
    2.1136    0.5143    0.8109 H   0  0  0  0  0  0  0  0  0  0  0  0
    4.3729   -0.4298    2.0735 H   0  0  0  0  0  0  0  0  0  0  0  0
    6.3149    1.0050    2.0436 H   0  0  0  0  0  0  0  0  0  0  0  0
    6.9908   -0.0289   -2.0165 H   0  0  0  0  0  0  0  0  0  0  0  0
    5.0198   -1.5104   -2.0287 H   0  0  0  0  0  0  0  0  0  0  0  0
    1.1175   -3.2542    0.4917 H   0  0  0  0  0  0  0  0  0  0  0  0
    0.6266   -2.5681   -1.0667 H   0  0  0  0  0  0  0  0  0  0  0  0
   -1.0661   -2.1813    0.9368 H   0  0  0  0  0  0  0  0  0  0  0  0
    0.2296   -1.1902    1.6571 H   0  0  0  0  0  0  0  0  0  0  0  0
  1  2  1  0
  2  3  2  0
  2  4  2  0
  2  5  1  0
  5  6  2  0
  6  7  1  0
  7  8  2  0
  8  9  1  0
  9 10  2  0
  9 11  1  0
 11 12  1  0
 12 13  1  0
 13 14  1  0
 14 15  1  0
 15 16  1  0
 16 17  1  0
 17 18  2  0
 17 19  1  0
 19 20  2  0
 20 21  1  0
 21 22  2  0
 22 23  1  0
 23 24  1  0
 23 25  1  0
 23 26  1  0
 22 27  1  0
 27 28  2  0
 16 29  1  0
 29 30  1  0
 13 31  1  0
 10  5  1  0
 30 13  1  0
 31  8  1  0
 28 19  1  0
  1 32  1  0
  1 33  1  0
  1 34  1  0
  6 35  1  0
  7 36  1  0
 10 37  1  0
 11 38  1  0
 11 39  1  0
 12 40  1  0
 12 41  1  0
 14 42  1  0
 14 43  1  0
 15 44  1  0
 15 45  1  0
 20 46  1  0
 21 47  1  0
 27 48  1  0
 28 49  1  0
 29 50  1  0
 29 51  1  0
 30 52  1  0
 30 53  1  0
M  END
$$$$
