@<TRIPOS>MOLECULE
*****
 45 48 0 0 0
SMALL
GASTEIGER

@<TRIPOS>ATOM
      1 O           4.9382   -2.2494   -0.7608 O.2     1  UNL1       -0.2449
      2 C           5.0599   -1.0022   -0.6628 C.2     1  UNL1        0.3402
      3 O           4.0778   -0.2178   -1.2000 O.3     1  UNL1       -0.4482
      4 C           2.9296   -0.6460   -1.8596 C.3     1  UNL1        0.1531
      5 C           2.1327   -1.4649   -0.9637 C.1     1  UNL1       -0.0605
      6 C           1.4512   -2.1574   -0.2158 C.1     1  UNL1       -0.0877
      7 C           0.6565   -2.9945    0.6825 C.3     1  UNL1        0.0642
      8 S          -0.0346   -2.0293    2.0525 S.3     1  UNL1       -0.0528
      9 C          -1.2346   -0.8778    1.3524 C.ar    1  UNL1        0.2785
     10 N          -0.9906    0.3668    0.9069 N.ar    1  UNL1       -0.1006
     11 N          -2.1198    0.8857    0.4729 N.ar    1  UNL1       -0.1065
     12 C          -3.0935    0.0076    0.6255 C.ar    1  UNL1        0.2498
     13 C          -4.5382    0.0484    0.3181 C.ar    1  UNL1        0.0462
     14 C          -5.2862   -1.0966    0.6295 C.ar    1  UNL1       -0.0488
     15 C          -6.6341   -1.0892    0.3549 C.ar    1  UNL1       -0.0604
     16 C          -7.2387    0.0126   -0.2116 C.ar    1  UNL1       -0.0540
     17 C          -6.4817    1.1257   -0.5083 C.ar    1  UNL1       -0.0172
     18 C          -7.1003    2.2173   -1.0737 C.ar    1  UNL1       -0.0540
     19 C          -6.3453    3.3225   -1.3679 C.ar    1  UNL1       -0.0612
     20 C          -5.0020    3.4053   -1.1307 C.ar    1  UNL1       -0.0611
     21 C          -4.3838    2.2883   -0.5550 C.ar    1  UNL1       -0.0533
     22 C          -5.1078    1.1544   -0.2431 C.ar    1  UNL1       -0.0056
     23 O          -2.5038   -1.0595    1.1686 O.2     1  UNL1       -0.4110
     24 C           6.2414   -0.4701    0.0174 C.ar    1  UNL1        0.0619
     25 C           6.4030    0.9082    0.1475 C.ar    1  UNL1       -0.0449
     26 C           7.5175    1.3781    0.7854 C.ar    1  UNL1       -0.0228
     27 C           8.4878    0.5186    1.3043 C.ar    1  UNL1        0.1584
     28 F           9.5675    1.0457    1.9243 F       1  UNL1       -0.2025
     29 C           8.3238   -0.8302    1.1738 C.ar    1  UNL1        0.1592
     30 F           9.2242   -1.7153    1.6525 F       1  UNL1       -0.2025
     31 C           7.2011   -1.3050    0.5311 C.ar    1  UNL1       -0.0096
     32 H           3.1964   -1.1950   -2.8024 H       1  UNL1        0.0838
     33 H           2.3726    0.2820   -2.1803 H       1  UNL1        0.0838
     34 H          -0.1581   -3.4351    0.0369 H       1  UNL1        0.0515
     35 H           1.2389   -3.8352    1.0907 H       1  UNL1        0.0515
     36 H          -4.8290   -1.9780    1.0775 H       1  UNL1        0.0625
     37 H          -7.2600   -1.9582    0.5791 H       1  UNL1        0.0618
     38 H          -8.3177   -0.0163   -0.4175 H       1  UNL1        0.0624
     39 H          -8.1803    2.2128   -1.2896 H       1  UNL1        0.0624
     40 H          -6.8405    4.1707   -1.8103 H       1  UNL1        0.0618
     41 H          -4.4011    4.2797   -1.3626 H       1  UNL1        0.0618
     42 H          -3.3362    2.3670   -0.3760 H       1  UNL1        0.0624
     43 H           5.6328    1.5589   -0.2651 H       1  UNL1        0.0627
     44 H           7.6815    2.4414    0.9077 H       1  UNL1        0.0647
     45 H           7.0837   -2.3748    0.4345 H       1  UNL1        0.0655
@<TRIPOS>BOND
     1     1     2    2
     2     2     3    1
     3     3     4    1
     4     4     5    1
     5     5     6    3
     6     6     7    1
     7     7     8    1
     8     8     9    1
     9     9    10   ar
    10    10    11   ar
    11    11    12   ar
    12    12    13    1
    13    13    14   ar
    14    14    15   ar
    15    15    16   ar
    16    16    17   ar
    17    17    18   ar
    18    18    19   ar
    19    19    20   ar
    20    20    21   ar
    21    21    22   ar
    22    12    23   ar
    23     2    24    1
    24    24    25   ar
    25    25    26   ar
    26    26    27   ar
    27    27    28    1
    28    27    29   ar
    29    29    30    1
    30    29    31   ar
    31    23     9   ar
    32    31    24   ar
    33    22    13   ar
    34    22    17   ar
    35     4    32    1
    36     4    33    1
    37     7    34    1
    38     7    35    1
    39    14    36    1
    40    15    37    1
    41    16    38    1
    42    18    39    1
    43    19    40    1
    44    20    41    1
    45    21    42    1
    46    25    43    1
    47    26    44    1
    48    31    45    1
