
     RDKit          3D

 45 48  0  0  0  0  0  0  0  0999 V2000
    4.9382   -2.2494   -0.7608 O   0  0  0  0  0  0  0  0  0  0  0  0
    5.0599   -1.0022   -0.6628 C   0  0  0  0  0  0  0  0  0  0  0  0
    4.0778   -0.2178   -1.2000 O   0  0  0  0  0  0  0  0  0  0  0  0
    2.9296   -0.6460   -1.8596 C   0  0  0  0  0  0  0  0  0  0  0  0
    2.1327   -1.4649   -0.9637 C   0  0  0  0  0  0  0  0  0  0  0  0
    1.4512   -2.1574   -0.2158 C   0  0  0  0  0  0  0  0  0  0  0  0
    0.6565   -2.9945    0.6825 C   0  0  0  0  0  0  0  0  0  0  0  0
   -0.0346   -2.0293    2.0525 S   0  0  0  0  0  0  0  0  0  0  0  0
   -1.2346   -0.8778    1.3524 C   0  0  0  0  0  0  0  0  0  0  0  0
   -0.9906    0.3668    0.9069 N   0  0  0  0  0  0  0  0  0  0  0  0
   -2.1198    0.8857    0.4729 N   0  0  0  0  0  0  0  0  0  0  0  0
   -3.0935    0.0076    0.6255 C   0  0  0  0  0  0  0  0  0  0  0  0
   -4.5382    0.0484    0.3181 C   0  0  0  0  0  0  0  0  0  0  0  0
   -5.2862   -1.0966    0.6295 C   0  0  0  0  0  0  0  0  0  0  0  0
   -6.6341   -1.0892    0.3549 C   0  0  0  0  0  0  0  0  0  0  0  0
   -7.2387    0.0126   -0.2116 C   0  0  0  0  0  0  0  0  0  0  0  0
   -6.4817    1.1257   -0.5083 C   0  0  0  0  0  0  0  0  0  0  0  0
   -7.1003    2.2173   -1.0737 C   0  0  0  0  0  0  0  0  0  0  0  0
   -6.3453    3.3225   -1.3679 C   0  0  0  0  0  0  0  0  0  0  0  0
   -5.0020    3.4053   -1.1307 C   0  0  0  0  0  0  0  0  0  0  0  0
   -4.3838    2.2883   -0.5550 C   0  0  0  0  0  0  0  0  0  0  0  0
   -5.1078    1.1544   -0.2431 C   0  0  0  0  0  0  0  0  0  0  0  0
   -2.5038   -1.0595    1.1686 O   0  0  0  0  0  0  0  0  0  0  0  0
    6.2414   -0.4701    0.0174 C   0  0  0  0  0  0  0  0  0  0  0  0
    6.4030    0.9082    0.1475 C   0  0  0  0  0  0  0  0  0  0  0  0
    7.5175    1.3781    0.7854 C   0  0  0  0  0  0  0  0  0  0  0  0
    8.4878    0.5186    1.3043 C   0  0  0  0  0  0  0  0  0  0  0  0
    9.5675    1.0457    1.9243 F   0  0  0  0  0  0  0  0  0  0  0  0
    8.3238   -0.8302    1.1738 C   0  0  0  0  0  0  0  0  0  0  0  0
    9.2242   -1.7153    1.6525 F   0  0  0  0  0  0  0  0  0  0  0  0
    7.2011   -1.3050    0.5311 C   0  0  0  0  0  0  0  0  0  0  0  0
    3.1964   -1.1950   -2.8024 H   0  0  0  0  0  0  0  0  0  0  0  0
    2.3726    0.2820   -2.1803 H   0  0  0  0  0  0  0  0  0  0  0  0
   -0.1581   -3.4351    0.0369 H   0  0  0  0  0  0  0  0  0  0  0  0
    1.2389   -3.8352    1.0907 H   0  0  0  0  0  0  0  0  0  0  0  0
   -4.8290   -1.9780    1.0775 H   0  0  0  0  0  0  0  0  0  0  0  0
   -7.2600   -1.9582    0.5791 H   0  0  0  0  0  0  0  0  0  0  0  0
   -8.3177   -0.0163   -0.4175 H   0  0  0  0  0  0  0  0  0  0  0  0
   -8.1803    2.2128   -1.2896 H   0  0  0  0  0  0  0  0  0  0  0  0
   -6.8405    4.1707   -1.8103 H   0  0  0  0  0  0  0  0  0  0  0  0
   -4.4011    4.2797   -1.3626 H   0  0  0  0  0  0  0  0  0  0  0  0
   -3.3362    2.3670   -0.3760 H   0  0  0  0  0  0  0  0  0  0  0  0
    5.6328    1.5589   -0.2651 H   0  0  0  0  0  0  0  0  0  0  0  0
    7.6815    2.4414    0.9077 H   0  0  0  0  0  0  0  0  0  0  0  0
    7.0837   -2.3748    0.4345 H   0  0  0  0  0  0  0  0  0  0  0  0
  1  2  2  0
  2  3  1  0
  3  4  1  0
  4  5  1  0
  5  6  3  0
  6  7  1  0
  7  8  1  0
  8  9  1  0
  9 10  2  0
 10 11  1  0
 11 12  2  0
 12 13  1  0
 13 14  2  0
 14 15  1  0
 15 16  2  0
 16 17  1  0
 17 18  2  0
 18 19  1  0
 19 20  2  0
 20 21  1  0
 21 22  2  0
 12 23  1  0
  2 24  1  0
 24 25  2  0
 25 26  1  0
 26 27  2  0
 27 28  1  0
 27 29  1  0
 29 30  1  0
 29 31  2  0
 23  9  1  0
 31 24  1  0
 22 13  1  0
 22 17  1  0
  4 32  1  0
  4 33  1  0
  7 34  1  0
  7 35  1  0
 14 36  1  0
 15 37  1  0
 16 38  1  0
 18 39  1  0
 19 40  1  0
 20 41  1  0
 21 42  1  0
 25 43  1  0
 26 44  1  0
 31 45  1  0
M  END
$$$$
