@<TRIPOS>MOLECULE
*****
 54 60 0 0 0
SMALL
GASTEIGER

@<TRIPOS>ATOM
      1 C          -7.3794    2.4223    1.7208 C.ar    1  UNL1       -0.0597
      2 C          -6.2595    2.7084    0.9697 C.ar    1  UNL1       -0.0611
      3 C          -5.6222    1.6959    0.2577 C.ar    1  UNL1       -0.0520
      4 C          -6.1216    0.4054    0.3115 C.ar    1  UNL1        0.0082
      5 C          -5.5239   -0.6297   -0.3770 C.ar    1  UNL1       -0.0022
      6 C          -4.3456   -0.3260   -1.1665 C.ar    1  UNL1        0.0467
      7 C          -4.3181    0.0576   -2.4849 C.ar    1  UNL1        0.0597
      8 N          -3.0456    0.2346   -2.8159 N.ar    1  UNL1       -0.1727
      9 N          -2.2737   -0.0223   -1.7588 N.ar    1  UNL1       -0.2206
     10 C          -0.9421    0.0117   -1.5832 C.ar    1  UNL1        0.0406
     11 C          -0.3258   -0.2947   -0.3901 C.ar    1  UNL1        0.0184
     12 C           1.1200   -0.2560   -0.2046 C.ar    1  UNL1       -0.0149
     13 C           1.7402   -1.1108    0.6794 C.ar    1  UNL1       -0.0522
     14 C           3.1256   -1.0833    0.8663 C.ar    1  UNL1       -0.0401
     15 C           3.9092   -0.1900    0.1619 C.ar    1  UNL1        0.0300
     16 N           5.3080   -0.1426    0.3320 N.pl3   1  UNL1       -0.3241
     17 C           6.1042   -0.9696    1.2148 C.3     1  UNL1        0.0280
     18 C           7.5132   -0.4222    1.0803 C.3     1  UNL1        0.0251
     19 C           7.1789    1.0605    0.8184 C.3     1  UNL1       -0.0163
     20 C           6.2112    0.7356   -0.3385 C.3     1  UNL1        0.0375
     21 C           7.1357   -0.1291   -1.1651 C.3     1  UNL1        0.0148
     22 N           8.0121   -0.8074   -0.2007 N.3     1  UNL1       -0.3099
     23 C           3.2746    0.6593   -0.7192 C.ar    1  UNL1       -0.0401
     24 C           1.8950    0.6320   -0.9053 C.ar    1  UNL1       -0.0522
     25 C          -1.1414   -0.6515    0.6621 C.ar    1  UNL1        0.0391
     26 N          -2.4672   -0.6787    0.4645 N.ar    1  UNL1       -0.2350
     27 C          -3.0557   -0.3761   -0.7093 C.ar    1  UNL1        0.1632
     28 C          -6.0070   -1.9042   -0.3316 C.ar    1  UNL1       -0.0351
     29 C          -7.1299   -2.1449    0.4329 C.ar    1  UNL1        0.0288
     30 N          -7.7246   -1.1593    1.1072 N.ar    1  UNL1       -0.2549
     31 C          -7.2459    0.1064    1.0628 C.ar    1  UNL1        0.0715
     32 C          -7.8603    1.1304    1.7606 C.ar    1  UNL1       -0.0357
     33 H          -7.8938    3.1856    2.2820 H       1  UNL1        0.0618
     34 H          -5.8608    3.7324    0.9252 H       1  UNL1        0.0618
     35 H          -4.7527    1.9270   -0.3231 H       1  UNL1        0.0624
     36 H          -5.2057    0.1758   -3.0886 H       1  UNL1        0.0855
     37 H          -0.3287    0.2941   -2.4233 H       1  UNL1        0.0837
     38 H           1.1203   -1.8063    1.2263 H       1  UNL1        0.0624
     39 H           3.5411   -1.7736    1.5668 H       1  UNL1        0.0636
     40 H           5.7457   -0.9689    2.2551 H       1  UNL1        0.0479
     41 H           6.1377   -2.0062    0.7748 H       1  UNL1        0.0479
     42 H           8.1482   -0.5725    1.9251 H       1  UNL1        0.0476
     43 H           8.0552    1.6084    0.4682 H       1  UNL1        0.0299
     44 H           6.6447    1.5101    1.6543 H       1  UNL1        0.0299
     45 H           5.8129    1.5964   -0.8212 H       1  UNL1        0.0513
     46 H           6.5630   -0.9345   -1.6718 H       1  UNL1        0.0442
     47 H           7.7108    0.4373   -1.9104 H       1  UNL1        0.0442
     48 H           8.0636   -1.8234   -0.3643 H       1  UNL1        0.1223
     49 H           3.8267    1.3977   -1.3161 H       1  UNL1        0.0636
     50 H           1.4000    1.3002   -1.5978 H       1  UNL1        0.0624
     51 H          -0.7465   -0.9096    1.6393 H       1  UNL1        0.0837
     52 H          -5.4999   -2.6939   -0.8945 H       1  UNL1        0.0639
     53 H          -7.4869   -3.1693    0.4463 H       1  UNL1        0.0830
     54 H          -8.7331    0.9316    2.3518 H       1  UNL1        0.0639
@<TRIPOS>BOND
     1     1     2   ar
     2     2     3   ar
     3     3     4   ar
     4     4     5   ar
     5     5     6    1
     6     6     7   ar
     7     7     8   ar
     8     8     9   ar
     9     9    10   ar
    10    10    11   ar
    11    11    12    1
    12    12    13   ar
    13    13    14   ar
    14    14    15   ar
    15    15    16    1
    16    16    17    1
    17    17    18    1
    18    18    19    1
    19    19    20    1
    20    20    21    1
    21    21    22    1
    22    15    23   ar
    23    23    24   ar
    24    11    25   ar
    25    25    26   ar
    26    26    27   ar
    27     5    28   ar
    28    28    29   ar
    29    29    30   ar
    30    30    31   ar
    31    31    32   ar
    32    32     1   ar
    33    31     4   ar
    34    27     6   ar
    35    27     9   ar
    36    24    12   ar
    37    20    16    1
    38    22    18    1
    39     1    33    1
    40     2    34    1
    41     3    35    1
    42     7    36    1
    43    10    37    1
    44    13    38    1
    45    14    39    1
    46    17    40    1
    47    17    41    1
    48    18    42    1
    49    19    43    1
    50    19    44    1
    51    20    45    1
    52    21    46    1
    53    21    47    1
    54    22    48    1
    55    23    49    1
    56    24    50    1
    57    25    51    1
    58    28    52    1
    59    29    53    1
    60    32    54    1
