
     RDKit          3D

 54 60  0  0  0  0  0  0  0  0999 V2000
   -7.3794    2.4223    1.7208 C   0  0  0  0  0  0  0  0  0  0  0  0
   -6.2595    2.7084    0.9697 C   0  0  0  0  0  0  0  0  0  0  0  0
   -5.6222    1.6959    0.2577 C   0  0  0  0  0  0  0  0  0  0  0  0
   -6.1216    0.4054    0.3115 C   0  0  0  0  0  0  0  0  0  0  0  0
   -5.5239   -0.6297   -0.3770 C   0  0  0  0  0  0  0  0  0  0  0  0
   -4.3456   -0.3260   -1.1665 C   0  0  0  0  0  0  0  0  0  0  0  0
   -4.3181    0.0576   -2.4849 C   0  0  0  0  0  0  0  0  0  0  0  0
   -3.0456    0.2346   -2.8159 N   0  0  0  0  0  0  0  0  0  0  0  0
   -2.2737   -0.0223   -1.7588 N   0  0  0  0  0  0  0  0  0  0  0  0
   -0.9421    0.0117   -1.5832 C   0  0  0  0  0  0  0  0  0  0  0  0
   -0.3258   -0.2947   -0.3901 C   0  0  0  0  0  0  0  0  0  0  0  0
    1.1200   -0.2560   -0.2046 C   0  0  0  0  0  0  0  0  0  0  0  0
    1.7402   -1.1108    0.6794 C   0  0  0  0  0  0  0  0  0  0  0  0
    3.1256   -1.0833    0.8663 C   0  0  0  0  0  0  0  0  0  0  0  0
    3.9092   -0.1900    0.1619 C   0  0  0  0  0  0  0  0  0  0  0  0
    5.3080   -0.1426    0.3320 N   0  0  0  0  0  0  0  0  0  0  0  0
    6.1042   -0.9696    1.2148 C   0  0  0  0  0  0  0  0  0  0  0  0
    7.5132   -0.4222    1.0803 C   0  0  2  0  0  0  0  0  0  0  0  0
    7.1789    1.0605    0.8184 C   0  0  0  0  0  0  0  0  0  0  0  0
    6.2112    0.7356   -0.3385 C   0  0  1  0  0  0  0  0  0  0  0  0
    7.1357   -0.1291   -1.1651 C   0  0  0  0  0  0  0  0  0  0  0  0
    8.0121   -0.8074   -0.2007 N   0  0  0  0  0  0  0  0  0  0  0  0
    3.2746    0.6593   -0.7192 C   0  0  0  0  0  0  0  0  0  0  0  0
    1.8950    0.6320   -0.9053 C   0  0  0  0  0  0  0  0  0  0  0  0
   -1.1414   -0.6515    0.6621 C   0  0  0  0  0  0  0  0  0  0  0  0
   -2.4672   -0.6787    0.4645 N   0  0  0  0  0  0  0  0  0  0  0  0
   -3.0557   -0.3761   -0.7093 C   0  0  0  0  0  0  0  0  0  0  0  0
   -6.0070   -1.9042   -0.3316 C   0  0  0  0  0  0  0  0  0  0  0  0
   -7.1299   -2.1449    0.4329 C   0  0  0  0  0  0  0  0  0  0  0  0
   -7.7246   -1.1593    1.1072 N   0  0  0  0  0  0  0  0  0  0  0  0
   -7.2459    0.1064    1.0628 C   0  0  0  0  0  0  0  0  0  0  0  0
   -7.8603    1.1304    1.7606 C   0  0  0  0  0  0  0  0  0  0  0  0
   -7.8938    3.1856    2.2820 H   0  0  0  0  0  0  0  0  0  0  0  0
   -5.8608    3.7324    0.9252 H   0  0  0  0  0  0  0  0  0  0  0  0
   -4.7527    1.9270   -0.3231 H   0  0  0  0  0  0  0  0  0  0  0  0
   -5.2057    0.1758   -3.0886 H   0  0  0  0  0  0  0  0  0  0  0  0
   -0.3287    0.2941   -2.4233 H   0  0  0  0  0  0  0  0  0  0  0  0
    1.1203   -1.8063    1.2263 H   0  0  0  0  0  0  0  0  0  0  0  0
    3.5411   -1.7736    1.5668 H   0  0  0  0  0  0  0  0  0  0  0  0
    5.7457   -0.9689    2.2551 H   0  0  0  0  0  0  0  0  0  0  0  0
    6.1377   -2.0062    0.7748 H   0  0  0  0  0  0  0  0  0  0  0  0
    8.1482   -0.5725    1.9251 H   0  0  0  0  0  0  0  0  0  0  0  0
    8.0552    1.6084    0.4682 H   0  0  0  0  0  0  0  0  0  0  0  0
    6.6447    1.5101    1.6543 H   0  0  0  0  0  0  0  0  0  0  0  0
    5.8129    1.5964   -0.8212 H   0  0  0  0  0  0  0  0  0  0  0  0
    6.5630   -0.9345   -1.6718 H   0  0  0  0  0  0  0  0  0  0  0  0
    7.7108    0.4373   -1.9104 H   0  0  0  0  0  0  0  0  0  0  0  0
    8.0636   -1.8234   -0.3643 H   0  0  0  0  0  0  0  0  0  0  0  0
    3.8267    1.3977   -1.3161 H   0  0  0  0  0  0  0  0  0  0  0  0
    1.4000    1.3002   -1.5978 H   0  0  0  0  0  0  0  0  0  0  0  0
   -0.7465   -0.9096    1.6393 H   0  0  0  0  0  0  0  0  0  0  0  0
   -5.4999   -2.6939   -0.8945 H   0  0  0  0  0  0  0  0  0  0  0  0
   -7.4869   -3.1693    0.4463 H   0  0  0  0  0  0  0  0  0  0  0  0
   -8.7331    0.9316    2.3518 H   0  0  0  0  0  0  0  0  0  0  0  0
  1  2  2  0
  2  3  1  0
  3  4  2  0
  4  5  1  0
  5  6  1  0
  6  7  1  0
  7  8  2  0
  8  9  1  0
  9 10  1  0
 10 11  2  0
 11 12  1  0
 12 13  2  0
 13 14  1  0
 14 15  2  0
 15 16  1  0
 16 17  1  0
 17 18  1  0
 18 19  1  0
 19 20  1  0
 20 21  1  0
 21 22  1  0
 15 23  1  0
 23 24  2  0
 11 25  1  0
 25 26  2  0
 26 27  1  0
  5 28  2  0
 28 29  1  0
 29 30  2  0
 30 31  1  0
 31 32  2  0
 32  1  1  0
 31  4  1  0
 27  6  2  0
 27  9  1  0
 24 12  1  0
 20 16  1  0
 22 18  1  0
  1 33  1  0
  2 34  1  0
  3 35  1  0
  7 36  1  0
 10 37  1  0
 13 38  1  0
 14 39  1  0
 17 40  1  0
 17 41  1  0
 18 42  1  1
 19 43  1  0
 19 44  1  0
 20 45  1  6
 21 46  1  0
 21 47  1  0
 22 48  1  0
 23 49  1  0
 24 50  1  0
 25 51  1  0
 28 52  1  0
 29 53  1  0
 32 54  1  0
M  END
$$$$
