
     RDKit          3D

 54 57  0  0  0  0  0  0  0  0999 V2000
   -3.7041    6.3721    0.2663 C   0  0  0  0  0  0  0  0  0  0  0  0
   -2.8439    5.2055    0.4034 C   0  0  0  0  0  0  0  0  0  0  0  0
   -1.5753    4.9718    0.8081 C   0  0  0  0  0  0  0  0  0  0  0  0
   -1.1785    3.7160    0.7736 N   0  0  0  0  0  0  0  0  0  0  0  0
   -1.7486    2.7776    0.4498 C   0  0  0  0  0  0  0  0  0  0  0  0
   -1.6072    1.3292    0.3012 C   0  0  0  0  0  0  0  0  0  0  0  0
   -2.6287    0.5422   -0.1574 C   0  0  0  0  0  0  0  0  0  0  0  0
   -2.5061   -0.8523   -0.3051 C   0  0  0  0  0  0  0  0  0  0  0  0
   -3.6023   -1.5102   -0.7718 O   0  0  0  0  0  0  0  0  0  0  0  0
   -3.6661   -2.8838   -0.9802 C   0  0  1  0  0  0  0  0  0  0  0  0
   -4.8631   -3.5077   -0.2473 C   0  0  0  0  0  0  0  0  0  0  0  0
   -5.8460   -3.6772   -1.3849 C   0  0  0  0  0  0  0  0  0  0  0  0
   -4.9912   -4.1047   -2.4139 O   0  0  0  0  0  0  0  0  0  0  0  0
   -4.0640   -3.0929   -2.4500 C   0  0  0  0  0  0  0  0  0  0  0  0
   -1.3047   -1.4337    0.0291 C   0  0  0  0  0  0  0  0  0  0  0  0
   -0.2544   -0.6564    0.4963 C   0  0  0  0  0  0  0  0  0  0  0  0
    1.0090   -1.2801    0.8456 C   0  0  0  0  0  0  0  0  0  0  0  0
    1.1281   -2.5410    0.7173 O   0  0  0  0  0  0  0  0  0  0  0  0
    2.1331   -0.5960    1.3224 N   0  0  0  0  0  0  0  0  0  0  0  0
    3.3878   -1.2568    1.6635 C   0  0  2  0  0  0  0  0  0  0  0  0
    3.6545   -0.9686    3.1254 C   0  0  0  0  0  0  0  0  0  0  0  0
    4.4470   -0.6910    0.7812 C   0  0  0  0  0  0  0  0  0  0  0  0
    5.3479   -1.5564    0.1642 C   0  0  0  0  0  0  0  0  0  0  0  0
    6.2941   -1.0326   -0.6258 N   0  0  0  0  0  0  0  0  0  0  0  0
    6.3850    0.2911   -0.8279 C   0  0  0  0  0  0  0  0  0  0  0  0
    7.4576    0.8349   -1.7187 C   0  0  0  0  0  0  0  0  0  0  0  0
    8.1498    1.8459   -1.0451 F   0  0  0  0  0  0  0  0  0  0  0  0
    8.3788   -0.1670   -1.9659 F   0  0  0  0  0  0  0  0  0  0  0  0
    6.9218    1.3412   -2.8816 F   0  0  0  0  0  0  0  0  0  0  0  0
    5.5185    1.1190   -0.2339 N   0  0  0  0  0  0  0  0  0  0  0  0
    4.5475    0.6681    0.5682 C   0  0  0  0  0  0  0  0  0  0  0  0
   -0.4220    0.7028    0.6237 C   0  0  0  0  0  0  0  0  0  0  0  0
   -3.4018    3.5744   -0.0105 S   0  0  0  0  0  0  0  0  0  0  0  0
   -3.4085    7.1758    0.9640 H   0  0  0  0  0  0  0  0  0  0  0  0
   -3.6699    6.7001   -0.8055 H   0  0  0  0  0  0  0  0  0  0  0  0
   -4.7635    6.0900    0.4633 H   0  0  0  0  0  0  0  0  0  0  0  0
   -0.9211    5.7935    1.1449 H   0  0  0  0  0  0  0  0  0  0  0  0
   -3.5815    1.0182   -0.4204 H   0  0  0  0  0  0  0  0  0  0  0  0
   -2.7558   -3.4509   -0.7435 H   0  0  0  0  0  0  0  0  0  0  0  0
   -4.5294   -4.4818    0.1593 H   0  0  0  0  0  0  0  0  0  0  0  0
   -5.2398   -2.8094    0.5270 H   0  0  0  0  0  0  0  0  0  0  0  0
   -6.6128   -4.4565   -1.1585 H   0  0  0  0  0  0  0  0  0  0  0  0
   -6.2766   -2.6993   -1.6160 H   0  0  0  0  0  0  0  0  0  0  0  0
   -4.4470   -2.1570   -2.8932 H   0  0  0  0  0  0  0  0  0  0  0  0
   -3.1202   -3.3590   -2.9744 H   0  0  0  0  0  0  0  0  0  0  0  0
   -1.1701   -2.5003   -0.0697 H   0  0  0  0  0  0  0  0  0  0  0  0
    2.0934    0.4315    1.4470 H   0  0  0  0  0  0  0  0  0  0  0  0
    3.3095   -2.3482    1.4971 H   0  0  0  0  0  0  0  0  0  0  0  0
    3.2073    0.0285    3.3881 H   0  0  0  0  0  0  0  0  0  0  0  0
    3.1452   -1.7153    3.7670 H   0  0  0  0  0  0  0  0  0  0  0  0
    4.7339   -0.8736    3.3245 H   0  0  0  0  0  0  0  0  0  0  0  0
    5.2324   -2.6095    0.3587 H   0  0  0  0  0  0  0  0  0  0  0  0
    3.8575    1.3654    1.0376 H   0  0  0  0  0  0  0  0  0  0  0  0
    0.3646    1.3742    0.9858 H   0  0  0  0  0  0  0  0  0  0  0  0
  1  2  1  0
  2  3  2  0
  3  4  1  0
  4  5  2  0
  5  6  1  0
  6  7  2  0
  7  8  1  0
  8  9  1  0
  9 10  1  0
 10 11  1  0
 11 12  1  0
 12 13  1  0
 13 14  1  0
  8 15  2  0
 15 16  1  0
 16 17  1  0
 17 18  2  0
 17 19  1  0
 19 20  1  0
 20 21  1  0
 20 22  1  0
 22 23  2  0
 23 24  1  0
 24 25  2  0
 25 26  1  0
 26 27  1  0
 26 28  1  0
 26 29  1  0
 25 30  1  0
 30 31  2  0
 16 32  2  0
  5 33  1  0
 33  2  1  0
 32  6  1  0
 14 10  1  0
 31 22  1  0
  1 34  1  0
  1 35  1  0
  1 36  1  0
  3 37  1  0
  7 38  1  0
 10 39  1  1
 11 40  1  0
 11 41  1  0
 12 42  1  0
 12 43  1  0
 14 44  1  0
 14 45  1  0
 15 46  1  0
 19 47  1  0
 20 48  1  1
 21 49  1  0
 21 50  1  0
 21 51  1  0
 23 52  1  0
 31 53  1  0
 32 54  1  0
M  END
$$$$
