@<TRIPOS>MOLECULE
*****
 54 57 0 0 0
SMALL
GASTEIGER

@<TRIPOS>ATOM
      1 C          -3.7041    6.3721    0.2663 C.3     1  UNL1       -0.0319
      2 C          -2.8439    5.2055    0.4034 C.ar    1  UNL1        0.0068
      3 C          -1.5753    4.9718    0.8081 C.ar    1  UNL1        0.0383
      4 N          -1.1785    3.7160    0.7736 N.ar    1  UNL1       -0.2471
      5 C          -1.7486    2.7776    0.4498 C.ar    1  UNL1        0.1086
      6 C          -1.6072    1.3292    0.3012 C.ar    1  UNL1        0.0113
      7 C          -2.6287    0.5422   -0.1574 C.ar    1  UNL1       -0.0102
      8 C          -2.5061   -0.8523   -0.3051 C.ar    1  UNL1        0.1224
      9 O          -3.6023   -1.5102   -0.7718 O.3     1  UNL1       -0.4864
     10 C          -3.6661   -2.8838   -0.9802 C.3     1  UNL1        0.1254
     11 C          -4.8631   -3.5077   -0.2473 C.3     1  UNL1        0.0099
     12 C          -5.8460   -3.6772   -1.3849 C.3     1  UNL1        0.0512
     13 O          -4.9912   -4.1047   -2.4139 O.3     1  UNL1       -0.3760
     14 C          -4.0640   -3.0929   -2.4500 C.3     1  UNL1        0.0846
     15 C          -1.3047   -1.4337    0.0291 C.ar    1  UNL1       -0.0078
     16 C          -0.2544   -0.6564    0.4963 C.ar    1  UNL1        0.0408
     17 C           1.0090   -1.2801    0.8456 C.2     1  UNL1        0.2447
     18 O           1.1281   -2.5410    0.7173 O.2     1  UNL1       -0.2702
     19 N           2.1331   -0.5960    1.3224 N.am    1  UNL1       -0.3047
     20 C           3.3878   -1.2568    1.6635 C.3     1  UNL1        0.0487
     21 C           3.6545   -0.9686    3.1254 C.3     1  UNL1       -0.0423
     22 C           4.4470   -0.6910    0.7812 C.ar    1  UNL1        0.0087
     23 C           5.3479   -1.5564    0.1642 C.ar    1  UNL1        0.0363
     24 N           6.2941   -1.0326   -0.6258 N.ar    1  UNL1       -0.2321
     25 C           6.3850    0.2911   -0.8279 C.ar    1  UNL1        0.2339
     26 C           7.4576    0.8349   -1.7187 C.3     1  UNL1        0.4522
     27 F           8.1498    1.8459   -1.0451 F       1  UNL1       -0.1632
     28 F           8.3788   -0.1670   -1.9659 F       1  UNL1       -0.1632
     29 F           6.9218    1.3412   -2.8816 F       1  UNL1       -0.1632
     30 N           5.5185    1.1190   -0.2339 N.ar    1  UNL1       -0.2321
     31 C           4.5475    0.6681    0.5682 C.ar    1  UNL1        0.0363
     32 C          -0.4220    0.7028    0.6237 C.ar    1  UNL1       -0.0397
     33 S          -3.4018    3.5744   -0.0105 S.2     1  UNL1       -0.0725
     34 H          -3.4085    7.1758    0.9640 H       1  UNL1        0.0283
     35 H          -3.6699    6.7001   -0.8055 H       1  UNL1        0.0283
     36 H          -4.7635    6.0900    0.4633 H       1  UNL1        0.0283
     37 H          -0.9211    5.7935    1.1449 H       1  UNL1        0.0838
     38 H          -3.5815    1.0182   -0.4204 H       1  UNL1        0.0661
     39 H          -2.7558   -3.4509   -0.7435 H       1  UNL1        0.0757
     40 H          -4.5294   -4.4818    0.1593 H       1  UNL1        0.0324
     41 H          -5.2398   -2.8094    0.5270 H       1  UNL1        0.0324
     42 H          -6.6128   -4.4565   -1.1585 H       1  UNL1        0.0561
     43 H          -6.2766   -2.6993   -1.6160 H       1  UNL1        0.0561
     44 H          -4.4470   -2.1570   -2.8932 H       1  UNL1        0.0597
     45 H          -3.1202   -3.3590   -2.9744 H       1  UNL1        0.0597
     46 H          -1.1701   -2.5003   -0.0697 H       1  UNL1        0.0662
     47 H           2.0934    0.4315    1.4470 H       1  UNL1        0.1496
     48 H           3.3095   -2.3482    1.4971 H       1  UNL1        0.0546
     49 H           3.2073    0.0285    3.3881 H       1  UNL1        0.0251
     50 H           3.1452   -1.7153    3.7670 H       1  UNL1        0.0251
     51 H           4.7339   -0.8736    3.3245 H       1  UNL1        0.0251
     52 H           5.2324   -2.6095    0.3587 H       1  UNL1        0.0834
     53 H           3.8575    1.3654    1.0376 H       1  UNL1        0.0834
     54 H           0.3646    1.3742    0.9858 H       1  UNL1        0.0632
@<TRIPOS>BOND
     1     1     2    1
     2     2     3   ar
     3     3     4   ar
     4     4     5   ar
     5     5     6    1
     6     6     7   ar
     7     7     8   ar
     8     8     9    1
     9     9    10    1
    10    10    11    1
    11    11    12    1
    12    12    13    1
    13    13    14    1
    14     8    15   ar
    15    15    16   ar
    16    16    17    1
    17    17    18    2
    18    17    19   am
    19    19    20    1
    20    20    21    1
    21    20    22    1
    22    22    23   ar
    23    23    24   ar
    24    24    25   ar
    25    25    26    1
    26    26    27    1
    27    26    28    1
    28    26    29    1
    29    25    30   ar
    30    30    31   ar
    31    16    32   ar
    32     5    33   ar
    33    33     2   ar
    34    32     6   ar
    35    14    10    1
    36    31    22   ar
    37     1    34    1
    38     1    35    1
    39     1    36    1
    40     3    37    1
    41     7    38    1
    42    10    39    1
    43    11    40    1
    44    11    41    1
    45    12    42    1
    46    12    43    1
    47    14    44    1
    48    14    45    1
    49    15    46    1
    50    19    47    1
    51    20    48    1
    52    21    49    1
    53    21    50    1
    54    21    51    1
    55    23    52    1
    56    31    53    1
    57    32    54    1
