
     RDKit          3D

 39 40  0  0  0  0  0  0  0  0999 V2000
   -1.9203    0.5636   -3.5904 C   0  0  0  0  0  0  0  0  0  0  0  0
   -2.4515    0.8081   -2.3107 O   0  0  0  0  0  0  0  0  0  0  0  0
   -1.9140    0.3752   -1.1361 C   0  0  0  0  0  0  0  0  0  0  0  0
   -0.7440   -0.3719   -1.1801 C   0  0  0  0  0  0  0  0  0  0  0  0
   -0.1288   -0.8502   -0.0566 C   0  0  0  0  0  0  0  0  0  0  0  0
    1.1203   -1.6479   -0.0535 C   0  0  0  0  0  0  0  0  0  0  0  0
    2.3492   -0.8884    0.1514 C   0  0  0  0  0  0  0  0  0  0  0  0
    2.9650   -0.8545    1.3864 C   0  0  0  0  0  0  0  0  0  0  0  0
    4.0907   -0.1412    1.5668 N   0  0  0  0  0  0  0  0  0  0  0  0
    4.6694    0.5651    0.5766 C   0  0  0  0  0  0  0  0  0  0  0  0
    5.8625    1.3207    0.7681 N   0  0  0  0  0  0  0  0  0  0  0  0
    4.0824    0.5408   -0.6279 N   0  0  0  0  0  0  0  0  0  0  0  0
    2.9331   -0.1734   -0.8583 C   0  0  0  0  0  0  0  0  0  0  0  0
    2.3846   -0.1544   -2.1659 N   0  0  0  0  0  0  0  0  0  0  0  0
   -0.7524   -0.5415    1.1588 C   0  0  0  0  0  0  0  0  0  0  0  0
   -1.9099    0.1957    1.2201 C   0  0  0  0  0  0  0  0  0  0  0  0
   -2.5091    0.4874    2.4449 O   0  0  0  0  0  0  0  0  0  0  0  0
   -1.8826   -0.0091    3.6212 C   0  0  0  0  0  0  0  0  0  0  0  0
   -2.5196    0.6741    0.0588 C   0  0  0  0  0  0  0  0  0  0  0  0
   -3.6741    1.4051    0.1884 O   0  0  0  0  0  0  0  0  0  0  0  0
   -4.9167    0.7594    0.1726 C   0  0  0  0  0  0  0  0  0  0  0  0
   -2.0234   -0.5379   -3.7560 H   0  0  0  0  0  0  0  0  0  0  0  0
   -0.8423    0.7930   -3.6763 H   0  0  0  0  0  0  0  0  0  0  0  0
   -2.4483    1.0886   -4.3917 H   0  0  0  0  0  0  0  0  0  0  0  0
   -0.3125   -0.5879   -2.1601 H   0  0  0  0  0  0  0  0  0  0  0  0
    1.1583   -2.2954   -0.9626 H   0  0  0  0  0  0  0  0  0  0  0  0
    1.0517   -2.3982    0.7901 H   0  0  0  0  0  0  0  0  0  0  0  0
    2.4829   -1.4331    2.1806 H   0  0  0  0  0  0  0  0  0  0  0  0
    6.7440    1.1467    0.2230 H   0  0  0  0  0  0  0  0  0  0  0  0
    5.9152    2.0933    1.4698 H   0  0  0  0  0  0  0  0  0  0  0  0
    2.4004   -1.0403   -2.7252 H   0  0  0  0  0  0  0  0  0  0  0  0
    1.9727    0.6760   -2.5997 H   0  0  0  0  0  0  0  0  0  0  0  0
   -0.2649   -0.9204    2.0448 H   0  0  0  0  0  0  0  0  0  0  0  0
   -2.5136    0.1530    4.5163 H   0  0  0  0  0  0  0  0  0  0  0  0
   -0.9170    0.5079    3.7680 H   0  0  0  0  0  0  0  0  0  0  0  0
   -1.7327   -1.1031    3.5078 H   0  0  0  0  0  0  0  0  0  0  0  0
   -5.6543    1.3582   -0.4361 H   0  0  0  0  0  0  0  0  0  0  0  0
   -4.8695   -0.2267   -0.3355 H   0  0  0  0  0  0  0  0  0  0  0  0
   -5.2808    0.6637    1.2080 H   0  0  0  0  0  0  0  0  0  0  0  0
  1  2  1  0
  2  3  1  0
  3  4  2  0
  4  5  1  0
  5  6  1  0
  6  7  1  0
  7  8  2  0
  8  9  1  0
  9 10  2  0
 10 11  1  0
 10 12  1  0
 12 13  2  0
 13 14  1  0
  5 15  2  0
 15 16  1  0
 16 17  1  0
 17 18  1  0
 16 19  2  0
 19 20  1  0
 20 21  1  0
 19  3  1  0
 13  7  1  0
  1 22  1  0
  1 23  1  0
  1 24  1  0
  4 25  1  0
  6 26  1  0
  6 27  1  0
  8 28  1  0
 11 29  1  0
 11 30  1  0
 14 31  1  0
 14 32  1  0
 15 33  1  0
 18 34  1  0
 18 35  1  0
 18 36  1  0
 21 37  1  0
 21 38  1  0
 21 39  1  0
M  END
$$$$
