@<TRIPOS>MOLECULE
*****
 39 40 0 0 0
SMALL
GASTEIGER

@<TRIPOS>ATOM
      1 C          -1.9203    0.5636   -3.5904 C.3     1  UNL1        0.0790
      2 O          -2.4515    0.8081   -2.3107 O.3     1  UNL1       -0.4913
      3 C          -1.9140    0.3752   -1.1361 C.ar    1  UNL1        0.1654
      4 C          -0.7440   -0.3719   -1.1801 C.ar    1  UNL1       -0.0126
      5 C          -0.1288   -0.8502   -0.0566 C.ar    1  UNL1       -0.0358
      6 C           1.1203   -1.6479   -0.0535 C.3     1  UNL1        0.0025
      7 C           2.3492   -0.8884    0.1514 C.ar    1  UNL1        0.0146
      8 C           2.9650   -0.8545    1.3864 C.ar    1  UNL1        0.0379
      9 N           4.0907   -0.1412    1.5668 N.ar    1  UNL1       -0.2227
     10 C           4.6694    0.5651    0.5766 C.ar    1  UNL1        0.2142
     11 N           5.8625    1.3207    0.7681 N.pl3   1  UNL1       -0.3274
     12 N           4.0824    0.5408   -0.6279 N.ar    1  UNL1       -0.1999
     13 C           2.9331   -0.1734   -0.8583 C.ar    1  UNL1        0.1247
     14 N           2.3846   -0.1544   -2.1659 N.pl3   1  UNL1       -0.3428
     15 C          -0.7524   -0.5415    1.1588 C.ar    1  UNL1       -0.0126
     16 C          -1.9099    0.1957    1.2201 C.ar    1  UNL1        0.1654
     17 O          -2.5091    0.4874    2.4449 O.3     1  UNL1       -0.4913
     18 C          -1.8826   -0.0091    3.6212 C.3     1  UNL1        0.0790
     19 C          -2.5196    0.6741    0.0588 C.ar    1  UNL1        0.2035
     20 O          -3.6741    1.4051    0.1884 O.3     1  UNL1       -0.4885
     21 C          -4.9167    0.7594    0.1726 C.3     1  UNL1        0.0791
     22 H          -2.0234   -0.5379   -3.7560 H       1  UNL1        0.0660
     23 H          -0.8423    0.7930   -3.6763 H       1  UNL1        0.0660
     24 H          -2.4483    1.0886   -4.3917 H       1  UNL1        0.0660
     25 H          -0.3125   -0.5879   -2.1601 H       1  UNL1        0.0658
     26 H           1.1583   -2.2954   -0.9626 H       1  UNL1        0.0363
     27 H           1.0517   -2.3982    0.7901 H       1  UNL1        0.0363
     28 H           2.4829   -1.4331    2.1806 H       1  UNL1        0.0834
     29 H           6.7440    1.1467    0.2230 H       1  UNL1        0.1452
     30 H           5.9152    2.0933    1.4698 H       1  UNL1        0.1452
     31 H           2.4004   -1.0403   -2.7252 H       1  UNL1        0.1437
     32 H           1.9727    0.6760   -2.5997 H       1  UNL1        0.1437
     33 H          -0.2649   -0.9204    2.0448 H       1  UNL1        0.0658
     34 H          -2.5136    0.1530    4.5163 H       1  UNL1        0.0660
     35 H          -0.9170    0.5079    3.7680 H       1  UNL1        0.0660
     36 H          -1.7327   -1.1031    3.5078 H       1  UNL1        0.0660
     37 H          -5.6543    1.3582   -0.4361 H       1  UNL1        0.0660
     38 H          -4.8695   -0.2267   -0.3355 H       1  UNL1        0.0660
     39 H          -5.2808    0.6637    1.2080 H       1  UNL1        0.0660
@<TRIPOS>BOND
     1     1     2    1
     2     2     3    1
     3     3     4   ar
     4     4     5   ar
     5     5     6    1
     6     6     7    1
     7     7     8   ar
     8     8     9   ar
     9     9    10   ar
    10    10    11    1
    11    10    12   ar
    12    12    13   ar
    13    13    14    1
    14     5    15   ar
    15    15    16   ar
    16    16    17    1
    17    17    18    1
    18    16    19   ar
    19    19    20    1
    20    20    21    1
    21    19     3   ar
    22    13     7   ar
    23     1    22    1
    24     1    23    1
    25     1    24    1
    26     4    25    1
    27     6    26    1
    28     6    27    1
    29     8    28    1
    30    11    29    1
    31    11    30    1
    32    14    31    1
    33    14    32    1
    34    15    33    1
    35    18    34    1
    36    18    35    1
    37    18    36    1
    38    21    37    1
    39    21    38    1
    40    21    39    1
