@<TRIPOS>MOLECULE
*****
 59 62 0 0 0
SMALL
GASTEIGER

@<TRIPOS>ATOM
      1 C          -1.5885   -3.1109   -2.4052 C.3     1  UNL1        0.0790
      2 O          -0.7180   -2.3642   -1.5360 O.3     1  UNL1       -0.4913
      3 C          -1.1440   -1.0845   -1.2289 C.ar    1  UNL1        0.1654
      4 C          -2.3035   -0.5276   -1.6930 C.ar    1  UNL1       -0.0126
      5 C          -2.7183    0.7451   -1.3865 C.ar    1  UNL1       -0.0358
      6 C          -3.9709    1.2385   -1.9581 C.3     1  UNL1        0.0025
      7 C          -5.1340    1.2563   -1.0861 C.ar    1  UNL1        0.0146
      8 C          -5.5551    2.4720   -0.5183 C.ar    1  UNL1        0.0379
      9 N          -6.6214    2.5163    0.2897 N.ar    1  UNL1       -0.2227
     10 C          -7.3498    1.4078    0.6052 C.ar    1  UNL1        0.2142
     11 N          -8.4790    1.5082    1.4721 N.pl3   1  UNL1       -0.3274
     12 N          -6.9548    0.2494    0.0696 N.ar    1  UNL1       -0.1999
     13 C          -5.8736    0.1517   -0.7607 C.ar    1  UNL1        0.1247
     14 N          -5.5351   -1.1365   -1.2870 N.pl3   1  UNL1       -0.3428
     15 C          -1.9174    1.5155   -0.5560 C.ar    1  UNL1       -0.0126
     16 C          -0.7224    0.9711   -0.0635 C.ar    1  UNL1        0.1654
     17 O           0.0290    1.7831    0.7600 O.3     1  UNL1       -0.4913
     18 C          -0.3403    3.0845    1.1107 C.3     1  UNL1        0.0790
     19 C          -0.3400   -0.2990   -0.3906 C.ar    1  UNL1        0.2038
     20 O           0.8243   -0.9078    0.0534 O.3     1  UNL1       -0.4852
     21 C           2.0269   -0.9265   -0.6385 C.3     1  UNL1        0.0914
     22 C           2.7389    0.3519   -0.8648 C.3     1  UNL1       -0.0023
     23 C           3.3000    1.0135    0.3617 C.3     1  UNL1        0.0260
     24 N           4.3117    0.1874    1.0002 N.am    1  UNL1       -0.2340
     25 C           4.2273   -0.8095    1.9960 C.2     1  UNL1        0.2538
     26 O           3.1599   -1.1789    2.5402 O.2     1  UNL1       -0.2695
     27 C           5.5728   -1.3533    2.3030 C.ar    1  UNL1        0.0494
     28 C           5.9958   -2.3302    3.1937 C.ar    1  UNL1       -0.0489
     29 C           7.3297   -2.6394    3.2717 C.ar    1  UNL1       -0.0610
     30 C           8.2108   -1.9691    2.4614 C.ar    1  UNL1       -0.0610
     31 C           7.7897   -1.0010    1.5791 C.ar    1  UNL1       -0.0489
     32 C           6.4340   -0.6706    1.4840 C.ar    1  UNL1        0.0494
     33 C           5.6881    0.2759    0.6782 C.2     1  UNL1        0.2538
     34 O           6.2256    1.0509   -0.1774 O.2     1  UNL1       -0.2695
     35 H          -2.5812   -3.2657   -1.9663 H       1  UNL1        0.0660
     36 H          -1.7104   -2.5762   -3.3545 H       1  UNL1        0.0660
     37 H          -1.1124   -4.0912   -2.6093 H       1  UNL1        0.0660
     38 H          -2.9097   -1.1698   -2.3485 H       1  UNL1        0.0658
     39 H          -3.7334    2.2691   -2.3701 H       1  UNL1        0.0363
     40 H          -4.1781    0.6479   -2.8974 H       1  UNL1        0.0363
     41 H          -4.9645    3.3463   -0.7818 H       1  UNL1        0.0834
     42 H          -8.6384    2.3157    2.1060 H       1  UNL1        0.1452
     43 H          -9.1914    0.7526    1.4927 H       1  UNL1        0.1452
     44 H          -5.5610   -1.9319   -0.6098 H       1  UNL1        0.1437
     45 H          -5.2941   -1.1944   -2.2928 H       1  UNL1        0.1437
     46 H          -2.2581    2.5053   -0.3294 H       1  UNL1        0.0658
     47 H          -1.2773    3.0873    1.7229 H       1  UNL1        0.0660
     48 H           0.4883    3.5592    1.6680 H       1  UNL1        0.0660
     49 H          -0.5316    3.6513    0.1619 H       1  UNL1        0.0660
     50 H           2.6667   -1.6969   -0.1278 H       1  UNL1        0.0697
     51 H           1.7808   -1.3341   -1.6686 H       1  UNL1        0.0697
     52 H           1.9648    1.0790   -1.2637 H       1  UNL1        0.0313
     53 H           3.4747    0.2373   -1.6713 H       1  UNL1        0.0313
     54 H           2.4995    1.2734    1.0658 H       1  UNL1        0.0471
     55 H           3.7805    1.9671    0.0683 H       1  UNL1        0.0471
     56 H           5.2588   -2.8167    3.8006 H       1  UNL1        0.0625
     57 H           7.7025   -3.4132    3.9721 H       1  UNL1        0.0618
     58 H           9.2795   -2.2207    2.5283 H       1  UNL1        0.0618
     59 H           8.4472   -0.4508    0.9218 H       1  UNL1        0.0625
@<TRIPOS>BOND
     1     1     2    1
     2     2     3    1
     3     3     4   ar
     4     4     5   ar
     5     5     6    1
     6     6     7    1
     7     7     8   ar
     8     8     9   ar
     9     9    10   ar
    10    10    11    1
    11    10    12   ar
    12    12    13   ar
    13    13    14    1
    14     5    15   ar
    15    15    16   ar
    16    16    17    1
    17    17    18    1
    18    16    19   ar
    19    19    20    1
    20    20    21    1
    21    21    22    1
    22    22    23    1
    23    23    24    1
    24    24    25   am
    25    25    26    2
    26    25    27    1
    27    27    28   ar
    28    28    29   ar
    29    29    30   ar
    30    30    31   ar
    31    31    32   ar
    32    32    33    1
    33    33    34    2
    34    19     3   ar
    35    33    24   am
    36    13     7   ar
    37    32    27   ar
    38     1    35    1
    39     1    36    1
    40     1    37    1
    41     4    38    1
    42     6    39    1
    43     6    40    1
    44     8    41    1
    45    11    42    1
    46    11    43    1
    47    14    44    1
    48    14    45    1
    49    15    46    1
    50    18    47    1
    51    18    48    1
    52    18    49    1
    53    21    50    1
    54    21    51    1
    55    22    52    1
    56    22    53    1
    57    23    54    1
    58    23    55    1
    59    28    56    1
    60    29    57    1
    61    30    58    1
    62    31    59    1
