@<TRIPOS>MOLECULE
*****
 89 93 0 0 0
SMALL
GASTEIGER

@<TRIPOS>ATOM
      1 C          -4.1183   -4.7052   -0.6855 C.3     1  UNL1       -0.0653
      2 C          -5.0000   -3.5280   -0.9852 C.3     1  UNL1       -0.0559
      3 C          -5.0571   -2.5325    0.1431 C.3     1  UNL1       -0.0529
      4 C          -3.7266   -1.9699    0.5046 C.3     1  UNL1       -0.0451
      5 C          -2.9868   -1.2787   -0.6033 C.3     1  UNL1        0.0150
      6 C          -3.7615   -0.1100   -1.1097 C.3     1  UNL1        0.0243
      7 N          -3.5567    1.0889   -0.2893 N.am    1  UNL1       -0.2668
      8 C          -4.0920    2.3347   -0.6940 C.3     1  UNL1        0.0208
      9 C          -5.4687    2.6988   -0.3097 C.3     1  UNL1       -0.0210
     10 C          -5.7593    2.7443    1.1597 C.3     1  UNL1       -0.0251
     11 C          -7.1914    3.2883    1.2731 C.3     1  UNL1        0.0480
     12 O          -8.0278    2.2763    0.8673 O.3     1  UNL1       -0.3797
     13 C          -7.4878    1.3593   -0.0030 C.3     1  UNL1        0.0480
     14 C          -6.5854    2.0276   -1.0261 C.3     1  UNL1       -0.0251
     15 C          -2.8088    0.9319    0.9203 C.2     1  UNL1        0.4034
     16 O          -3.0067    1.7357    1.8477 O.2     1  UNL1       -0.2262
     17 O          -1.8666   -0.1070    1.0667 O.3     1  UNL1       -0.4433
     18 C          -1.6105   -0.8811   -0.0885 C.3     1  UNL1        0.1217
     19 C          -0.7752   -2.0890    0.1311 C.3     1  UNL1        0.0004
     20 C           0.5544   -1.6695    0.7204 C.3     1  UNL1        0.0030
     21 N           1.1926   -0.7926   -0.2199 N.3     1  UNL1       -0.2966
     22 C           2.6002   -0.7917   -0.1355 C.3     1  UNL1        0.0220
     23 C           3.0499   -2.2166   -0.4375 C.3     1  UNL1       -0.0465
     24 C           3.2930    0.2021   -0.9654 C.3     1  UNL1       -0.0188
     25 C           4.8233    0.0765   -0.8802 C.3     1  UNL1        0.0166
     26 N           5.3200   -0.0118    0.4555 N.am    1  UNL1       -0.2973
     27 C           6.5456    0.5132    0.9372 C.2     1  UNL1        0.2501
     28 O           6.7659    0.3208    2.2084 O.2     1  UNL1       -0.2699
     29 C           7.5656    1.2143    0.2164 C.ar    1  UNL1        0.0788
     30 C           8.7646    0.5289   -0.0395 C.ar    1  UNL1        0.0538
     31 C           8.9160   -0.8964    0.3961 C.3     1  UNL1       -0.0215
     32 N           9.7297    1.1949   -0.6735 N.ar    1  UNL1       -0.2398
     33 C           9.5697    2.4852   -1.0616 C.ar    1  UNL1        0.1165
     34 N           8.4225    3.1240   -0.8120 N.ar    1  UNL1       -0.2398
     35 C           7.3962    2.5191   -0.1738 C.ar    1  UNL1        0.0538
     36 C           6.1543    3.3042    0.0699 C.3     1  UNL1       -0.0215
     37 C           4.5095   -0.7354    1.4356 C.3     1  UNL1        0.0166
     38 C           3.0486   -0.5196    1.3158 C.3     1  UNL1       -0.0188
     39 C           0.4674    0.3610   -0.5285 C.3     1  UNL1        0.0030
     40 C          -0.8790   -0.0233   -1.1043 C.3     1  UNL1        0.0004
     41 H          -4.5673   -5.6029   -1.1547 H       1  UNL1        0.0230
     42 H          -3.1159   -4.5997   -1.2082 H       1  UNL1        0.0230
     43 H          -3.9843   -4.9242    0.3833 H       1  UNL1        0.0230
     44 H          -6.0229   -3.9225   -1.1999 H       1  UNL1        0.0263
     45 H          -4.6372   -3.0691   -1.9330 H       1  UNL1        0.0263
     46 H          -5.7897   -1.7561   -0.0896 H       1  UNL1        0.0265
     47 H          -5.5088   -3.1072    1.0135 H       1  UNL1        0.0265
     48 H          -3.9419   -1.1929    1.3097 H       1  UNL1        0.0270
     49 H          -3.1084   -2.7120    1.0705 H       1  UNL1        0.0270
     50 H          -2.8740   -1.9769   -1.4895 H       1  UNL1        0.0355
     51 H          -3.4735    0.1446   -2.1762 H       1  UNL1        0.0469
     52 H          -4.8302   -0.3847   -1.1202 H       1  UNL1        0.0469
     53 H          -4.0507    2.3736   -1.8179 H       1  UNL1        0.0468
     54 H          -3.4282    3.2101   -0.3923 H       1  UNL1        0.0468
     55 H          -5.5544    3.8051   -0.6244 H       1  UNL1        0.0317
     56 H          -5.1003    3.4936    1.6387 H       1  UNL1        0.0290
     57 H          -5.7290    1.7487    1.6473 H       1  UNL1        0.0290
     58 H          -7.4211    3.6502    2.2954 H       1  UNL1        0.0560
     59 H          -7.3223    4.1392    0.5636 H       1  UNL1        0.0560
     60 H          -8.3638    0.9821   -0.6147 H       1  UNL1        0.0560
     61 H          -7.0161    0.4938    0.4843 H       1  UNL1        0.0560
     62 H          -6.2867    1.3493   -1.8465 H       1  UNL1        0.0290
     63 H          -7.2719    2.7667   -1.5415 H       1  UNL1        0.0290
     64 H          -1.2242   -2.9238    0.6720 H       1  UNL1        0.0316
     65 H          -0.5342   -2.4954   -0.8926 H       1  UNL1        0.0316
     66 H           0.3881   -1.2390    1.7089 H       1  UNL1        0.0428
     67 H           1.1735   -2.5764    0.8202 H       1  UNL1        0.0428
     68 H           2.2841   -2.7043   -1.0819 H       1  UNL1        0.0247
     69 H           3.9972   -2.2727   -0.9948 H       1  UNL1        0.0247
     70 H           3.2047   -2.7653    0.5105 H       1  UNL1        0.0247
     71 H           3.0827    1.2299   -0.5590 H       1  UNL1        0.0298
     72 H           3.0416    0.1383   -2.0422 H       1  UNL1        0.0298
     73 H           5.1998    1.0149   -1.3364 H       1  UNL1        0.0465
     74 H           5.1814   -0.7287   -1.5550 H       1  UNL1        0.0465
     75 H           8.0790   -1.4831    0.0079 H       1  UNL1        0.0293
     76 H           9.9045   -1.2832    0.0825 H       1  UNL1        0.0293
     77 H           8.9196   -0.9155    1.5141 H       1  UNL1        0.0293
     78 H          10.4011    2.9459   -1.5626 H       1  UNL1        0.1047
     79 H           5.4665    2.7537    0.7412 H       1  UNL1        0.0293
     80 H           5.5986    3.4602   -0.8960 H       1  UNL1        0.0293
     81 H           6.4373    4.2739    0.5436 H       1  UNL1        0.0293
     82 H           4.7520   -1.7967    1.3301 H       1  UNL1        0.0465
     83 H           4.8115   -0.4561    2.4762 H       1  UNL1        0.0465
     84 H           2.6849    0.4694    1.6530 H       1  UNL1        0.0298
     85 H           2.5325   -1.3209    1.9047 H       1  UNL1        0.0298
     86 H           0.9986    1.0769   -1.1655 H       1  UNL1        0.0428
     87 H           0.2309    0.9006    0.4387 H       1  UNL1        0.0428
     88 H          -1.4015    0.9006   -1.3589 H       1  UNL1        0.0316
     89 H          -0.7343   -0.5838   -2.0440 H       1  UNL1        0.0316
@<TRIPOS>BOND
     1     1     2    1
     2     2     3    1
     3     3     4    1
     4     4     5    1
     5     5     6    1
     6     6     7    1
     7     7     8    1
     8     8     9    1
     9     9    10    1
    10    10    11    1
    11    11    12    1
    12    12    13    1
    13    13    14    1
    14     7    15   am
    15    15    16    2
    16    15    17    1
    17    17    18    1
    18    18    19    1
    19    19    20    1
    20    20    21    1
    21    21    22    1
    22    22    23    1
    23    22    24    1
    24    24    25    1
    25    25    26    1
    26    26    27   am
    27    27    28    2
    28    27    29    1
    29    29    30   ar
    30    30    31    1
    31    30    32   ar
    32    32    33   ar
    33    33    34   ar
    34    34    35   ar
    35    35    36    1
    36    26    37    1
    37    37    38    1
    38    21    39    1
    39    39    40    1
    40    18     5    1
    41    38    22    1
    42    14     9    1
    43    40    18    1
    44    35    29   ar
    45     1    41    1
    46     1    42    1
    47     1    43    1
    48     2    44    1
    49     2    45    1
    50     3    46    1
    51     3    47    1
    52     4    48    1
    53     4    49    1
    54     5    50    1
    55     6    51    1
    56     6    52    1
    57     8    53    1
    58     8    54    1
    59     9    55    1
    60    10    56    1
    61    10    57    1
    62    11    58    1
    63    11    59    1
    64    13    60    1
    65    13    61    1
    66    14    62    1
    67    14    63    1
    68    19    64    1
    69    19    65    1
    70    20    66    1
    71    20    67    1
    72    23    68    1
    73    23    69    1
    74    23    70    1
    75    24    71    1
    76    24    72    1
    77    25    73    1
    78    25    74    1
    79    31    75    1
    80    31    76    1
    81    31    77    1
    82    33    78    1
    83    36    79    1
    84    36    80    1
    85    36    81    1
    86    37    82    1
    87    37    83    1
    88    38    84    1
    89    38    85    1
    90    39    86    1
    91    39    87    1
    92    40    88    1
    93    40    89    1
