@<TRIPOS>MOLECULE
*****
 63 67 0 0 0
SMALL
GASTEIGER

@<TRIPOS>ATOM
      1 C          -7.1985    1.4185    1.6424 C.3     1  UNL1        0.0029
      2 N          -7.6746    0.5985    0.5765 N.am    1  UNL1       -0.3064
      3 C          -9.0929    0.5718    0.3165 C.3     1  UNL1        0.0029
      4 C          -6.8051   -0.1695   -0.2108 C.2     1  UNL1        0.2319
      5 O          -7.2712   -0.8862   -1.1289 O.2     1  UNL1       -0.2741
      6 C          -5.3327   -0.1910   -0.0245 C.3     1  UNL1        0.1054
      7 C          -4.5381    1.0708   -0.2533 C.3     1  UNL1       -0.0220
      8 C          -4.4291   -0.1111   -1.1512 C.3     1  UNL1        0.0134
      9 C          -3.2298   -0.9765   -1.2468 C.3     1  UNL1        0.0935
     10 C          -3.6933   -2.2227   -2.0435 C.3     1  UNL1       -0.0351
     11 C          -2.0859   -0.3322   -1.9861 C.ar    1  UNL1        0.0158
     12 C          -0.7973   -0.3762   -1.4409 C.ar    1  UNL1       -0.0463
     13 C           0.2758    0.1918   -2.0883 C.ar    1  UNL1       -0.0217
     14 C           1.6233    0.1555   -1.5423 C.2     1  UNL1       -0.0171
     15 C           1.9049    0.3253   -0.2712 C.2     1  UNL1        0.1507
     16 F           0.9635    0.5533    0.6633 F       1  UNL1       -0.2032
     17 C           3.2958    0.2716    0.1892 C.ar    1  UNL1        0.1172
     18 C           3.6464    0.4580    1.4969 C.ar    1  UNL1        0.0596
     19 N           4.9393    0.3918    1.8441 N.ar    1  UNL1       -0.2178
     20 C           5.9043    0.1472    0.9450 C.ar    1  UNL1        0.2335
     21 O           7.2585    0.0647    1.2345 O.3     1  UNL1       -0.4749
     22 C           7.7939    0.2291    2.5201 C.3     1  UNL1        0.0983
     23 C           9.3030    0.0462    2.3810 C.3     1  UNL1        0.0400
     24 C           9.9310    1.0364    1.4420 C.3     1  UNL1        0.0557
     25 O           9.6500    0.1394    0.3774 O.3     1  UNL1       -0.3788
     26 C           9.6629   -0.9339    1.2796 C.3     1  UNL1        0.0557
     27 C           5.5533   -0.0438   -0.3908 C.ar    1  UNL1        0.0898
     28 N           4.2643    0.0268   -0.7109 N.ar    1  UNL1       -0.2459
     29 C           0.0887    0.8310   -3.3181 C.ar    1  UNL1       -0.0518
     30 C          -1.1944    0.8752   -3.8598 C.ar    1  UNL1       -0.0255
     31 C          -2.2565    0.2998   -3.1969 C.ar    1  UNL1        0.1289
     32 F          -3.4764    0.3667   -3.7729 F       1  UNL1       -0.2051
     33 N          -2.7187   -1.5346   -0.0583 N.2     1  UNL1       -0.2521
     34 C          -3.1572   -1.6941    1.0957 C.2     1  UNL1        0.1485
     35 N          -2.3967   -2.3151    2.1541 N.pl3   1  UNL1       -0.3380
     36 S          -4.8182   -1.1120    1.4223 S.3     1  UNL1       -0.0746
     37 H          -7.6365    2.4528    1.6167 H       1  UNL1        0.0428
     38 H          -7.5092    1.0020    2.6279 H       1  UNL1        0.0428
     39 H          -6.1041    1.5254    1.5602 H       1  UNL1        0.0428
     40 H          -9.3791   -0.4879    0.1267 H       1  UNL1        0.0428
     41 H          -9.7033    0.9610    1.1601 H       1  UNL1        0.0428
     42 H          -9.3447    1.1437   -0.6041 H       1  UNL1        0.0428
     43 H          -5.1218    1.9676   -0.5698 H       1  UNL1        0.0287
     44 H          -3.7269    1.3458    0.4458 H       1  UNL1        0.0287
     45 H          -4.9796    0.0555   -2.1312 H       1  UNL1        0.0346
     46 H          -3.0343   -3.0647   -1.8741 H       1  UNL1        0.0256
     47 H          -4.6747   -2.4726   -1.5828 H       1  UNL1        0.0256
     48 H          -3.9025   -1.9622   -3.0863 H       1  UNL1        0.0256
     49 H          -0.5868   -0.8522   -0.4972 H       1  UNL1        0.0628
     50 H           2.4440   -0.0301   -2.2602 H       1  UNL1        0.0653
     51 H           2.8537    0.6557    2.2124 H       1  UNL1        0.0853
     52 H           7.6021    1.2829    2.8134 H       1  UNL1        0.0701
     53 H           7.3494   -0.5201    3.1860 H       1  UNL1        0.0701
     54 H           9.8552   -0.0691    3.3136 H       1  UNL1        0.0378
     55 H           9.4378    1.9952    1.3032 H       1  UNL1        0.0564
     56 H          11.0351    1.1302    1.6199 H       1  UNL1        0.0564
     57 H          10.7225   -1.2636    1.4143 H       1  UNL1        0.0564
     58 H           8.9428   -1.7378    1.1066 H       1  UNL1        0.0564
     59 H           6.2912   -0.2451   -1.1632 H       1  UNL1        0.0884
     60 H           0.9203    1.2895   -3.8513 H       1  UNL1        0.0624
     61 H          -1.3782    1.3631   -4.8149 H       1  UNL1        0.0646
     62 H          -1.8856   -1.6774    2.8024 H       1  UNL1        0.1442
     63 H          -2.3793   -3.3598    2.2411 H       1  UNL1        0.1442
@<TRIPOS>BOND
     1     1     2    1
     2     2     3    1
     3     2     4   am
     4     4     5    2
     5     6     4    1
     6     6     7    1
     7     7     8    1
     8     8     9    1
     9     9    10    1
    10     9    11    1
    11    11    12   ar
    12    12    13   ar
    13    13    14    1
    14    14    15    2
    15    15    16    1
    16    15    17    1
    17    17    18   ar
    18    18    19   ar
    19    19    20   ar
    20    20    21    1
    21    21    22    1
    22    22    23    1
    23    23    24    1
    24    24    25    1
    25    25    26    1
    26    20    27   ar
    27    27    28   ar
    28    13    29   ar
    29    29    30   ar
    30    30    31   ar
    31    31    32    1
    32     9    33    1
    33    33    34    2
    34    34    35    1
    35    34    36    1
    36     8     6    1
    37    31    11   ar
    38    36     6    1
    39    28    17   ar
    40    26    23    1
    41     1    37    1
    42     1    38    1
    43     1    39    1
    44     3    40    1
    45     3    41    1
    46     3    42    1
    47     7    43    1
    48     7    44    1
    49     8    45    1
    50    10    46    1
    51    10    47    1
    52    10    48    1
    53    12    49    1
    54    14    50    1
    55    18    51    1
    56    22    52    1
    57    22    53    1
    58    23    54    1
    59    24    55    1
    60    24    56    1
    61    26    57    1
    62    26    58    1
    63    27    59    1
    64    29    60    1
    65    30    61    1
    66    35    62    1
    67    35    63    1
