@<TRIPOS>MOLECULE
*****
 55 58 0 0 0
SMALL
GASTEIGER

@<TRIPOS>ATOM
      1 C           9.5082    0.1721   -1.1905 C.3     1  UNL1        0.0805
      2 O           8.2736    0.5692   -1.7988 O.3     1  UNL1       -0.4786
      3 C           7.0691    0.4202   -1.1045 C.ar    1  UNL1        0.2338
      4 C           5.8868    0.8043   -1.6978 C.ar    1  UNL1        0.0899
      5 N           4.7003    0.6661   -1.0344 N.ar    1  UNL1       -0.2447
      6 C           4.6513    0.1626    0.1896 C.ar    1  UNL1        0.1293
      7 C           3.4291    0.0237    0.8690 C.ar    1  UNL1        0.1506
      8 N           2.2665    0.4229    0.1846 N.pl3   1  UNL1       -0.2977
      9 C           1.0077    0.4033    0.8113 C.ar    1  UNL1        0.0330
     10 C           0.7576    0.4808    2.1555 C.ar    1  UNL1       -0.0378
     11 C          -0.5416    0.4320    2.6830 C.ar    1  UNL1       -0.0243
     12 C          -1.5951    0.3017    1.8047 C.ar    1  UNL1        0.1311
     13 F          -2.8715    0.2465    2.2893 F       1  UNL1       -0.2050
     14 C          -1.3995    0.2199    0.4382 C.ar    1  UNL1        0.0420
     15 C          -2.5628    0.0816   -0.4972 C.3     1  UNL1        0.1959
     16 C          -1.9940   -0.0643   -1.9125 C.3     1  UNL1       -0.0112
     17 C          -3.2997    1.3774   -0.4503 C.3     1  UNL1        0.1183
     18 S          -4.8999    1.1841   -1.1708 S.O2    1  UNL1       -0.0101
     19 O          -4.8534    1.1122   -2.6512 O.2     1  UNL1       -0.1731
     20 O          -5.7100    2.4133   -0.7858 O.2     1  UNL1       -0.1731
     21 C          -5.6229   -0.2553   -0.4382 C.3     1  UNL1        0.1831
     22 C          -6.2450    0.1808    0.8843 C.3     1  UNL1       -0.0288
     23 C          -6.7177   -0.7984   -1.3384 C.3     1  UNL1       -0.0288
     24 C          -4.5667   -1.2654   -0.2046 C.2     1  UNL1        0.3067
     25 N          -5.0271   -2.6004    0.0952 N.pl3   1  UNL1       -0.2488
     26 N          -3.3211   -1.0910   -0.2371 N.2     1  UNL1       -0.0727
     27 C          -0.1088    0.2721   -0.0260 C.ar    1  UNL1       -0.0301
     28 N           3.4347   -0.4890    2.1046 N.ar    1  UNL1       -0.2379
     29 C           4.5466   -0.8839    2.7443 C.ar    1  UNL1        0.0318
     30 C           5.7425   -0.7458    2.0739 C.ar    1  UNL1       -0.0158
     31 C           5.8251   -0.2259    0.7959 C.ar    1  UNL1        0.0978
     32 N           7.0010   -0.0895    0.1399 N.ar    1  UNL1       -0.2099
     33 H           9.2625   -0.7403   -0.5714 H       1  UNL1        0.0660
     34 H           9.8768    0.9207   -0.4625 H       1  UNL1        0.0660
     35 H          10.2517   -0.1605   -1.9206 H       1  UNL1        0.0660
     36 H           5.9183    1.2175   -2.7015 H       1  UNL1        0.0884
     37 H           2.3157    0.7526   -0.8298 H       1  UNL1        0.1536
     38 H           1.5820    0.5937    2.8356 H       1  UNL1        0.0637
     39 H          -0.6596    0.4985    3.7561 H       1  UNL1        0.0647
     40 H          -1.5209    0.8738   -2.2200 H       1  UNL1        0.0279
     41 H          -2.8694   -0.2087   -2.6124 H       1  UNL1        0.0279
     42 H          -1.3741   -0.9657   -1.9811 H       1  UNL1        0.0279
     43 H          -3.4388    1.6735    0.6075 H       1  UNL1        0.0550
     44 H          -2.6970    2.1492   -0.9744 H       1  UNL1        0.0550
     45 H          -5.4331    0.5749    1.5264 H       1  UNL1        0.0256
     46 H          -6.8059   -0.6508    1.3660 H       1  UNL1        0.0256
     47 H          -6.9306    1.0172    0.6764 H       1  UNL1        0.0256
     48 H          -6.4515   -1.7875   -1.7693 H       1  UNL1        0.0256
     49 H          -7.6770   -0.8768   -0.7967 H       1  UNL1        0.0256
     50 H          -6.8802   -0.0840   -2.1657 H       1  UNL1        0.0256
     51 H          -5.3749   -2.7297    1.0888 H       1  UNL1        0.2881
     52 H          -5.0187   -3.3704   -0.6032 H       1  UNL1        0.2881
     53 H           0.0380    0.2054   -1.1139 H       1  UNL1        0.0641
     54 H           4.4675   -1.2824    3.7277 H       1  UNL1        0.0831
     55 H           6.6555   -1.0579    2.5691 H       1  UNL1        0.0655
@<TRIPOS>BOND
     1     1     2    1
     2     2     3    1
     3     3     4   ar
     4     4     5   ar
     5     5     6   ar
     6     6     7   ar
     7     7     8    1
     8     8     9    1
     9     9    10   ar
    10    10    11   ar
    11    11    12   ar
    12    12    13    1
    13    12    14   ar
    14    14    15    1
    15    15    16    1
    16    15    17    1
    17    17    18    1
    18    18    19    2
    19    18    20    2
    20    18    21    1
    21    21    22    1
    22    21    23    1
    23    21    24    1
    24    24    25    1
    25    24    26    2
    26    14    27   ar
    27     7    28   ar
    28    28    29   ar
    29    29    30   ar
    30    30    31   ar
    31    31    32   ar
    32    32     3   ar
    33    31     6   ar
    34    27     9   ar
    35    26    15    1
    36     1    33    1
    37     1    34    1
    38     1    35    1
    39     4    36    1
    40     8    37    1
    41    10    38    1
    42    11    39    1
    43    16    40    1
    44    16    41    1
    45    16    42    1
    46    17    43    1
    47    17    44    1
    48    22    45    1
    49    22    46    1
    50    22    47    1
    51    23    48    1
    52    23    49    1
    53    23    50    1
    54    25    51    1
    55    25    52    1
    56    27    53    1
    57    29    54    1
    58    30    55    1
