@<TRIPOS>MOLECULE
*****
 49 53 0 0 0
SMALL
GASTEIGER

@<TRIPOS>ATOM
      1 O           8.9105   -0.1334   -0.7762 O.2     1  UNL1       -0.2451
      2 C           7.8477    0.4967   -0.9626 C.2     1  UNL1        0.3368
      3 O           7.8665    1.5419   -1.8569 O.3     1  UNL1       -0.4771
      4 C           6.6304    0.1366   -0.2572 C.ar    1  UNL1        0.0589
      5 C           6.5964   -0.9023    0.6361 C.ar    1  UNL1       -0.0460
      6 C           5.4255   -1.2158    1.2904 C.ar    1  UNL1       -0.0397
      7 C           4.2688   -0.5087    1.0734 C.ar    1  UNL1        0.0336
      8 N           3.0672   -0.8163    1.7437 N.pl3   1  UNL1       -0.2836
      9 C           1.8587   -0.1035    1.5198 C.ar    1  UNL1        0.2200
     10 N           1.5585    1.0341    2.1703 N.ar    1  UNL1       -0.2223
     11 C           0.4236    1.7356    2.0003 C.ar    1  UNL1        0.0382
     12 C          -0.5213    1.2841    1.1021 C.ar    1  UNL1        0.0180
     13 C          -0.2075    0.1092    0.4324 C.ar    1  UNL1        0.0816
     14 N           0.9444   -0.5617    0.6348 N.ar    1  UNL1       -0.2139
     15 C          -1.0439   -0.5665   -0.5513 C.ar    1  UNL1        0.0101
     16 C          -0.3531   -1.4612   -1.3349 C.ar    1  UNL1       -0.0505
     17 C          -1.0945   -2.1413   -2.2905 C.ar    1  UNL1       -0.0427
     18 C          -2.4544   -1.9430   -2.4593 C.ar    1  UNL1        0.0416
     19 CL         -3.3237   -2.8513   -3.7013 Cl      1  UNL1       -0.0835
     20 C          -3.1240   -1.0444   -1.6653 C.ar    1  UNL1       -0.0336
     21 C          -2.4112   -0.3577   -0.7109 C.ar    1  UNL1        0.0112
     22 C          -3.2902    0.5411    0.0258 C.2     1  UNL1        0.0792
     23 C          -4.7217    0.2960   -0.0119 C.ar    1  UNL1        0.0708
     24 C          -5.6174    1.0972   -0.6847 C.ar    1  UNL1        0.1353
     25 F          -5.0935    2.1752   -1.3430 F       1  UNL1       -0.2047
     26 C          -6.9766    0.8553   -0.7140 C.ar    1  UNL1       -0.0256
     27 C          -7.4530   -0.2539   -0.0273 C.ar    1  UNL1       -0.0563
     28 C          -6.5748   -1.0582    0.6451 C.ar    1  UNL1       -0.0256
     29 C          -5.2177   -0.7972    0.6611 C.ar    1  UNL1        0.1353
     30 F          -4.4048   -1.6455    1.3546 F       1  UNL1       -0.2047
     31 N          -2.9331    1.5420    0.7173 N.2     1  UNL1       -0.2778
     32 C          -1.6817    2.1686    1.0507 C.3     1  UNL1        0.0688
     33 C           4.2929    0.5323    0.1813 C.ar    1  UNL1       -0.0397
     34 C           5.4582    0.8482   -0.4731 C.ar    1  UNL1       -0.0460
     35 H           8.6831    2.1483   -1.9355 H       1  UNL1        0.2954
     36 H           7.4878   -1.4827    0.8335 H       1  UNL1        0.0626
     37 H           5.3770   -2.0455    2.0107 H       1  UNL1        0.0636
     38 H           3.0594   -1.5972    2.4324 H       1  UNL1        0.1550
     39 H           0.2219    2.6447    2.5422 H       1  UNL1        0.0835
     40 H           0.7005   -1.5898   -1.1751 H       1  UNL1        0.0625
     41 H          -0.5983   -2.8555   -2.9313 H       1  UNL1        0.0632
     42 H          -4.2053   -0.8800   -1.7906 H       1  UNL1        0.0639
     43 H          -7.6376    1.5171   -1.2588 H       1  UNL1        0.0646
     44 H          -8.5249   -0.4304   -0.0601 H       1  UNL1        0.0619
     45 H          -6.9307   -1.9317    1.1884 H       1  UNL1        0.0646
     46 H          -1.4893    2.9183    0.2259 H       1  UNL1        0.0559
     47 H          -1.7245    2.7583    1.9791 H       1  UNL1        0.0559
     48 H           3.4135    1.1197   -0.0265 H       1  UNL1        0.0636
     49 H           5.5159    1.6742   -1.1931 H       1  UNL1        0.0626
@<TRIPOS>BOND
     1     1     2    2
     2     2     3    1
     3     2     4    1
     4     4     5   ar
     5     5     6   ar
     6     6     7   ar
     7     7     8    1
     8     8     9    1
     9     9    10   ar
    10    10    11   ar
    11    11    12   ar
    12    12    13   ar
    13    13    14   ar
    14    13    15    1
    15    15    16   ar
    16    16    17   ar
    17    17    18   ar
    18    18    19    1
    19    18    20   ar
    20    20    21   ar
    21    21    22    1
    22    22    23    1
    23    23    24   ar
    24    24    25    1
    25    24    26   ar
    26    26    27   ar
    27    27    28   ar
    28    28    29   ar
    29    29    30    1
    30    22    31    2
    31    31    32    1
    32     7    33   ar
    33    33    34   ar
    34    34     4   ar
    35    14     9   ar
    36    21    15   ar
    37    29    23   ar
    38    32    12    1
    39     3    35    1
    40     5    36    1
    41     6    37    1
    42     8    38    1
    43    11    39    1
    44    16    40    1
    45    17    41    1
    46    20    42    1
    47    26    43    1
    48    27    44    1
    49    28    45    1
    50    32    46    1
    51    32    47    1
    52    33    48    1
    53    34    49    1
