
     RDKit          3D

 49 53  0  0  0  0  0  0  0  0999 V2000
    8.9105   -0.1334   -0.7762 O   0  0  0  0  0  0  0  0  0  0  0  0
    7.8477    0.4967   -0.9626 C   0  0  0  0  0  0  0  0  0  0  0  0
    7.8665    1.5419   -1.8569 O   0  0  0  0  0  0  0  0  0  0  0  0
    6.6304    0.1366   -0.2572 C   0  0  0  0  0  0  0  0  0  0  0  0
    6.5964   -0.9023    0.6361 C   0  0  0  0  0  0  0  0  0  0  0  0
    5.4255   -1.2158    1.2904 C   0  0  0  0  0  0  0  0  0  0  0  0
    4.2688   -0.5087    1.0734 C   0  0  0  0  0  0  0  0  0  0  0  0
    3.0672   -0.8163    1.7437 N   0  0  0  0  0  0  0  0  0  0  0  0
    1.8587   -0.1035    1.5198 C   0  0  0  0  0  0  0  0  0  0  0  0
    1.5585    1.0341    2.1703 N   0  0  0  0  0  0  0  0  0  0  0  0
    0.4236    1.7356    2.0003 C   0  0  0  0  0  0  0  0  0  0  0  0
   -0.5213    1.2841    1.1021 C   0  0  0  0  0  0  0  0  0  0  0  0
   -0.2075    0.1092    0.4324 C   0  0  0  0  0  0  0  0  0  0  0  0
    0.9444   -0.5617    0.6348 N   0  0  0  0  0  0  0  0  0  0  0  0
   -1.0439   -0.5665   -0.5513 C   0  0  0  0  0  0  0  0  0  0  0  0
   -0.3531   -1.4612   -1.3349 C   0  0  0  0  0  0  0  0  0  0  0  0
   -1.0945   -2.1413   -2.2905 C   0  0  0  0  0  0  0  0  0  0  0  0
   -2.4544   -1.9430   -2.4593 C   0  0  0  0  0  0  0  0  0  0  0  0
   -3.3237   -2.8513   -3.7013 Cl  0  0  0  0  0  0  0  0  0  0  0  0
   -3.1240   -1.0444   -1.6653 C   0  0  0  0  0  0  0  0  0  0  0  0
   -2.4112   -0.3577   -0.7109 C   0  0  0  0  0  0  0  0  0  0  0  0
   -3.2902    0.5411    0.0258 C   0  0  0  0  0  0  0  0  0  0  0  0
   -4.7217    0.2960   -0.0119 C   0  0  0  0  0  0  0  0  0  0  0  0
   -5.6174    1.0972   -0.6847 C   0  0  0  0  0  0  0  0  0  0  0  0
   -5.0935    2.1752   -1.3430 F   0  0  0  0  0  0  0  0  0  0  0  0
   -6.9766    0.8553   -0.7140 C   0  0  0  0  0  0  0  0  0  0  0  0
   -7.4530   -0.2539   -0.0273 C   0  0  0  0  0  0  0  0  0  0  0  0
   -6.5748   -1.0582    0.6451 C   0  0  0  0  0  0  0  0  0  0  0  0
   -5.2177   -0.7972    0.6611 C   0  0  0  0  0  0  0  0  0  0  0  0
   -4.4048   -1.6455    1.3546 F   0  0  0  0  0  0  0  0  0  0  0  0
   -2.9331    1.5420    0.7173 N   0  0  0  0  0  0  0  0  0  0  0  0
   -1.6817    2.1686    1.0507 C   0  0  0  0  0  0  0  0  0  0  0  0
    4.2929    0.5323    0.1813 C   0  0  0  0  0  0  0  0  0  0  0  0
    5.4582    0.8482   -0.4731 C   0  0  0  0  0  0  0  0  0  0  0  0
    8.6831    2.1483   -1.9355 H   0  0  0  0  0  0  0  0  0  0  0  0
    7.4878   -1.4827    0.8335 H   0  0  0  0  0  0  0  0  0  0  0  0
    5.3770   -2.0455    2.0107 H   0  0  0  0  0  0  0  0  0  0  0  0
    3.0594   -1.5972    2.4324 H   0  0  0  0  0  0  0  0  0  0  0  0
    0.2219    2.6447    2.5422 H   0  0  0  0  0  0  0  0  0  0  0  0
    0.7005   -1.5898   -1.1751 H   0  0  0  0  0  0  0  0  0  0  0  0
   -0.5983   -2.8555   -2.9313 H   0  0  0  0  0  0  0  0  0  0  0  0
   -4.2053   -0.8800   -1.7906 H   0  0  0  0  0  0  0  0  0  0  0  0
   -7.6376    1.5171   -1.2588 H   0  0  0  0  0  0  0  0  0  0  0  0
   -8.5249   -0.4304   -0.0601 H   0  0  0  0  0  0  0  0  0  0  0  0
   -6.9307   -1.9317    1.1884 H   0  0  0  0  0  0  0  0  0  0  0  0
   -1.4893    2.9183    0.2259 H   0  0  0  0  0  0  0  0  0  0  0  0
   -1.7245    2.7583    1.9791 H   0  0  0  0  0  0  0  0  0  0  0  0
    3.4135    1.1197   -0.0265 H   0  0  0  0  0  0  0  0  0  0  0  0
    5.5159    1.6742   -1.1931 H   0  0  0  0  0  0  0  0  0  0  0  0
  1  2  2  0
  2  3  1  0
  2  4  1  0
  4  5  2  0
  5  6  1  0
  6  7  2  0
  7  8  1  0
  8  9  1  0
  9 10  2  0
 10 11  1  0
 11 12  2  0
 12 13  1  0
 13 14  2  0
 13 15  1  0
 15 16  2  0
 16 17  1  0
 17 18  2  0
 18 19  1  0
 18 20  1  0
 20 21  2  0
 21 22  1  0
 22 23  1  0
 23 24  2  0
 24 25  1  0
 24 26  1  0
 26 27  2  0
 27 28  1  0
 28 29  2  0
 29 30  1  0
 22 31  2  0
 31 32  1  0
  7 33  1  0
 33 34  2  0
 34  4  1  0
 14  9  1  0
 21 15  1  0
 29 23  1  0
 32 12  1  0
  3 35  1  0
  5 36  1  0
  6 37  1  0
  8 38  1  0
 11 39  1  0
 16 40  1  0
 17 41  1  0
 20 42  1  0
 26 43  1  0
 27 44  1  0
 28 45  1  0
 32 46  1  0
 32 47  1  0
 33 48  1  0
 34 49  1  0
M  END
$$$$
