@<TRIPOS>MOLECULE
*****
 56 60 0 0 0
SMALL
GASTEIGER

@<TRIPOS>ATOM
      1 C          -5.7334   -0.1950    1.5542 C.3     1  UNL1       -0.0464
      2 C          -5.6607    0.4037    0.1792 C.3     1  UNL1        0.0246
      3 C          -6.9928    0.1671   -0.5504 C.3     1  UNL1       -0.0187
      4 C          -6.3716   -1.1859   -0.7926 C.3     1  UNL1        0.0167
      5 N          -5.0738   -0.4791   -0.8237 N.am    1  UNL1       -0.2974
      6 C          -3.8582   -0.6200   -1.5131 C.2     1  UNL1        0.2327
      7 O          -3.7543   -1.5748   -2.3542 O.2     1  UNL1       -0.2741
      8 C          -2.6980    0.2836   -1.3096 C.3     1  UNL1        0.1054
      9 C          -1.4485    0.0462   -2.0774 C.3     1  UNL1       -0.0220
     10 C          -1.5300   -0.2179   -0.5823 C.3     1  UNL1        0.0134
     11 C          -0.7822    0.6367    0.3298 C.3     1  UNL1        0.0935
     12 C          -0.5548   -0.2990    1.5878 C.3     1  UNL1       -0.0351
     13 C           0.6088    0.9905   -0.0403 C.ar    1  UNL1        0.0158
     14 C           1.7142    0.2487    0.3351 C.ar    1  UNL1       -0.0463
     15 C           3.0142    0.5424   -0.0520 C.ar    1  UNL1       -0.0217
     16 C           4.1667   -0.2474    0.3590 C.2     1  UNL1       -0.0172
     17 C           5.1827   -0.5600   -0.4307 C.2     1  UNL1        0.1492
     18 F           5.1214   -0.1029   -1.7039 F       1  UNL1       -0.2032
     19 C           6.3255   -1.3470    0.0085 C.ar    1  UNL1        0.0990
     20 C           7.3241   -1.6172   -0.9091 C.ar    1  UNL1       -0.0321
     21 C           8.4441   -2.3542   -0.5767 C.ar    1  UNL1       -0.0398
     22 C           8.5954   -2.8479    0.7046 C.ar    1  UNL1        0.0591
     23 CL         10.0157   -3.7912    1.1583 Cl      1  UNL1       -0.0820
     24 C           7.5779   -2.5586    1.5951 C.ar    1  UNL1        0.0466
     25 N           6.4921   -1.8326    1.2366 N.ar    1  UNL1       -0.2512
     26 C           3.2380    1.6297   -0.8547 C.ar    1  UNL1       -0.0518
     27 C           2.1945    2.3971   -1.2558 C.ar    1  UNL1       -0.0255
     28 C           0.8997    2.0838   -0.8547 C.ar    1  UNL1        0.1289
     29 F          -0.0486    2.9348   -1.2705 F       1  UNL1       -0.2051
     30 N          -1.4653    1.7278    0.9829 N.2     1  UNL1       -0.2521
     31 C          -2.4508    2.3975    0.5868 C.2     1  UNL1        0.1485
     32 N          -3.0213    3.4399    1.3266 N.pl3   1  UNL1       -0.3380
     33 S          -3.1558    1.9970   -1.0026 S.3     1  UNL1       -0.0746
     34 H          -5.0851   -1.0909    1.6635 H       1  UNL1        0.0248
     35 H          -5.5066    0.5722    2.3429 H       1  UNL1        0.0248
     36 H          -6.7599   -0.5493    1.7698 H       1  UNL1        0.0248
     37 H          -5.3338    1.4570    0.1461 H       1  UNL1        0.0498
     38 H          -7.0978    0.7535   -1.4775 H       1  UNL1        0.0298
     39 H          -7.8494    0.1938    0.1337 H       1  UNL1        0.0298
     40 H          -6.4807   -1.8496    0.0847 H       1  UNL1        0.0465
     41 H          -6.6308   -1.6988   -1.7167 H       1  UNL1        0.0465
     42 H          -1.5093   -0.8338   -2.7655 H       1  UNL1        0.0287
     43 H          -0.9775    0.9117   -2.5079 H       1  UNL1        0.0287
     44 H          -1.5999   -1.3468   -0.3735 H       1  UNL1        0.0346
     45 H          -0.2443   -1.2933    1.2436 H       1  UNL1        0.0256
     46 H           0.2204    0.1401    2.2120 H       1  UNL1        0.0256
     47 H          -1.5714   -0.3300    2.0563 H       1  UNL1        0.0256
     48 H           1.5922   -0.6363    0.9773 H       1  UNL1        0.0628
     49 H           4.2138   -0.6127    1.3764 H       1  UNL1        0.0653
     50 H           7.2210   -1.2377   -1.9180 H       1  UNL1        0.0640
     51 H           9.2248   -2.5607   -1.3095 H       1  UNL1        0.0633
     52 H           7.6978   -2.9473    2.6046 H       1  UNL1        0.0844
     53 H           4.2441    1.9168   -1.1917 H       1  UNL1        0.0624
     54 H           2.3884    3.2529   -1.8906 H       1  UNL1        0.0646
     55 H          -2.9657    4.4137    0.9698 H       1  UNL1        0.1442
     56 H          -3.5054    3.2795    2.2311 H       1  UNL1        0.1442
@<TRIPOS>BOND
     1     1     2    1
     2     2     3    1
     3     3     4    1
     4     4     5    1
     5     5     6   am
     6     6     7    2
     7     8     6    1
     8     8     9    1
     9     9    10    1
    10    10    11    1
    11    11    12    1
    12    11    13    1
    13    13    14   ar
    14    14    15   ar
    15    15    16    1
    16    16    17    2
    17    17    18    1
    18    17    19    1
    19    19    20   ar
    20    20    21   ar
    21    21    22   ar
    22    22    23    1
    23    22    24   ar
    24    24    25   ar
    25    15    26   ar
    26    26    27   ar
    27    27    28   ar
    28    28    29    1
    29    11    30    1
    30    30    31    2
    31    31    32    1
    32    31    33    1
    33     5     2    1
    34    10     8    1
    35    28    13   ar
    36    33     8    1
    37    25    19   ar
    38     1    34    1
    39     1    35    1
    40     1    36    1
    41     2    37    1
    42     3    38    1
    43     3    39    1
    44     4    40    1
    45     4    41    1
    46     9    42    1
    47     9    43    1
    48    10    44    1
    49    12    45    1
    50    12    46    1
    51    12    47    1
    52    14    48    1
    53    16    49    1
    54    20    50    1
    55    21    51    1
    56    24    52    1
    57    26    53    1
    58    27    54    1
    59    32    55    1
    60    32    56    1
