
     RDKit          3D

 56 60  0  0  0  0  0  0  0  0999 V2000
   -5.7334   -0.1950    1.5542 C   0  0  0  0  0  0  0  0  0  0  0  0
   -5.6607    0.4037    0.1792 C   0  0  2  0  0  0  0  0  0  0  0  0
   -6.9928    0.1671   -0.5504 C   0  0  0  0  0  0  0  0  0  0  0  0
   -6.3716   -1.1859   -0.7926 C   0  0  0  0  0  0  0  0  0  0  0  0
   -5.0738   -0.4791   -0.8237 N   0  0  0  0  0  0  0  0  0  0  0  0
   -3.8582   -0.6200   -1.5131 C   0  0  0  0  0  0  0  0  0  0  0  0
   -3.7543   -1.5748   -2.3542 O   0  0  0  0  0  0  0  0  0  0  0  0
   -2.6980    0.2836   -1.3096 C   0  0  2  0  0  0  0  0  0  0  0  0
   -1.4485    0.0462   -2.0774 C   0  0  0  0  0  0  0  0  0  0  0  0
   -1.5300   -0.2179   -0.5823 C   0  0  1  0  0  0  0  0  0  0  0  0
   -0.7822    0.6367    0.3298 C   0  0  1  0  0  0  0  0  0  0  0  0
   -0.5548   -0.2990    1.5878 C   0  0  0  0  0  0  0  0  0  0  0  0
    0.6088    0.9905   -0.0403 C   0  0  0  0  0  0  0  0  0  0  0  0
    1.7142    0.2487    0.3351 C   0  0  0  0  0  0  0  0  0  0  0  0
    3.0142    0.5424   -0.0520 C   0  0  0  0  0  0  0  0  0  0  0  0
    4.1667   -0.2474    0.3590 C   0  0  0  0  0  0  0  0  0  0  0  0
    5.1827   -0.5600   -0.4307 C   0  0  0  0  0  0  0  0  0  0  0  0
    5.1214   -0.1029   -1.7039 F   0  0  0  0  0  0  0  0  0  0  0  0
    6.3255   -1.3470    0.0085 C   0  0  0  0  0  0  0  0  0  0  0  0
    7.3241   -1.6172   -0.9091 C   0  0  0  0  0  0  0  0  0  0  0  0
    8.4441   -2.3542   -0.5767 C   0  0  0  0  0  0  0  0  0  0  0  0
    8.5954   -2.8479    0.7046 C   0  0  0  0  0  0  0  0  0  0  0  0
   10.0157   -3.7912    1.1583 Cl  0  0  0  0  0  0  0  0  0  0  0  0
    7.5779   -2.5586    1.5951 C   0  0  0  0  0  0  0  0  0  0  0  0
    6.4921   -1.8326    1.2366 N   0  0  0  0  0  0  0  0  0  0  0  0
    3.2380    1.6297   -0.8547 C   0  0  0  0  0  0  0  0  0  0  0  0
    2.1945    2.3971   -1.2558 C   0  0  0  0  0  0  0  0  0  0  0  0
    0.8997    2.0838   -0.8547 C   0  0  0  0  0  0  0  0  0  0  0  0
   -0.0486    2.9348   -1.2705 F   0  0  0  0  0  0  0  0  0  0  0  0
   -1.4653    1.7278    0.9829 N   0  0  0  0  0  0  0  0  0  0  0  0
   -2.4508    2.3975    0.5868 C   0  0  0  0  0  0  0  0  0  0  0  0
   -3.0213    3.4399    1.3266 N   0  0  0  0  0  0  0  0  0  0  0  0
   -3.1558    1.9970   -1.0026 S   0  0  0  0  0  0  0  0  0  0  0  0
   -5.0851   -1.0909    1.6635 H   0  0  0  0  0  0  0  0  0  0  0  0
   -5.5066    0.5722    2.3429 H   0  0  0  0  0  0  0  0  0  0  0  0
   -6.7599   -0.5493    1.7698 H   0  0  0  0  0  0  0  0  0  0  0  0
   -5.3338    1.4570    0.1461 H   0  0  0  0  0  0  0  0  0  0  0  0
   -7.0978    0.7535   -1.4775 H   0  0  0  0  0  0  0  0  0  0  0  0
   -7.8494    0.1938    0.1337 H   0  0  0  0  0  0  0  0  0  0  0  0
   -6.4807   -1.8496    0.0847 H   0  0  0  0  0  0  0  0  0  0  0  0
   -6.6308   -1.6988   -1.7167 H   0  0  0  0  0  0  0  0  0  0  0  0
   -1.5093   -0.8338   -2.7655 H   0  0  0  0  0  0  0  0  0  0  0  0
   -0.9775    0.9117   -2.5079 H   0  0  0  0  0  0  0  0  0  0  0  0
   -1.5999   -1.3468   -0.3735 H   0  0  0  0  0  0  0  0  0  0  0  0
   -0.2443   -1.2933    1.2436 H   0  0  0  0  0  0  0  0  0  0  0  0
    0.2204    0.1401    2.2120 H   0  0  0  0  0  0  0  0  0  0  0  0
   -1.5714   -0.3300    2.0563 H   0  0  0  0  0  0  0  0  0  0  0  0
    1.5922   -0.6363    0.9773 H   0  0  0  0  0  0  0  0  0  0  0  0
    4.2138   -0.6127    1.3764 H   0  0  0  0  0  0  0  0  0  0  0  0
    7.2210   -1.2377   -1.9180 H   0  0  0  0  0  0  0  0  0  0  0  0
    9.2248   -2.5607   -1.3095 H   0  0  0  0  0  0  0  0  0  0  0  0
    7.6978   -2.9473    2.6046 H   0  0  0  0  0  0  0  0  0  0  0  0
    4.2441    1.9168   -1.1917 H   0  0  0  0  0  0  0  0  0  0  0  0
    2.3884    3.2529   -1.8906 H   0  0  0  0  0  0  0  0  0  0  0  0
   -2.9657    4.4137    0.9698 H   0  0  0  0  0  0  0  0  0  0  0  0
   -3.5054    3.2795    2.2311 H   0  0  0  0  0  0  0  0  0  0  0  0
  1  2  1  0
  2  3  1  0
  3  4  1  0
  4  5  1  0
  5  6  1  0
  6  7  2  0
  8  6  1  6
  8  9  1  0
  9 10  1  0
 10 11  1  0
 11 12  1  1
 11 13  1  0
 13 14  2  0
 14 15  1  0
 15 16  1  0
 16 17  2  0
 17 18  1  0
 17 19  1  0
 19 20  2  0
 20 21  1  0
 21 22  2  0
 22 23  1  0
 22 24  1  0
 24 25  2  0
 15 26  2  0
 26 27  1  0
 27 28  2  0
 28 29  1  0
 11 30  1  0
 30 31  2  0
 31 32  1  0
 31 33  1  0
  5  2  1  0
 10  8  1  0
 28 13  1  0
 33  8  1  0
 25 19  1  0
  1 34  1  0
  1 35  1  0
  1 36  1  0
  2 37  1  1
  3 38  1  0
  3 39  1  0
  4 40  1  0
  4 41  1  0
  9 42  1  0
  9 43  1  0
 10 44  1  6
 12 45  1  0
 12 46  1  0
 12 47  1  0
 14 48  1  0
 16 49  1  0
 20 50  1  0
 21 51  1  0
 24 52  1  0
 26 53  1  0
 27 54  1  0
 32 55  1  0
 32 56  1  0
M  END
$$$$
