
     RDKit          3D

 20 19  0  0  0  0  0  0  0  0999 V2000
    3.2689    0.0966    1.0973 N   0  0  0  0  0  0  0  0  0  0  0  0
    2.1172   -0.2220    0.3431 C   0  0  0  0  0  0  0  0  0  0  0  0
    2.2654   -1.0022   -0.6693 N   0  0  0  0  0  4  0  0  0  0  0  0
    0.8132    0.2239    0.5789 N   0  0  0  0  0  0  0  0  0  0  0  0
   -0.2884   -0.1952   -0.2969 C   0  0  0  0  0  0  0  0  0  0  0  0
   -1.5337    0.4502    0.2249 C   0  0  0  0  0  0  0  0  0  0  0  0
   -2.7012    0.0433   -0.6530 C   0  0  0  0  0  0  0  0  0  0  0  0
   -3.8210    0.6958   -0.0862 O   0  0  0  0  0  0  0  0  0  0  0  0
    3.5350    1.0687    1.4359 H   0  0  0  0  0  0  0  0  0  0  0  0
    4.0049   -0.5525    1.4232 H   0  0  0  0  0  0  0  0  0  0  0  0
    3.0601   -1.5036   -1.1233 H   0  0  0  0  0  0  0  0  0  0  0  0
    1.5124   -1.3242   -1.3161 H   0  0  0  0  0  0  0  0  0  0  0  0
    0.6639    0.8702    1.4101 H   0  0  0  0  0  0  0  0  0  0  0  0
   -0.3531   -1.2990   -0.3192 H   0  0  0  0  0  0  0  0  0  0  0  0
   -0.1266    0.1241   -1.3449 H   0  0  0  0  0  0  0  0  0  0  0  0
   -1.7788    0.0572    1.2457 H   0  0  0  0  0  0  0  0  0  0  0  0
   -1.4022    1.5388    0.2292 H   0  0  0  0  0  0  0  0  0  0  0  0
   -2.8663   -1.0416   -0.5813 H   0  0  0  0  0  0  0  0  0  0  0  0
   -2.4972    0.3996   -1.6755 H   0  0  0  0  0  0  0  0  0  0  0  0
   -3.8725    1.5720   -0.5736 H   0  0  0  0  0  0  0  0  0  0  0  0
  1  2  1  0
  2  3  2  0
  2  4  1  0
  4  5  1  0
  5  6  1  0
  6  7  1  0
  7  8  1  0
  1  9  1  0
  1 10  1  0
  3 11  1  0
  3 12  1  0
  4 13  1  0
  5 14  1  0
  5 15  1  0
  6 16  1  0
  6 17  1  0
  7 18  1  0
  7 19  1  0
  8 20  1  0
M  CHG  1   3   1
M  END
$$$$
