@<TRIPOS>MOLECULE
*****
 20 19 0 0 0
SMALL
GASTEIGER

@<TRIPOS>ATOM
      1 N           3.2689    0.0966    1.0973 N.pl3   1  UNL1       -0.2919
      2 C           2.1172   -0.2220    0.3431 C.cat   1  UNL1        0.3410
      3 N           2.2654   -1.0022   -0.6693 N.pl3   1  UNL1       -0.2919
      4 N           0.8132    0.2239    0.5789 N.pl3   1  UNL1       -0.2787
      5 C          -0.2884   -0.1952   -0.2969 C.3     1  UNL1        0.0666
      6 C          -1.5337    0.4502    0.2249 C.3     1  UNL1        0.0010
      7 C          -2.7012    0.0433   -0.6530 C.3     1  UNL1        0.0471
      8 O          -3.8210    0.6958   -0.0862 O.3     1  UNL1       -0.3949
      9 H           3.5350    1.0687    1.4359 H       1  UNL1        0.2545
     10 H           4.0049   -0.5525    1.4232 H       1  UNL1        0.2545
     11 H           3.0601   -1.5036   -1.1233 H       1  UNL1        0.2545
     12 H           1.5124   -1.3242   -1.3161 H       1  UNL1        0.2545
     13 H           0.6639    0.8702    1.4101 H       1  UNL1        0.2578
     14 H          -0.3531   -1.2990   -0.3192 H       1  UNL1        0.0655
     15 H          -0.1266    0.1241   -1.3449 H       1  UNL1        0.0655
     16 H          -1.7788    0.0572    1.2457 H       1  UNL1        0.0318
     17 H          -1.4022    1.5388    0.2292 H       1  UNL1        0.0318
     18 H          -2.8663   -1.0416   -0.5813 H       1  UNL1        0.0558
     19 H          -2.4972    0.3996   -1.6755 H       1  UNL1        0.0558
     20 H          -3.8725    1.5720   -0.5736 H       1  UNL1        0.2094
@<TRIPOS>UNITY_ATOM_ATTR
3 1
charge 1
@<TRIPOS>BOND
     1     1     2    1
     2     2     3    2
     3     2     4    1
     4     4     5    1
     5     5     6    1
     6     6     7    1
     7     7     8    1
     8     1     9    1
     9     1    10    1
    10     3    11    1
    11     3    12    1
    12     4    13    1
    13     5    14    1
    14     5    15    1
    15     6    16    1
    16     6    17    1
    17     7    18    1
    18     7    19    1
    19     8    20    1
