@<TRIPOS>MOLECULE
*****
 48 49 0 0 0
SMALL
GASTEIGER

@<TRIPOS>ATOM
      1 C          -5.5563    2.1401    0.0386 C.3     1  UNL1       -0.0385
      2 C          -4.9471    0.7626    0.2670 C.3     1  UNL1        0.0902
      3 C          -5.0446    0.4473    1.7400 C.3     1  UNL1       -0.0385
      4 N          -3.5924    0.7852   -0.1753 N.3     1  UNL1       -0.3036
      5 C          -2.8411   -0.4037    0.0336 C.3     1  UNL1       -0.0029
      6 C          -1.4162   -0.2268   -0.4808 C.3     1  UNL1       -0.0350
      7 C          -0.6156   -1.4921   -0.2587 C.3     1  UNL1       -0.0091
      8 C           0.7674   -1.3027   -0.7647 C.ar    1  UNL1        0.0464
      9 C           1.7645   -0.8168    0.0457 C.ar    1  UNL1       -0.0143
     10 C           3.0097   -0.6594   -0.4537 C.ar    1  UNL1        0.0757
     11 C           4.1531   -0.1603    0.2805 C.ar    1  UNL1        0.0010
     12 C           4.0095    0.1958    1.5972 C.ar    1  UNL1       -0.0525
     13 C           5.0706    0.6815    2.3544 C.ar    1  UNL1       -0.0606
     14 C           6.3137    0.8191    1.7904 C.ar    1  UNL1       -0.0501
     15 C           6.4755    0.4666    0.4713 C.ar    1  UNL1        0.0554
     16 C           7.8130    0.6139   -0.1384 C.3     1  UNL1        0.4174
     17 F           8.5577    1.5128    0.5876 F       1  UNL1       -0.1659
     18 F           8.4569   -0.5986   -0.2864 F       1  UNL1       -0.1659
     19 F           7.6009    1.1027   -1.4342 F       1  UNL1       -0.1659
     20 C           5.4165   -0.0114   -0.2620 C.ar    1  UNL1       -0.0409
     21 N           3.2399   -0.9879   -1.7491 N.ar    1  UNL1       -0.2185
     22 C           2.2874   -1.4633   -2.5613 C.ar    1  UNL1        0.2327
     23 C           2.6266   -1.7833   -3.9184 C.1     1  UNL1        0.1399
     24 N           2.9127   -2.0567   -5.0087 N.1     1  UNL1       -0.1876
     25 N           1.0426   -1.6188   -2.0556 N.ar    1  UNL1       -0.2235
     26 C          -5.8273   -0.1900   -0.4518 C.2     1  UNL1        0.2301
     27 N          -7.1787   -0.2602   -0.0225 N.am    1  UNL1       -0.3278
     28 O          -5.3839   -0.8918   -1.3906 O.2     1  UNL1       -0.2740
     29 H          -4.9961    2.7315   -0.6902 H       1  UNL1        0.0252
     30 H          -5.5785    2.7278    1.0008 H       1  UNL1        0.0252
     31 H          -6.6108    2.0810   -0.2908 H       1  UNL1        0.0252
     32 H          -4.7649   -0.6070    1.8848 H       1  UNL1        0.0252
     33 H          -4.2885    1.0839    2.2589 H       1  UNL1        0.0252
     34 H          -6.0669    0.6845    2.0836 H       1  UNL1        0.0252
     35 H          -3.5261    1.1745   -1.1396 H       1  UNL1        0.1229
     36 H          -3.2857   -1.2420   -0.5222 H       1  UNL1        0.0424
     37 H          -2.8430   -0.6229    1.1266 H       1  UNL1        0.0424
     38 H          -1.4861    0.0163   -1.5506 H       1  UNL1        0.0281
     39 H          -0.9055    0.6195    0.0228 H       1  UNL1        0.0281
     40 H          -1.0422   -2.3479   -0.8187 H       1  UNL1        0.0329
     41 H          -0.6049   -1.7402    0.8153 H       1  UNL1        0.0329
     42 H           1.5445   -0.5715    1.0529 H       1  UNL1        0.0657
     43 H           3.0745    0.1293    2.1457 H       1  UNL1        0.0624
     44 H           4.9545    0.9614    3.3918 H       1  UNL1        0.0618
     45 H           7.1622    1.2020    2.3777 H       1  UNL1        0.0623
     46 H           5.5170   -0.2989   -1.3120 H       1  UNL1        0.0630
     47 H          -7.9894   -0.0621   -0.6429 H       1  UNL1        0.1450
     48 H          -7.3789   -0.5230    0.9638 H       1  UNL1        0.1450
@<TRIPOS>BOND
     1     1     2    1
     2     2     3    1
     3     2     4    1
     4     4     5    1
     5     5     6    1
     6     6     7    1
     7     7     8    1
     8     8     9   ar
     9     9    10   ar
    10    10    11    1
    11    11    12   ar
    12    12    13   ar
    13    13    14   ar
    14    14    15   ar
    15    15    16    1
    16    16    17    1
    17    16    18    1
    18    16    19    1
    19    15    20   ar
    20    10    21   ar
    21    21    22   ar
    22    22    23    1
    23    23    24    3
    24    22    25   ar
    25     2    26    1
    26    26    27   am
    27    26    28    2
    28    25     8   ar
    29    20    11   ar
    30     1    29    1
    31     1    30    1
    32     1    31    1
    33     3    32    1
    34     3    33    1
    35     3    34    1
    36     4    35    1
    37     5    36    1
    38     5    37    1
    39     6    38    1
    40     6    39    1
    41     7    40    1
    42     7    41    1
    43     9    42    1
    44    12    43    1
    45    13    44    1
    46    14    45    1
    47    20    46    1
    48    27    47    1
    49    27    48    1
