@<TRIPOS>MOLECULE
*****
 51 54 0 0 0
SMALL
GASTEIGER

@<TRIPOS>ATOM
      1 C           9.3013   -1.7208    0.7727 C.3     1  UNL1       -0.0025
      2 C           8.7025   -1.1303   -0.4796 C.1     1  UNL1       -0.1022
      3 C           8.1642   -0.5785   -1.6542 C.1     1  UNL1       -0.0617
      4 C           7.5791    0.0177   -2.8870 C.3     1  UNL1        0.1516
      5 O           6.4436    0.4479   -2.1212 O.3     1  UNL1       -0.4624
      6 C           5.4186    0.3299   -1.3721 C.ar    1  UNL1        0.2344
      7 C           5.0915    1.6610   -0.7589 C.ar    1  UNL1        0.0899
      8 N           4.0148    1.8452    0.0090 N.ar    1  UNL1       -0.2459
      9 C           3.1436    0.6512    0.2114 C.ar    1  UNL1        0.1172
     10 C           1.7217    1.0980    0.4868 C.2     1  UNL1        0.1507
     11 F           1.4624    1.9996    1.4028 F       1  UNL1       -0.2032
     12 C           0.7826    0.4149   -0.1980 C.2     1  UNL1       -0.0171
     13 C          -0.6564    0.7530   -0.1285 C.ar    1  UNL1       -0.0217
     14 C          -0.6190    2.4032    0.0976 C.ar    1  UNL1       -0.0518
     15 C          -1.8977    2.6824    0.2323 C.ar    1  UNL1       -0.0255
     16 C          -3.0990    2.2545    0.2566 C.ar    1  UNL1        0.1289
     17 F          -4.1887    2.8840    0.5851 F       1  UNL1       -0.2051
     18 C          -3.1045    0.7173    0.0121 C.ar    1  UNL1        0.0158
     19 C          -4.3639    0.0797    0.1022 C.3     1  UNL1        0.0940
     20 C          -5.4031    0.8056   -0.8381 C.3     1  UNL1       -0.0351
     21 N          -4.4266   -1.2984   -0.2939 N.2     1  UNL1       -0.2521
     22 C          -5.4638   -2.0000   -0.2295 C.2     1  UNL1        0.1490
     23 N          -5.5805   -3.3856   -0.6348 N.pl3   1  UNL1       -0.3380
     24 S          -6.9392   -1.2345    0.5630 S.3     1  UNL1       -0.0689
     25 C          -6.1870   -0.1072    1.7998 C.3     1  UNL1        0.1153
     26 C          -6.9296    0.9678    2.3940 C.1     1  UNL1        0.0808
     27 N          -7.5518    1.8434    2.8940 N.1     1  UNL1       -0.1951
     28 C          -5.0605   -0.8145    2.5271 C.3     1  UNL1       -0.0169
     29 C          -4.7889    0.2665    1.5311 C.3     1  UNL1        0.0185
     30 C          -1.8198    0.4017   -0.1112 C.ar    1  UNL1       -0.0463
     31 C           3.4672   -0.4706   -0.3061 C.ar    1  UNL1        0.0596
     32 N           4.5842   -0.6682   -1.0872 N.ar    1  UNL1       -0.2178
     33 H          10.4303   -1.6389    0.6159 H       1  UNL1        0.0362
     34 H           9.1677   -2.8475    0.4871 H       1  UNL1        0.0362
     35 H           8.8901   -1.3598    1.6123 H       1  UNL1        0.0362
     36 H           8.0321    0.9132   -3.1605 H       1  UNL1        0.0837
     37 H           7.3942   -0.7646   -3.5806 H       1  UNL1        0.0837
     38 H           5.7627    2.4777   -0.9805 H       1  UNL1        0.0884
     39 H           1.0299   -0.4768   -0.7109 H       1  UNL1        0.0653
     40 H           0.2824    2.7367   -0.0468 H       1  UNL1        0.0624
     41 H          -1.9149    3.9143    0.5787 H       1  UNL1        0.0646
     42 H          -5.8241    1.6441   -0.2951 H       1  UNL1        0.0256
     43 H          -4.7782    1.1511   -1.7382 H       1  UNL1        0.0256
     44 H          -6.0877    0.0773   -1.2900 H       1  UNL1        0.0256
     45 H          -5.3942   -4.1434    0.0697 H       1  UNL1        0.1442
     46 H          -5.8573   -3.5884   -1.6264 H       1  UNL1        0.1442
     47 H          -4.7197   -1.7933    2.2402 H       1  UNL1        0.0293
     48 H          -4.8488   -0.4896    3.5940 H       1  UNL1        0.0293
     49 H          -4.3648    1.2188    1.9529 H       1  UNL1        0.0352
     50 H          -1.7804   -0.8708   -0.3045 H       1  UNL1        0.0628
     51 H           2.7838   -1.3342   -0.1944 H       1  UNL1        0.0853
@<TRIPOS>BOND
     1     1     2    1
     2     2     3    3
     3     3     4    1
     4     4     5    1
     5     5     6    1
     6     6     7   ar
     7     7     8   ar
     8     8     9   ar
     9     9    10    1
    10    10    11    1
    11    10    12    2
    12    12    13    1
    13    13    14   ar
    14    14    15   ar
    15    15    16   ar
    16    16    17    1
    17    16    18   ar
    18    18    19    1
    19    19    20    1
    20    19    21    1
    21    21    22    2
    22    22    23    1
    23    22    24    1
    24    24    25    1
    25    25    26    1
    26    26    27    3
    27    25    28    1
    28    28    29    1
    29    18    30   ar
    30     9    31   ar
    31    31    32   ar
    32    32     6   ar
    33    30    13   ar
    34    29    19    1
    35    29    25    1
    36     1    33    1
    37     1    34    1
    38     1    35    1
    39     4    36    1
    40     4    37    1
    41     7    38    1
    42    12    39    1
    43    14    40    1
    44    15    41    1
    45    20    42    1
    46    20    43    1
    47    20    44    1
    48    23    45    1
    49    23    46    1
    50    28    47    1
    51    28    48    1
    52    29    49    1
    53    30    50    1
    54    31    51    1
