@<TRIPOS>MOLECULE
*****
 59 62 0 0 0
SMALL
GASTEIGER

@<TRIPOS>ATOM
      1 C          -1.3816    4.3460    0.0212 C.1     1  UNL1       -0.1179
      2 C          -1.6175    3.2486   -0.3978 C.1     1  UNL1       -0.0900
      3 C          -1.9247    1.9392   -0.9011 C.3     1  UNL1        0.0610
      4 N          -1.4342    0.8098   -0.2492 N.3     1  UNL1       -0.2856
      5 C          -1.9234    0.4108    1.0037 C.3     1  UNL1        0.0421
      6 C          -3.3897    0.1977    0.8524 C.ar    1  UNL1        0.0561
      7 C          -4.2656    1.2050    1.1531 C.ar    1  UNL1       -0.0385
      8 C          -5.6420    1.0617    0.9900 C.ar    1  UNL1       -0.0507
      9 C          -6.1088   -0.1481    0.5083 C.ar    1  UNL1        0.0040
     10 C          -7.4725   -0.3145    0.3379 C.ar    1  UNL1       -0.0523
     11 C          -7.9563   -1.5134   -0.1406 C.ar    1  UNL1       -0.0576
     12 C          -7.0928   -2.5374   -0.4460 C.ar    1  UNL1       -0.0180
     13 C          -5.7365   -2.3507   -0.2707 C.ar    1  UNL1        0.1427
     14 O          -4.8576   -3.3596   -0.5728 O.3     1  UNL1       -0.5046
     15 C          -5.2190   -1.1398    0.2157 C.ar    1  UNL1        0.1126
     16 N          -3.8846   -0.9594    0.3882 N.ar    1  UNL1       -0.2466
     17 C          -0.5569   -0.0333   -0.9650 C.3     1  UNL1        0.0031
     18 C           0.7894    0.5794   -1.2635 C.3     1  UNL1       -0.0259
     19 C           1.5374    0.9236   -0.0286 C.3     1  UNL1       -0.0361
     20 C           2.8933    0.2906    0.1159 C.3     1  UNL1       -0.0005
     21 N           3.7083    0.2894   -1.0561 N.3     1  UNL1       -0.2981
     22 C           4.7268   -0.7262   -1.0711 C.3     1  UNL1        0.0240
     23 C           5.7032   -0.6653    0.0206 C.ar    1  UNL1       -0.0334
     24 C           5.5309   -1.3424    1.2030 C.ar    1  UNL1       -0.0573
     25 C           6.4606   -1.2853    2.2344 C.ar    1  UNL1       -0.0615
     26 C           7.6038   -0.5322    2.0927 C.ar    1  UNL1       -0.0617
     27 C           7.7945    0.1511    0.9206 C.ar    1  UNL1       -0.0615
     28 C           6.8521    0.0857   -0.1090 C.ar    1  UNL1       -0.0573
     29 C           2.9326    0.2794   -2.2839 C.3     1  UNL1       -0.0005
     30 C           1.6012   -0.4169   -2.0583 C.3     1  UNL1       -0.0361
     31 H          -1.1860    5.3439    0.3963 H       1  UNL1        0.1228
     32 H          -3.0621    1.8676   -0.8842 H       1  UNL1        0.0563
     33 H          -1.6971    1.8426   -1.9955 H       1  UNL1        0.0563
     34 H          -1.7693    1.1080    1.8417 H       1  UNL1        0.0491
     35 H          -1.4786   -0.5816    1.2692 H       1  UNL1        0.0491
     36 H          -3.9442    2.1663    1.5335 H       1  UNL1        0.0636
     37 H          -6.3502    1.8429    1.2203 H       1  UNL1        0.0625
     38 H          -8.1631    0.4948    0.5783 H       1  UNL1        0.0624
     39 H          -9.0004   -1.6630   -0.2796 H       1  UNL1        0.0619
     40 H          -7.4784   -3.5042   -0.8343 H       1  UNL1        0.0655
     41 H          -5.0998   -4.1766   -1.0939 H       1  UNL1        0.2922
     42 H          -0.3894   -0.9637   -0.3616 H       1  UNL1        0.0430
     43 H          -1.0657   -0.3713   -1.9001 H       1  UNL1        0.0430
     44 H           0.6890    1.4995   -1.8925 H       1  UNL1        0.0314
     45 H           1.6724    2.0223    0.0284 H       1  UNL1        0.0281
     46 H           0.8821    0.6616    0.8431 H       1  UNL1        0.0281
     47 H           2.7653   -0.7455    0.4833 H       1  UNL1        0.0427
     48 H           3.4180    0.8597    0.9113 H       1  UNL1        0.0427
     49 H           4.1853   -1.7122   -1.1128 H       1  UNL1        0.0476
     50 H           5.2104   -0.6555   -2.0916 H       1  UNL1        0.0476
     51 H           4.6391   -1.9487    1.3418 H       1  UNL1        0.0621
     52 H           6.3124   -1.8235    3.1513 H       1  UNL1        0.0618
     53 H           8.3479   -0.4855    2.9102 H       1  UNL1        0.0618
     54 H           8.6990    0.7431    0.8206 H       1  UNL1        0.0618
     55 H           7.0743    0.6559   -1.0092 H       1  UNL1        0.0621
     56 H           2.7328    1.2975   -2.6048 H       1  UNL1        0.0427
     57 H           3.5057   -0.2683   -3.0434 H       1  UNL1        0.0427
     58 H           1.1859   -0.6589   -3.0341 H       1  UNL1        0.0281
     59 H           1.6941   -1.3410   -1.4613 H       1  UNL1        0.0281
@<TRIPOS>BOND
     1     1     2    3
     2     2     3    1
     3     3     4    1
     4     4     5    1
     5     5     6    1
     6     6     7   ar
     7     7     8   ar
     8     8     9   ar
     9     9    10   ar
    10    10    11   ar
    11    11    12   ar
    12    12    13   ar
    13    13    14    1
    14    13    15   ar
    15    15    16   ar
    16     4    17    1
    17    17    18    1
    18    18    19    1
    19    19    20    1
    20    20    21    1
    21    21    22    1
    22    22    23    1
    23    23    24   ar
    24    24    25   ar
    25    25    26   ar
    26    26    27   ar
    27    27    28   ar
    28    21    29    1
    29    29    30    1
    30    16     6   ar
    31    30    18    1
    32    15     9   ar
    33    28    23   ar
    34     1    31    1
    35     3    32    1
    36     3    33    1
    37     5    34    1
    38     5    35    1
    39     7    36    1
    40     8    37    1
    41    10    38    1
    42    11    39    1
    43    12    40    1
    44    14    41    1
    45    17    42    1
    46    17    43    1
    47    18    44    1
    48    19    45    1
    49    19    46    1
    50    20    47    1
    51    20    48    1
    52    22    49    1
    53    22    50    1
    54    24    51    1
    55    25    52    1
    56    26    53    1
    57    27    54    1
    58    28    55    1
    59    29    56    1
    60    29    57    1
    61    30    58    1
    62    30    59    1
