
     RDKit          3D

 42 45  0  0  0  0  0  0  0  0999 V2000
   -4.3090    3.5514   -0.2286 C   0  0  0  0  0  0  0  0  0  0  0  0
   -4.2903    2.0848   -0.1095 C   0  0  0  0  0  0  0  0  0  0  0  0
   -3.1312    1.3264    0.0120 C   0  0  0  0  0  0  0  0  0  0  0  0
   -3.5528    0.0296    0.0944 C   0  0  0  0  0  0  0  0  0  0  0  0
   -2.7872   -1.1728    0.2311 N   0  0  0  0  0  0  0  0  0  0  0  0
   -1.3817   -1.1636    0.3037 C   0  0  0  0  0  0  0  0  0  0  0  0
   -0.6727   -0.0225    0.2490 N   0  0  0  0  0  0  0  0  0  0  0  0
    0.6537    0.0890    0.3092 C   0  0  0  0  0  0  0  0  0  0  0  0
    1.2896    1.4454    0.2332 C   0  0  2  0  0  0  0  0  0  0  0  0
    0.6768    2.1807   -0.8078 O   0  0  0  0  0  0  0  0  0  0  0  0
    2.7377    1.3626    0.0340 C   0  0  0  0  0  0  0  0  0  0  0  0
    3.2402    1.0639   -1.2129 C   0  0  0  0  0  0  0  0  0  0  0  0
    4.6207    0.9808   -1.4208 C   0  0  0  0  0  0  0  0  0  0  0  0
    5.4827    1.2013   -0.3627 C   0  0  0  0  0  0  0  0  0  0  0  0
    6.8433    1.1279   -0.5307 F   0  0  0  0  0  0  0  0  0  0  0  0
    4.9999    1.5010    0.8905 C   0  0  0  0  0  0  0  0  0  0  0  0
    3.6303    1.5745    1.0579 C   0  0  0  0  0  0  0  0  0  0  0  0
    1.3778   -1.0295    0.4368 N   0  0  0  0  0  0  0  0  0  0  0  0
    0.7472   -2.2326    0.5006 C   0  0  0  0  0  0  0  0  0  0  0  0
    1.4879   -3.3940    0.6326 C   0  0  0  0  0  0  0  0  0  0  0  0
    0.8903   -4.6345    0.7011 C   0  0  0  0  0  0  0  0  0  0  0  0
   -0.4833   -4.7105    0.6356 C   0  0  0  0  0  0  0  0  0  0  0  0
   -1.2563   -3.5639    0.5031 C   0  0  0  0  0  0  0  0  0  0  0  0
   -0.6464   -2.3451    0.4370 C   0  0  0  0  0  0  0  0  0  0  0  0
   -4.9068    0.0275    0.0240 N   0  0  0  0  0  0  0  0  0  0  0  0
   -5.3426    1.2624   -0.0981 N   0  0  0  0  0  0  0  0  0  0  0  0
   -3.4238    4.0401    0.2343 H   0  0  0  0  0  0  0  0  0  0  0  0
   -4.3779    3.7962   -1.3248 H   0  0  0  0  0  0  0  0  0  0  0  0
   -5.2664    3.9231    0.2085 H   0  0  0  0  0  0  0  0  0  0  0  0
   -2.1278    1.7182    0.0327 H   0  0  0  0  0  0  0  0  0  0  0  0
   -3.2857   -2.0920    0.2791 H   0  0  0  0  0  0  0  0  0  0  0  0
    1.0084    1.9653    1.1723 H   0  0  0  0  0  0  0  0  0  0  0  0
    0.6536    1.6456   -1.6390 H   0  0  0  0  0  0  0  0  0  0  0  0
    2.6097    0.8830   -2.0724 H   0  0  0  0  0  0  0  0  0  0  0  0
    5.0174    0.7487   -2.3891 H   0  0  0  0  0  0  0  0  0  0  0  0
    5.6856    1.6733    1.7186 H   0  0  0  0  0  0  0  0  0  0  0  0
    3.2652    1.8104    2.0462 H   0  0  0  0  0  0  0  0  0  0  0  0
    2.5843   -3.3130    0.6833 H   0  0  0  0  0  0  0  0  0  0  0  0
    1.4748   -5.5548    0.8055 H   0  0  0  0  0  0  0  0  0  0  0  0
   -1.0363   -5.6421    0.6816 H   0  0  0  0  0  0  0  0  0  0  0  0
   -2.3298   -3.6327    0.4527 H   0  0  0  0  0  0  0  0  0  0  0  0
   -6.3690    1.4907   -0.1700 H   0  0  0  0  0  0  0  0  0  0  0  0
  1  2  1  0
  2  3  2  0
  3  4  1  0
  4  5  1  0
  5  6  1  0
  6  7  2  0
  7  8  1  0
  8  9  1  0
  9 10  1  0
  9 11  1  0
 11 12  2  0
 12 13  1  0
 13 14  2  0
 14 15  1  0
 14 16  1  0
 16 17  2  0
  8 18  2  0
 18 19  1  0
 19 20  2  0
 20 21  1  0
 21 22  2  0
 22 23  1  0
 23 24  2  0
  4 25  2  0
 25 26  1  0
 26  2  1  0
 24  6  1  0
 17 11  1  0
 24 19  1  0
  1 27  1  0
  1 28  1  0
  1 29  1  0
  3 30  1  0
  5 31  1  0
  9 32  1  1
 10 33  1  0
 12 34  1  0
 13 35  1  0
 16 36  1  0
 17 37  1  0
 20 38  1  0
 21 39  1  0
 22 40  1  0
 23 41  1  0
 26 42  1  0
M  END
$$$$
