@<TRIPOS>MOLECULE
*****
 42 45 0 0 0
SMALL
GASTEIGER

@<TRIPOS>ATOM
      1 C          -4.3090    3.5514   -0.2286 C.3     1  UNL1       -0.0228
      2 C          -4.2903    2.0848   -0.1095 C.ar    1  UNL1        0.0349
      3 C          -3.1312    1.3264    0.0120 C.ar    1  UNL1        0.0006
      4 C          -3.5528    0.0296    0.0944 C.ar    1  UNL1        0.1459
      5 N          -2.7872   -1.1728    0.2311 N.pl3   1  UNL1       -0.2824
      6 C          -1.3817   -1.1636    0.3037 C.ar    1  UNL1        0.1354
      7 N          -0.6727   -0.0225    0.2490 N.ar    1  UNL1       -0.2135
      8 C           0.6537    0.0890    0.3092 C.ar    1  UNL1        0.1645
      9 C           1.2896    1.4454    0.2332 C.3     1  UNL1        0.1394
     10 O           0.6768    2.1807   -0.8078 O.3     1  UNL1       -0.3794
     11 C           2.7377    1.3626    0.0340 C.ar    1  UNL1       -0.0116
     12 C           3.2402    1.0639   -1.2129 C.ar    1  UNL1       -0.0530
     13 C           4.6207    0.9808   -1.4208 C.ar    1  UNL1       -0.0261
     14 C           5.4827    1.2013   -0.3627 C.ar    1  UNL1        0.1234
     15 F           6.8433    1.1279   -0.5307 F       1  UNL1       -0.2055
     16 C           4.9999    1.5010    0.8905 C.ar    1  UNL1       -0.0261
     17 C           3.6303    1.5745    1.0579 C.ar    1  UNL1       -0.0530
     18 N           1.3778   -1.0295    0.4368 N.ar    1  UNL1       -0.2289
     19 C           0.7472   -2.2326    0.5006 C.ar    1  UNL1        0.0764
     20 C           1.4879   -3.3940    0.6326 C.ar    1  UNL1       -0.0356
     21 C           0.8903   -4.6345    0.7011 C.ar    1  UNL1       -0.0597
     22 C          -0.4833   -4.7105    0.6356 C.ar    1  UNL1       -0.0610
     23 C          -1.2563   -3.5639    0.5031 C.ar    1  UNL1       -0.0493
     24 C          -0.6464   -2.3451    0.4370 C.ar    1  UNL1        0.0405
     25 N          -4.9068    0.0275    0.0240 N.ar    1  UNL1       -0.1584
     26 N          -5.3426    1.2624   -0.0981 N.ar    1  UNL1       -0.2801
     27 H          -3.4238    4.0401    0.2343 H       1  UNL1        0.0292
     28 H          -4.3779    3.7962   -1.3248 H       1  UNL1        0.0292
     29 H          -5.2664    3.9231    0.2085 H       1  UNL1        0.0292
     30 H          -2.1278    1.7182    0.0327 H       1  UNL1        0.0670
     31 H          -3.2857   -2.0920    0.2791 H       1  UNL1        0.1550
     32 H           1.0084    1.9653    1.1723 H       1  UNL1        0.0726
     33 H           0.6536    1.6456   -1.6390 H       1  UNL1        0.2108
     34 H           2.6097    0.8830   -2.0724 H       1  UNL1        0.0622
     35 H           5.0174    0.7487   -2.3891 H       1  UNL1        0.0646
     36 H           5.6856    1.6733    1.7186 H       1  UNL1        0.0646
     37 H           3.2652    1.8104    2.0462 H       1  UNL1        0.0622
     38 H           2.5843   -3.3130    0.6833 H       1  UNL1        0.0639
     39 H           1.4748   -5.5548    0.8055 H       1  UNL1        0.0618
     40 H          -1.0363   -5.6421    0.6816 H       1  UNL1        0.0618
     41 H          -2.3298   -3.6327    0.4527 H       1  UNL1        0.0625
     42 H          -6.3690    1.4907   -0.1700 H       1  UNL1        0.1886
@<TRIPOS>BOND
     1     1     2    1
     2     2     3   ar
     3     3     4   ar
     4     4     5    1
     5     5     6    1
     6     6     7   ar
     7     7     8   ar
     8     8     9    1
     9     9    10    1
    10     9    11    1
    11    11    12   ar
    12    12    13   ar
    13    13    14   ar
    14    14    15    1
    15    14    16   ar
    16    16    17   ar
    17     8    18   ar
    18    18    19   ar
    19    19    20   ar
    20    20    21   ar
    21    21    22   ar
    22    22    23   ar
    23    23    24   ar
    24     4    25   ar
    25    25    26   ar
    26    26     2   ar
    27    24     6   ar
    28    17    11   ar
    29    24    19   ar
    30     1    27    1
    31     1    28    1
    32     1    29    1
    33     3    30    1
    34     5    31    1
    35     9    32    1
    36    10    33    1
    37    12    34    1
    38    13    35    1
    39    16    36    1
    40    17    37    1
    41    20    38    1
    42    21    39    1
    43    22    40    1
    44    23    41    1
    45    26    42    1
