@<TRIPOS>MOLECULE
*****
 48 51 0 0 0
SMALL
GASTEIGER

@<TRIPOS>ATOM
      1 C           5.2396   -3.1330    0.4462 C.3     1  UNL1       -0.0649
      2 C           4.5159   -1.7931    0.4414 C.3     1  UNL1       -0.0505
      3 C           3.3699   -1.8576   -0.5282 C.3     1  UNL1       -0.0110
      4 C           2.5997   -0.6142   -0.6119 C.ar    1  UNL1        0.0388
      5 N           1.3661   -0.3637   -0.0594 N.ar    1  UNL1       -0.3402
      6 C           0.9937    0.8791   -0.3530 C.ar    1  UNL1        0.1569
      7 C          -0.2031    1.6614   -0.0705 C.ar    1  UNL1        0.1086
      8 N          -0.4049    2.9305   -0.5297 N.ar    1  UNL1       -0.3502
      9 C          -1.5821    3.4164   -0.1339 C.ar    1  UNL1        0.0490
     10 C          -2.1710    4.6353   -0.3760 C.ar    1  UNL1       -0.0363
     11 C          -3.4175    4.8798    0.1564 C.ar    1  UNL1       -0.0414
     12 C          -4.0339    3.9108    0.9075 C.ar    1  UNL1        0.0417
     13 CL         -5.6012    4.2075    1.5816 Cl      1  UNL1       -0.0835
     14 C          -3.4103    2.6738    1.1403 C.ar    1  UNL1       -0.0324
     15 C          -2.1811    2.4430    0.6112 C.ar    1  UNL1        0.0270
     16 C          -1.3092    1.3280    0.6563 C.ar    1  UNL1        0.1294
     17 S          -1.6817   -0.1053    1.5568 S.O2    1  UNL1        0.0277
     18 O          -0.5115   -0.5186    2.3922 O.2     1  UNL1       -0.1642
     19 O          -2.7137    0.3122    2.6670 O.2     1  UNL1       -0.1642
     20 C          -2.4057   -1.3719    0.6235 C.ar    1  UNL1        0.0937
     21 C          -3.7705   -1.2457    0.3283 C.ar    1  UNL1       -0.0365
     22 C          -4.4446   -2.1959   -0.3863 C.ar    1  UNL1       -0.0599
     23 C          -3.7945   -3.3168   -0.8423 C.ar    1  UNL1       -0.0616
     24 C          -2.4603   -3.4699   -0.5702 C.ar    1  UNL1       -0.0599
     25 C          -1.7887   -2.4943    0.1590 C.ar    1  UNL1       -0.0365
     26 N           2.0131    1.4184   -1.1049 N.ar    1  UNL1       -0.2311
     27 C           2.9906    0.5244   -1.2679 C.ar    1  UNL1        0.0597
     28 C           4.2744    0.7116   -2.0189 C.3     1  UNL1       -0.0206
     29 H           5.9463   -3.2355    1.2685 H       1  UNL1        0.0230
     30 H           4.4851   -3.9572    0.4084 H       1  UNL1        0.0230
     31 H           5.7918   -3.2011   -0.5194 H       1  UNL1        0.0230
     32 H           5.2158   -0.9777    0.2251 H       1  UNL1        0.0266
     33 H           4.1577   -1.6395    1.4841 H       1  UNL1        0.0266
     34 H           3.7605   -2.2088   -1.5095 H       1  UNL1        0.0328
     35 H           2.6759   -2.6631   -0.1766 H       1  UNL1        0.0328
     36 H           0.8511   -1.0527    0.4677 H       1  UNL1        0.1671
     37 H           0.2976    3.4401   -1.1216 H       1  UNL1        0.1660
     38 H          -1.7069    5.4083   -0.9610 H       1  UNL1        0.0639
     39 H          -3.8839    5.8361   -0.0311 H       1  UNL1        0.0633
     40 H          -3.9142    1.9438    1.7190 H       1  UNL1        0.0639
     41 H          -4.3433   -0.3763    0.6628 H       1  UNL1        0.0637
     42 H          -5.4994   -2.0981   -0.6136 H       1  UNL1        0.0618
     43 H          -4.3097   -4.0907   -1.4169 H       1  UNL1        0.0618
     44 H          -1.9644   -4.3577   -0.9358 H       1  UNL1        0.0618
     45 H          -0.7490   -2.6672    0.3556 H       1  UNL1        0.0637
     46 H           5.0248    1.2586   -1.3923 H       1  UNL1        0.0293
     47 H           4.6460   -0.2190   -2.4452 H       1  UNL1        0.0293
     48 H           4.0406    1.4050   -2.8677 H       1  UNL1        0.0293
@<TRIPOS>BOND
     1     1     2    1
     2     2     3    1
     3     3     4    1
     4     4     5   ar
     5     5     6   ar
     6     6     7    1
     7     7     8   ar
     8     8     9   ar
     9     9    10   ar
    10    10    11   ar
    11    11    12   ar
    12    12    13    1
    13    12    14   ar
    14    14    15   ar
    15    15    16   ar
    16    16    17    1
    17    17    18    2
    18    17    19    2
    19    17    20    1
    20    20    21   ar
    21    21    22   ar
    22    22    23   ar
    23    23    24   ar
    24    24    25   ar
    25     6    26   ar
    26    26    27   ar
    27    27    28    1
    28    27     4   ar
    29    16     7   ar
    30    25    20   ar
    31    15     9   ar
    32     1    29    1
    33     1    30    1
    34     1    31    1
    35     2    32    1
    36     2    33    1
    37     3    34    1
    38     3    35    1
    39     5    36    1
    40     8    37    1
    41    10    38    1
    42    11    39    1
    43    14    40    1
    44    21    41    1
    45    22    42    1
    46    23    43    1
    47    24    44    1
    48    25    45    1
    49    28    46    1
    50    28    47    1
    51    28    48    1
