
     RDKit          3D

 48 51  0  0  0  0  0  0  0  0999 V2000
    5.2396   -3.1330    0.4462 C   0  0  0  0  0  0  0  0  0  0  0  0
    4.5159   -1.7931    0.4414 C   0  0  0  0  0  0  0  0  0  0  0  0
    3.3699   -1.8576   -0.5282 C   0  0  0  0  0  0  0  0  0  0  0  0
    2.5997   -0.6142   -0.6119 C   0  0  0  0  0  0  0  0  0  0  0  0
    1.3661   -0.3637   -0.0594 N   0  0  0  0  0  0  0  0  0  0  0  0
    0.9937    0.8791   -0.3530 C   0  0  0  0  0  0  0  0  0  0  0  0
   -0.2031    1.6614   -0.0705 C   0  0  0  0  0  0  0  0  0  0  0  0
   -0.4049    2.9305   -0.5297 N   0  0  0  0  0  0  0  0  0  0  0  0
   -1.5821    3.4164   -0.1339 C   0  0  0  0  0  0  0  0  0  0  0  0
   -2.1710    4.6353   -0.3760 C   0  0  0  0  0  0  0  0  0  0  0  0
   -3.4175    4.8798    0.1564 C   0  0  0  0  0  0  0  0  0  0  0  0
   -4.0339    3.9108    0.9075 C   0  0  0  0  0  0  0  0  0  0  0  0
   -5.6012    4.2075    1.5816 Cl  0  0  0  0  0  0  0  0  0  0  0  0
   -3.4103    2.6738    1.1403 C   0  0  0  0  0  0  0  0  0  0  0  0
   -2.1811    2.4430    0.6112 C   0  0  0  0  0  0  0  0  0  0  0  0
   -1.3092    1.3280    0.6563 C   0  0  0  0  0  0  0  0  0  0  0  0
   -1.6817   -0.1053    1.5568 S   0  0  0  0  0  6  0  0  0  0  0  0
   -0.5115   -0.5186    2.3922 O   0  0  0  0  0  0  0  0  0  0  0  0
   -2.7137    0.3122    2.6670 O   0  0  0  0  0  0  0  0  0  0  0  0
   -2.4057   -1.3719    0.6235 C   0  0  0  0  0  0  0  0  0  0  0  0
   -3.7705   -1.2457    0.3283 C   0  0  0  0  0  0  0  0  0  0  0  0
   -4.4446   -2.1959   -0.3863 C   0  0  0  0  0  0  0  0  0  0  0  0
   -3.7945   -3.3168   -0.8423 C   0  0  0  0  0  0  0  0  0  0  0  0
   -2.4603   -3.4699   -0.5702 C   0  0  0  0  0  0  0  0  0  0  0  0
   -1.7887   -2.4943    0.1590 C   0  0  0  0  0  0  0  0  0  0  0  0
    2.0131    1.4184   -1.1049 N   0  0  0  0  0  0  0  0  0  0  0  0
    2.9906    0.5244   -1.2679 C   0  0  0  0  0  0  0  0  0  0  0  0
    4.2744    0.7116   -2.0189 C   0  0  0  0  0  0  0  0  0  0  0  0
    5.9463   -3.2355    1.2685 H   0  0  0  0  0  0  0  0  0  0  0  0
    4.4851   -3.9572    0.4084 H   0  0  0  0  0  0  0  0  0  0  0  0
    5.7918   -3.2011   -0.5194 H   0  0  0  0  0  0  0  0  0  0  0  0
    5.2158   -0.9777    0.2251 H   0  0  0  0  0  0  0  0  0  0  0  0
    4.1577   -1.6395    1.4841 H   0  0  0  0  0  0  0  0  0  0  0  0
    3.7605   -2.2088   -1.5095 H   0  0  0  0  0  0  0  0  0  0  0  0
    2.6759   -2.6631   -0.1766 H   0  0  0  0  0  0  0  0  0  0  0  0
    0.8511   -1.0527    0.4677 H   0  0  0  0  0  0  0  0  0  0  0  0
    0.2976    3.4401   -1.1216 H   0  0  0  0  0  0  0  0  0  0  0  0
   -1.7069    5.4083   -0.9610 H   0  0  0  0  0  0  0  0  0  0  0  0
   -3.8839    5.8361   -0.0311 H   0  0  0  0  0  0  0  0  0  0  0  0
   -3.9142    1.9438    1.7190 H   0  0  0  0  0  0  0  0  0  0  0  0
   -4.3433   -0.3763    0.6628 H   0  0  0  0  0  0  0  0  0  0  0  0
   -5.4994   -2.0981   -0.6136 H   0  0  0  0  0  0  0  0  0  0  0  0
   -4.3097   -4.0907   -1.4169 H   0  0  0  0  0  0  0  0  0  0  0  0
   -1.9644   -4.3577   -0.9358 H   0  0  0  0  0  0  0  0  0  0  0  0
   -0.7490   -2.6672    0.3556 H   0  0  0  0  0  0  0  0  0  0  0  0
    5.0248    1.2586   -1.3923 H   0  0  0  0  0  0  0  0  0  0  0  0
    4.6460   -0.2190   -2.4452 H   0  0  0  0  0  0  0  0  0  0  0  0
    4.0406    1.4050   -2.8677 H   0  0  0  0  0  0  0  0  0  0  0  0
  1  2  1  0
  2  3  1  0
  3  4  1  0
  4  5  1  0
  5  6  1  0
  6  7  1  0
  7  8  1  0
  8  9  1  0
  9 10  2  0
 10 11  1  0
 11 12  2  0
 12 13  1  0
 12 14  1  0
 14 15  2  0
 15 16  1  0
 16 17  1  0
 17 18  2  0
 17 19  2  0
 17 20  1  0
 20 21  2  0
 21 22  1  0
 22 23  2  0
 23 24  1  0
 24 25  2  0
  6 26  2  0
 26 27  1  0
 27 28  1  0
 27  4  2  0
 16  7  2  0
 25 20  1  0
 15  9  1  0
  1 29  1  0
  1 30  1  0
  1 31  1  0
  2 32  1  0
  2 33  1  0
  3 34  1  0
  3 35  1  0
  5 36  1  0
  8 37  1  0
 10 38  1  0
 11 39  1  0
 14 40  1  0
 21 41  1  0
 22 42  1  0
 23 43  1  0
 24 44  1  0
 25 45  1  0
 28 46  1  0
 28 47  1  0
 28 48  1  0
M  END
$$$$
