@<TRIPOS>MOLECULE
*****
 42 45 0 0 0
SMALL
GASTEIGER

@<TRIPOS>ATOM
      1 C           7.6105   -1.9110   -0.6687 C.3     1  UNL1        0.1044
      2 CL          8.5024   -1.5063   -2.1383 Cl      1  UNL1       -0.1052
      3 S           6.6769   -3.4658   -0.8349 S.3     1  UNL1       -0.0817
      4 C           5.0523   -2.7549   -0.5544 C.2     1  UNL1        0.1064
      5 N           3.8013   -3.0123   -0.4724 N.2     1  UNL1       -0.2352
      6 C           3.0249   -1.8510   -0.2017 C.2     1  UNL1        0.1273
      7 C           3.8789   -0.8431   -0.1191 C.2     1  UNL1       -0.0217
      8 C           5.2452   -1.3089   -0.3328 C.2     1  UNL1        0.0073
      9 C           6.5024   -0.9512   -0.3983 C.2     1  UNL1       -0.0466
     10 C           1.5940   -1.7987   -0.0530 C.2     1  UNL1        0.2630
     11 O           0.8993   -2.8619   -0.1589 O.2     1  UNL1       -0.2685
     12 N           0.8794   -0.6210    0.2092 N.am    1  UNL1       -0.2984
     13 C          -0.5285   -0.4514    0.3751 C.3     1  UNL1        0.1042
     14 C          -0.9712    0.1400    1.6687 C.3     1  UNL1        0.0011
     15 C          -2.4414    0.3490    1.6160 C.ar    1  UNL1       -0.0237
     16 C          -3.2062    0.5607    0.5036 C.ar    1  UNL1        0.0401
     17 C          -4.5536    0.7526    0.4951 C.ar    1  UNL1       -0.0400
     18 C          -5.2334    0.7372    1.7002 C.ar    1  UNL1       -0.0600
     19 C          -4.4694    0.5229    2.8388 C.ar    1  UNL1       -0.0614
     20 C          -3.0824    0.3239    2.8632 C.ar    1  UNL1       -0.0567
     21 N          -2.5437    0.5853   -0.7793 N.am    1  UNL1       -0.2608
     22 C          -3.2080    0.8073   -2.0363 C.3     1  UNL1        0.0959
     23 C          -3.2649    2.2751   -2.3677 C.2     1  UNL1        0.2283
     24 N          -2.6780    3.1693   -1.4157 N.am    1  UNL1       -0.3280
     25 O          -3.6499    3.1244   -3.2124 O.2     1  UNL1       -0.2743
     26 C          -1.1258    0.3769   -0.7177 C.2     1  UNL1        0.2409
     27 O          -0.3908    0.9115   -1.6115 O.2     1  UNL1       -0.2732
     28 H           8.2532   -2.0410    0.2244 H       1  UNL1        0.0628
     29 H           3.6527    0.2148    0.0791 H       1  UNL1        0.0647
     30 H           6.8960    0.0487   -0.2709 H       1  UNL1        0.0602
     31 H           1.4539    0.2677    0.2974 H       1  UNL1        0.1498
     32 H          -0.9926   -1.4699    0.2744 H       1  UNL1        0.0598
     33 H          -0.6848   -0.4654    2.5401 H       1  UNL1        0.0336
     34 H          -0.5468    1.1853    1.7631 H       1  UNL1        0.0336
     35 H          -5.1323    0.9159   -0.3842 H       1  UNL1        0.0636
     36 H          -6.3038    0.8775    1.8238 H       1  UNL1        0.0618
     37 H          -5.0002    0.5088    3.8031 H       1  UNL1        0.0618
     38 H          -2.6294    0.1686    3.8452 H       1  UNL1        0.0621
     39 H          -2.6174    0.3057   -2.8407 H       1  UNL1        0.0564
     40 H          -4.2119    0.3390   -2.1035 H       1  UNL1        0.0564
     41 H          -2.2305    3.8968   -0.7985 H       1  UNL1        0.1450
     42 H          -2.2263    3.9489   -0.9017 H       1  UNL1        0.1450
@<TRIPOS>BOND
     1     1     2    1
     2     1     3    1
     3     3     4    1
     4     4     5    2
     5     5     6    1
     6     6     7    2
     7     7     8    1
     8     8     9    2
     9     6    10    1
    10    10    11    2
    11    10    12   am
    12    12    13    1
    13    13    14    1
    14    14    15    1
    15    15    16   ar
    16    16    17   ar
    17    17    18   ar
    18    18    19   ar
    19    19    20   ar
    20    16    21    1
    21    21    22    1
    22    22    23    1
    23    23    24   am
    24    23    25    2
    25    21    26   am
    26    26    27    2
    27     9     1    1
    28    26    13    1
    29     8     4    1
    30    20    15   ar
    31     1    28    1
    32     7    29    1
    33     9    30    1
    34    12    31    1
    35    13    32    1
    36    14    33    1
    37    14    34    1
    38    17    35    1
    39    18    36    1
    40    19    37    1
    41    20    38    1
    42    22    39    1
    43    22    40    1
    44    24    41    1
    45    24    42    1
