@<TRIPOS>MOLECULE
*****
 53 58 0 0 0
SMALL
GASTEIGER

@<TRIPOS>ATOM
      1 C           3.6880   -2.2356    2.0162 C.3     1  UNL1        0.0790
      2 O           4.2990   -1.5716    0.9247 O.3     1  UNL1       -0.4913
      3 C           3.5236   -0.8449    0.0319 C.ar    1  UNL1        0.1663
      4 C           2.1460   -0.7446    0.1742 C.ar    1  UNL1        0.0067
      5 C           1.4406   -0.0083   -0.7470 C.ar    1  UNL1        0.0577
      6 N           0.0083    0.0686   -0.5560 N.am    1  UNL1       -0.2528
      7 C          -0.7935   -0.9247   -1.1586 C.2     1  UNL1        0.2553
      8 O          -0.4429   -1.9306   -1.8390 O.2     1  UNL1       -0.2695
      9 C          -2.1815   -0.5846   -0.8536 C.ar    1  UNL1        0.0834
     10 C          -3.5130   -0.9475   -1.0374 C.ar    1  UNL1        0.0785
     11 C          -4.0008   -2.1263   -1.7636 C.3     1  UNL1        0.0039
     12 C          -4.5649   -3.2949   -0.9936 C.3     1  UNL1       -0.0441
     13 C          -3.2928   -3.3953   -1.8856 C.3     1  UNL1       -0.0441
     14 N          -4.2664   -0.0046   -0.3909 N.ar    1  UNL1       -0.1751
     15 N          -3.4955    0.8945    0.1673 N.ar    1  UNL1       -0.2682
     16 C          -3.9054    2.0552    0.9430 C.3     1  UNL1        0.0306
     17 C          -2.1953    0.5565   -0.1049 C.ar    1  UNL1        0.0765
     18 C          -0.7930    0.9711    0.1267 C.3     1  UNL1        0.0988
     19 C          -0.5264    1.2758    1.5096 C.ar    1  UNL1       -0.0207
     20 C          -0.2802    0.3340    2.4727 C.ar    1  UNL1       -0.0550
     21 C          -0.0267    0.6690    3.7896 C.ar    1  UNL1       -0.0431
     22 C          -0.0144    1.9889    4.1794 C.ar    1  UNL1        0.0410
     23 CL          0.3080    2.4149    5.8549 Cl      1  UNL1       -0.0835
     24 C          -0.2593    2.9519    3.2290 C.ar    1  UNL1       -0.0431
     25 C          -0.5072    2.5822    1.9298 C.ar    1  UNL1       -0.0550
     26 C           2.0871    0.6049   -1.7723 C.ar    1  UNL1        0.0346
     27 N           3.4304    0.4895   -1.8856 N.ar    1  UNL1       -0.2819
     28 C           4.2702    1.0016   -2.8044 C.ar    1  UNL1        0.1348
     29 C           3.8645    1.8531   -3.9556 C.3     1  UNL1       -0.0041
     30 N           5.5210    0.6016   -2.4852 N.ar    1  UNL1       -0.1339
     31 N           5.4541   -0.1483   -1.3827 N.ar    1  UNL1       -0.1256
     32 C           4.1650   -0.2161   -1.0148 C.ar    1  UNL1        0.2032
     33 H           3.0030   -1.5483    2.5502 H       1  UNL1        0.0660
     34 H           3.2099   -3.1819    1.7102 H       1  UNL1        0.0660
     35 H           4.5026   -2.4978    2.7314 H       1  UNL1        0.0660
     36 H           1.6972   -1.2573    1.0098 H       1  UNL1        0.0674
     37 H          -4.6610   -1.8438   -2.6370 H       1  UNL1        0.0365
     38 H          -4.3890   -3.3677    0.0943 H       1  UNL1        0.0272
     39 H          -5.4488   -3.8291   -1.3710 H       1  UNL1        0.0272
     40 H          -2.3850   -3.6976   -1.3695 H       1  UNL1        0.0272
     41 H          -3.4461   -3.9889   -2.8361 H       1  UNL1        0.0272
     42 H          -3.3694    2.1204    1.9107 H       1  UNL1        0.0473
     43 H          -3.8466    2.9800    0.3413 H       1  UNL1        0.0473
     44 H          -4.9858    1.9294    1.2127 H       1  UNL1        0.0473
     45 H          -0.7150    1.9580   -0.4550 H       1  UNL1        0.0620
     46 H          -0.2884   -0.6856    2.1944 H       1  UNL1        0.0621
     47 H           0.1653   -0.1173    4.5270 H       1  UNL1        0.0632
     48 H          -0.2516    3.9980    3.5284 H       1  UNL1        0.0632
     49 H          -0.6940    3.3914    1.2235 H       1  UNL1        0.0621
     50 H           1.5087    1.1747   -2.4784 H       1  UNL1        0.0833
     51 H           3.3873    1.1884   -4.7018 H       1  UNL1        0.0308
     52 H           4.7551    2.3625   -4.3512 H       1  UNL1        0.0308
     53 H           3.1049    2.5773   -3.5523 H       1  UNL1        0.0308
@<TRIPOS>BOND
     1     1     2    1
     2     2     3    1
     3     3     4   ar
     4     4     5   ar
     5     5     6    1
     6     6     7   am
     7     7     8    2
     8     7     9    1
     9     9    10   ar
    10    10    11    1
    11    11    12    1
    12    12    13    1
    13    10    14   ar
    14    14    15   ar
    15    15    16    1
    16    15    17   ar
    17    17    18    1
    18    18    19    1
    19    19    20   ar
    20    20    21   ar
    21    21    22   ar
    22    22    23    1
    23    22    24   ar
    24    24    25   ar
    25     5    26   ar
    26    26    27   ar
    27    27    28   ar
    28    28    29    1
    29    28    30   ar
    30    30    31   ar
    31    31    32   ar
    32    32     3   ar
    33    18     6    1
    34    25    19   ar
    35    32    27   ar
    36    17     9   ar
    37    13    11    1
    38     1    33    1
    39     1    34    1
    40     1    35    1
    41     4    36    1
    42    11    37    1
    43    12    38    1
    44    12    39    1
    45    13    40    1
    46    13    41    1
    47    16    42    1
    48    16    43    1
    49    16    44    1
    50    18    45    1
    51    20    46    1
    52    21    47    1
    53    24    48    1
    54    25    49    1
    55    26    50    1
    56    29    51    1
    57    29    52    1
    58    29    53    1
