
     RDKit          3D

 53 58  0  0  0  0  0  0  0  0999 V2000
    3.6880   -2.2356    2.0162 C   0  0  0  0  0  0  0  0  0  0  0  0
    4.2990   -1.5716    0.9247 O   0  0  0  0  0  0  0  0  0  0  0  0
    3.5236   -0.8449    0.0319 C   0  0  0  0  0  0  0  0  0  0  0  0
    2.1460   -0.7446    0.1742 C   0  0  0  0  0  0  0  0  0  0  0  0
    1.4406   -0.0083   -0.7470 C   0  0  0  0  0  0  0  0  0  0  0  0
    0.0083    0.0686   -0.5560 N   0  0  0  0  0  0  0  0  0  0  0  0
   -0.7935   -0.9247   -1.1586 C   0  0  0  0  0  0  0  0  0  0  0  0
   -0.4429   -1.9306   -1.8390 O   0  0  0  0  0  0  0  0  0  0  0  0
   -2.1815   -0.5846   -0.8536 C   0  0  0  0  0  0  0  0  0  0  0  0
   -3.5130   -0.9475   -1.0374 C   0  0  0  0  0  0  0  0  0  0  0  0
   -4.0008   -2.1263   -1.7636 C   0  0  0  0  0  0  0  0  0  0  0  0
   -4.5649   -3.2949   -0.9936 C   0  0  0  0  0  0  0  0  0  0  0  0
   -3.2928   -3.3953   -1.8856 C   0  0  0  0  0  0  0  0  0  0  0  0
   -4.2664   -0.0046   -0.3909 N   0  0  0  0  0  0  0  0  0  0  0  0
   -3.4955    0.8945    0.1673 N   0  0  0  0  0  0  0  0  0  0  0  0
   -3.9054    2.0552    0.9430 C   0  0  0  0  0  0  0  0  0  0  0  0
   -2.1953    0.5565   -0.1049 C   0  0  0  0  0  0  0  0  0  0  0  0
   -0.7930    0.9711    0.1267 C   0  0  1  0  0  0  0  0  0  0  0  0
   -0.5264    1.2758    1.5096 C   0  0  0  0  0  0  0  0  0  0  0  0
   -0.2802    0.3340    2.4727 C   0  0  0  0  0  0  0  0  0  0  0  0
   -0.0267    0.6690    3.7896 C   0  0  0  0  0  0  0  0  0  0  0  0
   -0.0144    1.9889    4.1794 C   0  0  0  0  0  0  0  0  0  0  0  0
    0.3080    2.4149    5.8549 Cl  0  0  0  0  0  0  0  0  0  0  0  0
   -0.2593    2.9519    3.2290 C   0  0  0  0  0  0  0  0  0  0  0  0
   -0.5072    2.5822    1.9298 C   0  0  0  0  0  0  0  0  0  0  0  0
    2.0871    0.6049   -1.7723 C   0  0  0  0  0  0  0  0  0  0  0  0
    3.4304    0.4895   -1.8856 N   0  0  0  0  0  0  0  0  0  0  0  0
    4.2702    1.0016   -2.8044 C   0  0  0  0  0  0  0  0  0  0  0  0
    3.8645    1.8531   -3.9556 C   0  0  0  0  0  0  0  0  0  0  0  0
    5.5210    0.6016   -2.4852 N   0  0  0  0  0  0  0  0  0  0  0  0
    5.4541   -0.1483   -1.3827 N   0  0  0  0  0  0  0  0  0  0  0  0
    4.1650   -0.2161   -1.0148 C   0  0  0  0  0  0  0  0  0  0  0  0
    3.0030   -1.5483    2.5502 H   0  0  0  0  0  0  0  0  0  0  0  0
    3.2099   -3.1819    1.7102 H   0  0  0  0  0  0  0  0  0  0  0  0
    4.5026   -2.4978    2.7314 H   0  0  0  0  0  0  0  0  0  0  0  0
    1.6972   -1.2573    1.0098 H   0  0  0  0  0  0  0  0  0  0  0  0
   -4.6610   -1.8438   -2.6370 H   0  0  0  0  0  0  0  0  0  0  0  0
   -4.3890   -3.3677    0.0943 H   0  0  0  0  0  0  0  0  0  0  0  0
   -5.4488   -3.8291   -1.3710 H   0  0  0  0  0  0  0  0  0  0  0  0
   -2.3850   -3.6976   -1.3695 H   0  0  0  0  0  0  0  0  0  0  0  0
   -3.4461   -3.9889   -2.8361 H   0  0  0  0  0  0  0  0  0  0  0  0
   -3.3694    2.1204    1.9107 H   0  0  0  0  0  0  0  0  0  0  0  0
   -3.8466    2.9800    0.3413 H   0  0  0  0  0  0  0  0  0  0  0  0
   -4.9858    1.9294    1.2127 H   0  0  0  0  0  0  0  0  0  0  0  0
   -0.7150    1.9580   -0.4550 H   0  0  0  0  0  0  0  0  0  0  0  0
   -0.2884   -0.6856    2.1944 H   0  0  0  0  0  0  0  0  0  0  0  0
    0.1653   -0.1173    4.5270 H   0  0  0  0  0  0  0  0  0  0  0  0
   -0.2516    3.9980    3.5284 H   0  0  0  0  0  0  0  0  0  0  0  0
   -0.6940    3.3914    1.2235 H   0  0  0  0  0  0  0  0  0  0  0  0
    1.5087    1.1747   -2.4784 H   0  0  0  0  0  0  0  0  0  0  0  0
    3.3873    1.1884   -4.7018 H   0  0  0  0  0  0  0  0  0  0  0  0
    4.7551    2.3625   -4.3512 H   0  0  0  0  0  0  0  0  0  0  0  0
    3.1049    2.5773   -3.5523 H   0  0  0  0  0  0  0  0  0  0  0  0
  1  2  1  0
  2  3  1  0
  3  4  2  0
  4  5  1  0
  5  6  1  0
  6  7  1  0
  7  8  2  0
  7  9  1  0
  9 10  1  0
 10 11  1  0
 11 12  1  0
 12 13  1  0
 10 14  2  0
 14 15  1  0
 15 16  1  0
 15 17  1  0
 17 18  1  0
 18 19  1  0
 19 20  2  0
 20 21  1  0
 21 22  2  0
 22 23  1  0
 22 24  1  0
 24 25  2  0
  5 26  2  0
 26 27  1  0
 27 28  1  0
 28 29  1  0
 28 30  2  0
 30 31  1  0
 31 32  2  0
 32  3  1  0
 18  6  1  0
 25 19  1  0
 32 27  1  0
 17  9  2  0
 13 11  1  0
  1 33  1  0
  1 34  1  0
  1 35  1  0
  4 36  1  0
 11 37  1  0
 12 38  1  0
 12 39  1  0
 13 40  1  0
 13 41  1  0
 16 42  1  0
 16 43  1  0
 16 44  1  0
 18 45  1  6
 20 46  1  0
 21 47  1  0
 24 48  1  0
 25 49  1  0
 26 50  1  0
 29 51  1  0
 29 52  1  0
 29 53  1  0
M  END
$$$$
