
     RDKit          3D

 21 22  0  0  0  0  0  0  0  0999 V2000
    2.9956   -1.0565   -0.2737 C   0  0  0  0  0  0  0  0  0  0  0  0
    2.1441    0.0750    0.0464 N   0  0  0  0  0  0  0  0  0  0  0  0
    2.6949    1.2344    0.3912 N   0  0  0  0  0  0  0  0  0  0  0  0
    1.8913    2.2854    0.6884 C   0  0  0  0  0  0  0  0  0  0  0  0
    0.5347    2.1956    0.6463 N   0  0  0  0  0  0  0  0  0  0  0  0
   -0.0680    1.0448    0.3034 C   0  0  0  0  0  0  0  0  0  0  0  0
   -1.4242    0.8544    0.2319 C   0  0  0  0  0  0  0  0  0  0  0  0
   -2.1792    1.8154    0.5034 O   0  0  0  0  0  0  0  0  0  0  0  0
   -1.9885   -0.3165   -0.1164 N   0  0  0  0  0  0  0  0  0  0  0  0
   -3.4417   -0.4756   -0.1799 C   0  0  0  0  0  0  0  0  0  0  0  0
   -1.1551   -1.3330   -0.4032 C   0  0  0  0  0  0  0  0  0  0  0  0
   -1.6624   -2.4362   -0.7311 O   0  0  0  0  0  0  0  0  0  0  0  0
    0.1952   -1.2284   -0.3568 N   0  0  0  0  0  0  0  0  0  0  0  0
    0.8077   -0.0807   -0.0147 C   0  0  0  0  0  0  0  0  0  0  0  0
    3.6540   -1.3005    0.5830 H   0  0  0  0  0  0  0  0  0  0  0  0
    3.6251   -0.8392   -1.1722 H   0  0  0  0  0  0  0  0  0  0  0  0
    2.3867   -1.9378   -0.5399 H   0  0  0  0  0  0  0  0  0  0  0  0
    2.3711    3.2095    0.9637 H   0  0  0  0  0  0  0  0  0  0  0  0
   -3.8506   -0.6901    0.8465 H   0  0  0  0  0  0  0  0  0  0  0  0
   -3.6243   -1.4102   -0.7607 H   0  0  0  0  0  0  0  0  0  0  0  0
   -3.9062    0.3901   -0.6555 H   0  0  0  0  0  0  0  0  0  0  0  0
  1  2  1  0
  2  3  1  0
  3  4  2  0
  4  5  1  0
  5  6  2  0
  6  7  1  0
  7  8  2  0
  7  9  1  0
  9 10  1  0
  9 11  1  0
 11 12  2  0
 11 13  1  0
 13 14  2  0
 14  2  1  0
 14  6  1  0
  1 15  1  0
  1 16  1  0
  1 17  1  0
  4 18  1  0
 10 19  1  0
 10 20  1  0
 10 21  1  0
M  END
$$$$
