@<TRIPOS>MOLECULE
*****
 21 22 0 0 0
SMALL
GASTEIGER

@<TRIPOS>ATOM
      1 C           2.9956   -1.0565   -0.2737 C.3     1  UNL1        0.0325
      2 N           2.1441    0.0750    0.0464 N.ar    1  UNL1       -0.2467
      3 N           2.6949    1.2344    0.3912 N.ar    1  UNL1       -0.1582
      4 C           1.8913    2.2854    0.6884 C.ar    1  UNL1        0.1372
      5 N           0.5347    2.1956    0.6463 N.ar    1  UNL1       -0.2251
      6 C          -0.0680    1.0448    0.3034 C.ar    1  UNL1        0.1737
      7 C          -1.4242    0.8544    0.2319 C.ar    1  UNL1        0.2841
      8 O          -2.1792    1.8154    0.5034 O.2     1  UNL1       -0.2651
      9 N          -1.9885   -0.3165   -0.1164 N.ar    1  UNL1       -0.2607
     10 C          -3.4417   -0.4756   -0.1799 C.3     1  UNL1        0.0197
     11 C          -1.1551   -1.3330   -0.4032 C.ar    1  UNL1        0.3529
     12 O          -1.6624   -2.4362   -0.7311 O.2     1  UNL1       -0.2443
     13 N           0.1952   -1.2284   -0.3568 N.ar    1  UNL1       -0.1717
     14 C           0.8077   -0.0807   -0.0147 C.ar    1  UNL1        0.1857
     15 H           3.6540   -1.3005    0.5830 H       1  UNL1        0.0473
     16 H           3.6251   -0.8392   -1.1722 H       1  UNL1        0.0473
     17 H           2.3867   -1.9378   -0.5399 H       1  UNL1        0.0473
     18 H           2.3711    3.2095    0.9637 H       1  UNL1        0.1065
     19 H          -3.8506   -0.6901    0.8465 H       1  UNL1        0.0458
     20 H          -3.6243   -1.4102   -0.7607 H       1  UNL1        0.0458
     21 H          -3.9062    0.3901   -0.6555 H       1  UNL1        0.0458
@<TRIPOS>BOND
     1     1     2    1
     2     2     3   ar
     3     3     4   ar
     4     4     5   ar
     5     5     6   ar
     6     6     7   ar
     7     7     8    2
     8     7     9   ar
     9     9    10    1
    10     9    11   ar
    11    11    12    2
    12    11    13   ar
    13    13    14   ar
    14    14     2   ar
    15    14     6    1
    16     1    15    1
    17     1    16    1
    18     1    17    1
    19     4    18    1
    20    10    19    1
    21    10    20    1
    22    10    21    1
