@<TRIPOS>MOLECULE
*****
 39 40 0 0 0
SMALL
GASTEIGER

@<TRIPOS>ATOM
      1 C          -4.4192    1.0729   -1.4793 C.3     1  UNL1       -0.0496
      2 C          -4.0588    0.6960   -0.0586 C.3     1  UNL1        0.0048
      3 N          -4.6528   -0.5611    0.2593 N.3     1  UNL1       -0.3272
      4 C          -2.5608    0.7101    0.0921 C.3     1  UNL1       -0.0260
      5 C          -2.1271    0.3417    1.4916 C.3     1  UNL1       -0.0481
      6 C          -0.6412    0.5479    1.6139 C.3     1  UNL1       -0.0416
      7 C           0.0728   -0.2871    0.6026 C.3     1  UNL1        0.0359
      8 C           1.5523   -0.0600    0.6593 C.2     1  UNL1        0.2203
      9 O           1.9846    0.7411    1.4839 O.2     1  UNL1       -0.2752
     10 N           2.3924   -0.7594   -0.2194 N.am    1  UNL1       -0.2852
     11 C           3.7866   -0.6225   -0.2508 C.ar    1  UNL1        0.0363
     12 C           4.5663    0.1775    0.5273 C.ar    1  UNL1       -0.0223
     13 C           5.9451    0.2441    0.4206 C.ar    1  UNL1        0.0293
     14 N           6.5545   -0.5123   -0.4905 N.ar    1  UNL1       -0.2631
     15 C           5.8660   -1.3231   -1.2923 C.ar    1  UNL1        0.0293
     16 C           4.4964   -1.3973   -1.1952 C.ar    1  UNL1       -0.0223
     17 C          -0.3761    0.1158   -0.7750 C.3     1  UNL1       -0.0416
     18 C          -1.8617   -0.2077   -0.8631 C.3     1  UNL1       -0.0481
     19 H          -4.8829    0.2085   -2.0289 H       1  UNL1        0.0245
     20 H          -5.1267    1.9262   -1.4691 H       1  UNL1        0.0245
     21 H          -3.5137    1.4089   -2.0248 H       1  UNL1        0.0245
     22 H          -4.4736    1.4559    0.6366 H       1  UNL1        0.0458
     23 H          -4.6677   -1.2513   -0.4993 H       1  UNL1        0.1185
     24 H          -4.4082   -0.9088    1.1922 H       1  UNL1        0.1185
     25 H          -2.1858    1.7363   -0.0966 H       1  UNL1        0.0316
     26 H          -2.6254    1.0141    2.2488 H       1  UNL1        0.0269
     27 H          -2.3926   -0.7249    1.6989 H       1  UNL1        0.0269
     28 H          -0.3199    0.2413    2.6344 H       1  UNL1        0.0273
     29 H          -0.4273    1.6120    1.4105 H       1  UNL1        0.0273
     30 H          -0.1538   -1.3682    0.7239 H       1  UNL1        0.0394
     31 H           1.9251   -1.4440   -0.9113 H       1  UNL1        0.1548
     32 H           4.1196    0.7951    1.2646 H       1  UNL1        0.0651
     33 H           6.4843    0.9148    1.0877 H       1  UNL1        0.0830
     34 H           6.4187   -1.9088   -2.0084 H       1  UNL1        0.0830
     35 H           3.9625   -2.0665   -1.8615 H       1  UNL1        0.0651
     36 H           0.1971   -0.3837   -1.5789 H       1  UNL1        0.0273
     37 H          -0.2941    1.2257   -0.8390 H       1  UNL1        0.0273
     38 H          -1.9547   -1.2520   -0.4423 H       1  UNL1        0.0269
     39 H          -2.2003   -0.1473   -1.8962 H       1  UNL1        0.0269
@<TRIPOS>BOND
     1     1     2    1
     2     2     3    1
     3     2     4    1
     4     4     5    1
     5     5     6    1
     6     6     7    1
     7     7     8    1
     8     8     9    2
     9     8    10   am
    10    10    11    1
    11    11    12   ar
    12    12    13   ar
    13    13    14   ar
    14    14    15   ar
    15    15    16   ar
    16     7    17    1
    17    17    18    1
    18    18     4    1
    19    16    11   ar
    20     1    19    1
    21     1    20    1
    22     1    21    1
    23     2    22    1
    24     3    23    1
    25     3    24    1
    26     4    25    1
    27     5    26    1
    28     5    27    1
    29     6    28    1
    30     6    29    1
    31     7    30    1
    32    10    31    1
    33    12    32    1
    34    13    33    1
    35    15    34    1
    36    16    35    1
    37    17    36    1
    38    17    37    1
    39    18    38    1
    40    18    39    1
