@<TRIPOS>MOLECULE
*****
 55 58 0 0 0
SMALL
GASTEIGER

@<TRIPOS>ATOM
      1 C          -3.1331    4.7612   -0.5266 C.3     1  UNL1       -0.0307
      2 C          -2.2267    4.2488    0.5448 C.3     1  UNL1        0.0868
      3 O          -1.8017    2.9369    0.4040 O.3     1  UNL1       -0.4912
      4 C          -2.7010    1.8804    0.3887 C.ar    1  UNL1        0.1392
      5 C          -4.0595    2.0949    0.5226 C.ar    1  UNL1       -0.0024
      6 C          -4.9237    1.0113    0.5027 C.ar    1  UNL1        0.0167
      7 N          -4.4719   -0.2420    0.3566 N.ar    1  UNL1       -0.2833
      8 C          -5.3571   -1.3390    0.3374 C.ar    1  UNL1        0.0496
      9 C          -6.0531   -1.7030    1.4731 C.ar    1  UNL1       -0.0350
     10 C          -6.9299   -2.7680    1.5037 C.ar    1  UNL1       -0.0245
     11 C          -7.0986   -3.4821    0.3338 C.ar    1  UNL1        0.1235
     12 F          -7.9498   -4.5393    0.3097 F       1  UNL1       -0.2055
     13 C          -6.4018   -3.1173   -0.8022 C.ar    1  UNL1       -0.0245
     14 C          -5.5253   -2.0522   -0.8318 C.ar    1  UNL1       -0.0350
     15 C          -3.1213   -0.4382    0.2253 C.ar    1  UNL1        0.2715
     16 O          -2.7080   -1.6203    0.0888 O.2     1  UNL1       -0.2664
     17 C          -2.1978    0.5711    0.2336 C.ar    1  UNL1        0.1431
     18 C          -0.7558    0.4210    0.0985 C.2     1  UNL1        0.2571
     19 O          -0.0711    1.4882    0.1317 O.2     1  UNL1       -0.2695
     20 N          -0.0276   -0.7631   -0.0646 N.am    1  UNL1       -0.2812
     21 C           1.3853   -0.9122   -0.1972 C.ar    1  UNL1        0.0366
     22 C           2.3046    0.0772   -0.1905 C.ar    1  UNL1       -0.0368
     23 C           3.6620   -0.2432   -0.3330 C.ar    1  UNL1       -0.0147
     24 C           4.1272   -1.5169   -0.4812 C.ar    1  UNL1        0.1636
     25 O           5.4320   -1.8831   -0.6216 O.3     1  UNL1       -0.4515
     26 C           6.5493   -1.1049   -0.6184 C.ar    1  UNL1        0.1516
     27 C           7.3362   -1.0777   -1.7758 C.ar    1  UNL1        0.0004
     28 C           8.4681   -0.3188   -1.8362 C.ar    1  UNL1        0.0333
     29 N           8.8491    0.4186   -0.7818 N.ar    1  UNL1       -0.2390
     30 C           8.1419    0.4342    0.3487 C.ar    1  UNL1        0.1382
     31 N           8.5551    1.2206    1.4624 N.pl3   1  UNL1       -0.3419
     32 C           6.9954   -0.3288    0.4230 C.ar    1  UNL1        0.1225
     33 CL          6.0860   -0.3189    1.9103 Cl      1  UNL1       -0.0762
     34 C           3.1860   -2.5424   -0.4893 C.ar    1  UNL1        0.1672
     35 F           3.5770   -3.8423   -0.6337 F       1  UNL1       -0.2016
     36 C           1.8593   -2.2214   -0.3494 C.ar    1  UNL1       -0.0015
     37 H          -2.5587    5.5300   -1.1234 H       1  UNL1        0.0262
     38 H          -4.0179    5.3152   -0.1328 H       1  UNL1        0.0262
     39 H          -3.4161    4.0030   -1.2896 H       1  UNL1        0.0262
     40 H          -1.3807    4.9578    0.6669 H       1  UNL1        0.0694
     41 H          -2.8016    4.3247    1.5087 H       1  UNL1        0.0694
     42 H          -4.4705    3.1020    0.6503 H       1  UNL1        0.0669
     43 H          -5.9842    1.1804    0.6071 H       1  UNL1        0.0815
     44 H          -5.9435   -1.1593    2.4174 H       1  UNL1        0.0639
     45 H          -7.4810   -3.0602    2.3940 H       1  UNL1        0.0647
     46 H          -6.5211   -3.6701   -1.7401 H       1  UNL1        0.0647
     47 H          -4.9926   -1.7945   -1.7495 H       1  UNL1        0.0639
     48 H          -0.5866   -1.6435   -0.0924 H       1  UNL1        0.1551
     49 H           2.0209    1.1025   -0.0787 H       1  UNL1        0.0637
     50 H           4.3775    0.5705   -0.3321 H       1  UNL1        0.0656
     51 H           7.0717   -1.6558   -2.6554 H       1  UNL1        0.0670
     52 H           9.1093   -0.2689   -2.7174 H       1  UNL1        0.0831
     53 H           9.5562    1.2891    1.7568 H       1  UNL1        0.1437
     54 H           7.8655    1.7563    2.0225 H       1  UNL1        0.1437
     55 H           1.1537   -3.0687   -0.3622 H       1  UNL1        0.0666
@<TRIPOS>BOND
     1     1     2    1
     2     2     3    1
     3     3     4    1
     4     4     5   ar
     5     5     6   ar
     6     6     7   ar
     7     7     8    1
     8     8     9   ar
     9     9    10   ar
    10    10    11   ar
    11    11    12    1
    12    11    13   ar
    13    13    14   ar
    14     7    15   ar
    15    15    16    2
    16    15    17   ar
    17    17    18    1
    18    18    19    2
    19    18    20   am
    20    20    21    1
    21    21    22   ar
    22    22    23   ar
    23    23    24   ar
    24    24    25    1
    25    25    26    1
    26    26    27   ar
    27    27    28   ar
    28    28    29   ar
    29    29    30   ar
    30    30    31    1
    31    30    32   ar
    32    32    33    1
    33    24    34   ar
    34    34    35    1
    35    34    36   ar
    36    17     4   ar
    37    36    21   ar
    38    14     8   ar
    39    32    26   ar
    40     1    37    1
    41     1    38    1
    42     1    39    1
    43     2    40    1
    44     2    41    1
    45     5    42    1
    46     6    43    1
    47     9    44    1
    48    10    45    1
    49    13    46    1
    50    14    47    1
    51    20    48    1
    52    22    49    1
    53    23    50    1
    54    27    51    1
    55    28    52    1
    56    31    53    1
    57    31    54    1
    58    36    55    1
