@<TRIPOS>MOLECULE
*****
 51 54 0 0 0
SMALL
GASTEIGER

@<TRIPOS>ATOM
      1 C          -5.2984    1.5356   -0.8613 C.3     1  UNL1       -0.0288
      2 C          -4.7157    0.4954    0.0911 C.3     1  UNL1        0.1831
      3 C          -5.9622   -0.1059    0.7729 C.3     1  UNL1       -0.0288
      4 C          -4.0242   -0.5365   -0.6693 C.2     1  UNL1        0.3067
      5 N          -4.8587   -1.4894   -1.3816 N.pl3   1  UNL1       -0.2488
      6 N          -2.7671   -0.6079   -0.7158 N.2     1  UNL1       -0.0727
      7 C          -1.7771    0.2075   -0.1068 C.3     1  UNL1        0.1959
      8 C          -1.5393    1.5050   -0.8490 C.3     1  UNL1       -0.0112
      9 C          -0.4890   -0.5512   -0.1204 C.ar    1  UNL1        0.0420
     10 C           0.6367   -0.0721   -0.7581 C.ar    1  UNL1       -0.0301
     11 C           1.8393   -0.7465   -0.7724 C.ar    1  UNL1        0.0330
     12 N           2.9435   -0.1789   -1.4643 N.pl3   1  UNL1       -0.2976
     13 C           4.2657   -0.6143   -1.3261 C.ar    1  UNL1        0.1523
     14 N           4.7232   -1.6529   -2.0251 N.ar    1  UNL1       -0.2184
     15 C           6.0073   -2.0805   -1.9041 C.ar    1  UNL1        0.1188
     16 N           6.8265   -1.4463   -1.0680 N.ar    1  UNL1       -0.2337
     17 C           6.4513   -0.3950   -0.3279 C.ar    1  UNL1        0.0957
     18 C           7.3078    0.2571    0.5330 C.ar    1  UNL1       -0.0142
     19 C           6.8136    1.3377    1.2489 C.ar    1  UNL1        0.0611
     20 CL          7.9121    2.1601    2.3391 Cl      1  UNL1       -0.0819
     21 C           5.4986    1.7395    1.0954 C.ar    1  UNL1        0.0468
     22 N           4.6957    1.0835    0.2511 N.ar    1  UNL1       -0.2485
     23 C           5.1196    0.0303   -0.4685 C.ar    1  UNL1        0.1291
     24 C           1.9198   -1.9466   -0.1241 C.ar    1  UNL1       -0.0378
     25 C           0.8034   -2.4392    0.5173 C.ar    1  UNL1       -0.0243
     26 C          -0.3862   -1.7793    0.5355 C.ar    1  UNL1        0.1311
     27 F          -1.4976   -2.2539    1.1616 F       1  UNL1       -0.2050
     28 C          -2.1266    0.6047    1.3152 C.3     1  UNL1        0.1183
     29 S          -3.7622    1.2186    1.3626 S.O2    1  UNL1       -0.0101
     30 O          -3.8021    2.7363    1.2917 O.2     1  UNL1       -0.1731
     31 O          -4.3114    0.9049    2.7524 O.2     1  UNL1       -0.1731
     32 H          -6.1929    1.0443   -1.3388 H       1  UNL1        0.0256
     33 H          -5.6770    2.4195   -0.3345 H       1  UNL1        0.0256
     34 H          -4.6200    1.8502   -1.6500 H       1  UNL1        0.0256
     35 H          -5.6642   -0.7686    1.6000 H       1  UNL1        0.0256
     36 H          -6.5077    0.7554    1.2170 H       1  UNL1        0.0256
     37 H          -6.5734   -0.5808    0.0002 H       1  UNL1        0.0256
     38 H          -5.4170   -2.1257   -0.7781 H       1  UNL1        0.2881
     39 H          -4.9100   -1.5484   -2.3993 H       1  UNL1        0.2881
     40 H          -1.2586    1.3735   -1.9038 H       1  UNL1        0.0279
     41 H          -2.4245    2.1752   -0.7777 H       1  UNL1        0.0279
     42 H          -0.7160    2.0896   -0.3621 H       1  UNL1        0.0279
     43 H           0.6068    0.8928   -1.2920 H       1  UNL1        0.0641
     44 H           2.7724    0.6253   -2.1317 H       1  UNL1        0.1536
     45 H           6.3239   -2.9269   -2.4931 H       1  UNL1        0.1048
     46 H           8.3408   -0.0752    0.6402 H       1  UNL1        0.0654
     47 H           5.1509    2.5997    1.6815 H       1  UNL1        0.0844
     48 H           2.8602   -2.5208   -0.1078 H       1  UNL1        0.0637
     49 H           0.8361   -3.4010    1.0472 H       1  UNL1        0.0647
     50 H          -1.9920   -0.1984    2.0372 H       1  UNL1        0.0550
     51 H          -1.3837    1.4003    1.5996 H       1  UNL1        0.0550
@<TRIPOS>BOND
     1     1     2    1
     2     2     3    1
     3     2     4    1
     4     4     5    1
     5     4     6    2
     6     6     7    1
     7     7     8    1
     8     7     9    1
     9     9    10   ar
    10    10    11   ar
    11    11    12    1
    12    12    13    1
    13    13    14   ar
    14    14    15   ar
    15    15    16   ar
    16    16    17   ar
    17    17    18   ar
    18    18    19   ar
    19    19    20    1
    20    19    21   ar
    21    21    22   ar
    22    22    23   ar
    23    11    24   ar
    24    24    25   ar
    25    25    26   ar
    26    26    27    1
    27     7    28    1
    28    28    29    1
    29    29    30    2
    30    29    31    2
    31    29     2    1
    32    26     9   ar
    33    23    13   ar
    34    23    17   ar
    35     1    32    1
    36     1    33    1
    37     1    34    1
    38     3    35    1
    39     3    36    1
    40     3    37    1
    41     5    38    1
    42     5    39    1
    43     8    40    1
    44     8    41    1
    45     8    42    1
    46    10    43    1
    47    12    44    1
    48    15    45    1
    49    18    46    1
    50    21    47    1
    51    24    48    1
    52    25    49    1
    53    28    50    1
    54    28    51    1
