
     RDKit          3D

 46 49  0  0  0  0  0  0  0  0999 V2000
   -3.5342    1.4466    1.1946 C   0  0  0  0  0  0  0  0  0  0  0  0
   -2.8366    0.1890    0.7704 C   0  0  1  0  0  0  0  0  0  0  0  0
   -1.3485    0.4147    0.8329 C   0  0  0  0  0  0  0  0  0  0  0  0
   -0.5392    0.3177   -0.2791 C   0  0  0  0  0  0  0  0  0  0  0  0
    0.8232    0.5247   -0.2145 C   0  0  0  0  0  0  0  0  0  0  0  0
    1.6346    0.4050   -1.3721 N   0  0  0  0  0  0  0  0  0  0  0  0
    3.0013    0.7286   -1.4120 C   0  0  0  0  0  0  0  0  0  0  0  0
    3.4455    1.9187   -1.8455 N   0  0  0  0  0  0  0  0  0  0  0  0
    4.7392    2.2572   -1.8850 C   0  0  0  0  0  0  0  0  0  0  0  0
    5.6972    1.3446   -1.4600 C   0  0  0  0  0  0  0  0  0  0  0  0
    5.3105    0.0821   -0.9943 C   0  0  0  0  0  0  0  0  0  0  0  0
    6.2579   -0.8270   -0.5661 C   0  0  0  0  0  0  0  0  0  0  0  0
    5.8615   -2.0660   -0.1048 C   0  0  0  0  0  0  0  0  0  0  0  0
    7.0277   -3.2605    0.4536 Cl  0  0  0  0  0  0  0  0  0  0  0  0
    4.5002   -2.3027   -0.1096 C   0  0  0  0  0  0  0  0  0  0  0  0
    3.5886   -1.4098   -0.5288 N   0  0  0  0  0  0  0  0  0  0  0  0
    3.9614   -0.1948   -0.9825 C   0  0  0  0  0  0  0  0  0  0  0  0
    1.4283    0.8404    0.9844 C   0  0  0  0  0  0  0  0  0  0  0  0
    0.6532    0.9472    2.1227 C   0  0  0  0  0  0  0  0  0  0  0  0
   -0.7204    0.7320    2.0245 C   0  0  0  0  0  0  0  0  0  0  0  0
   -1.4427    0.8418    3.1450 F   0  0  0  0  0  0  0  0  0  0  0  0
   -3.2314   -1.0096    1.6002 C   0  0  0  0  0  0  0  0  0  0  0  0
   -5.0026   -1.2190    1.3512 S   0  0  0  0  0  6  0  0  0  0  0  0
   -5.7512   -0.5319    2.4546 O   0  0  0  0  0  0  0  0  0  0  0  0
   -5.3614   -2.6763    1.3105 O   0  0  0  0  0  0  0  0  0  0  0  0
   -5.4340   -0.3910   -0.1670 C   0  0  0  0  0  0  0  0  0  0  0  0
   -4.2784   -0.3782   -1.1018 C   0  0  0  0  0  0  0  0  0  0  0  0
   -4.5065   -0.6571   -2.4672 N   0  0  0  0  0  0  0  0  0  0  0  0
   -3.1290   -0.1088   -0.6140 N   0  0  0  0  0  0  0  0  0  0  0  0
   -2.8010    2.0752    1.7618 H   0  0  0  0  0  0  0  0  0  0  0  0
   -4.3621    1.2696    1.9130 H   0  0  0  0  0  0  0  0  0  0  0  0
   -3.8349    2.0569    0.3288 H   0  0  0  0  0  0  0  0  0  0  0  0
   -1.0204    0.0687   -1.2252 H   0  0  0  0  0  0  0  0  0  0  0  0
    1.1837    0.0562   -2.2432 H   0  0  0  0  0  0  0  0  0  0  0  0
    5.1060    3.2156   -2.2336 H   0  0  0  0  0  0  0  0  0  0  0  0
    6.7567    1.5671   -1.4723 H   0  0  0  0  0  0  0  0  0  0  0  0
    7.3252   -0.5752   -0.5887 H   0  0  0  0  0  0  0  0  0  0  0  0
    4.2070   -3.2958    0.2626 H   0  0  0  0  0  0  0  0  0  0  0  0
    2.4963    0.9914    0.9767 H   0  0  0  0  0  0  0  0  0  0  0  0
    1.1425    1.1946    3.0537 H   0  0  0  0  0  0  0  0  0  0  0  0
   -2.7188   -1.8874    1.2095 H   0  0  0  0  0  0  0  0  0  0  0  0
   -3.1059   -0.8455    2.6841 H   0  0  0  0  0  0  0  0  0  0  0  0
   -5.7625    0.6399   -0.0160 H   0  0  0  0  0  0  0  0  0  0  0  0
   -6.2486   -0.9708   -0.6368 H   0  0  0  0  0  0  0  0  0  0  0  0
   -4.6445   -1.6365   -2.7657 H   0  0  0  0  0  0  0  0  0  0  0  0
   -4.5330    0.1184   -3.1488 H   0  0  0  0  0  0  0  0  0  0  0  0
  2  1  1  1
  2  3  1  0
  3  4  2  0
  4  5  1  0
  5  6  1  0
  6  7  1  0
  7  8  2  0
  8  9  1  0
  9 10  2  0
 10 11  1  0
 11 12  2  0
 12 13  1  0
 13 14  1  0
 13 15  2  0
 15 16  1  0
 16 17  2  0
  5 18  2  0
 18 19  1  0
 19 20  2  0
 20 21  1  0
  2 22  1  0
 22 23  1  0
 23 24  2  0
 23 25  2  0
 23 26  1  0
 26 27  1  0
 27 28  1  0
 27 29  2  0
 29  2  1  0
 20  3  1  0
 17  7  1  0
 17 11  1  0
  1 30  1  0
  1 31  1  0
  1 32  1  0
  4 33  1  0
  6 34  1  0
  9 35  1  0
 10 36  1  0
 12 37  1  0
 15 38  1  0
 18 39  1  0
 19 40  1  0
 22 41  1  0
 22 42  1  0
 26 43  1  0
 26 44  1  0
 28 45  1  0
 28 46  1  0
M  END
$$$$
