@<TRIPOS>MOLECULE
*****
 46 49 0 0 0
SMALL
GASTEIGER

@<TRIPOS>ATOM
      1 C          -3.5342    1.4466    1.1946 C.3     1  UNL1       -0.0112
      2 C          -2.8366    0.1890    0.7704 C.3     1  UNL1        0.1958
      3 C          -1.3485    0.4147    0.8329 C.ar    1  UNL1        0.0420
      4 C          -0.5392    0.3177   -0.2791 C.ar    1  UNL1       -0.0301
      5 C           0.8232    0.5247   -0.2145 C.ar    1  UNL1        0.0330
      6 N           1.6346    0.4050   -1.3721 N.pl3   1  UNL1       -0.2977
      7 C           3.0013    0.7286   -1.4120 C.ar    1  UNL1        0.1490
      8 N           3.4455    1.9187   -1.8455 N.ar    1  UNL1       -0.2380
      9 C           4.7392    2.2572   -1.8850 C.ar    1  UNL1        0.0304
     10 C           5.6972    1.3446   -1.4600 C.ar    1  UNL1       -0.0342
     11 C           5.3105    0.0821   -0.9943 C.ar    1  UNL1        0.0066
     12 C           6.2579   -0.8270   -0.5661 C.ar    1  UNL1       -0.0326
     13 C           5.8615   -2.0660   -0.1048 C.ar    1  UNL1        0.0596
     14 CL          7.0277   -3.2605    0.4536 Cl      1  UNL1       -0.0820
     15 C           4.5002   -2.3027   -0.1096 C.ar    1  UNL1        0.0467
     16 N           3.5886   -1.4098   -0.5288 N.ar    1  UNL1       -0.2501
     17 C           3.9614   -0.1948   -0.9825 C.ar    1  UNL1        0.1109
     18 C           1.4283    0.8404    0.9844 C.ar    1  UNL1       -0.0378
     19 C           0.6532    0.9472    2.1227 C.ar    1  UNL1       -0.0243
     20 C          -0.7204    0.7320    2.0245 C.ar    1  UNL1        0.1311
     21 F          -1.4427    0.8418    3.1450 F       1  UNL1       -0.2050
     22 C          -3.2314   -1.0096    1.6002 C.3     1  UNL1        0.1177
     23 S          -5.0026   -1.2190    1.3512 S.O2    1  UNL1       -0.0152
     24 O          -5.7512   -0.5319    2.4546 O.2     1  UNL1       -0.1736
     25 O          -5.3614   -2.6763    1.3105 O.2     1  UNL1       -0.1736
     26 C          -5.4340   -0.3910   -0.1670 C.3     1  UNL1        0.1676
     27 C          -4.2784   -0.3782   -1.1018 C.2     1  UNL1        0.3010
     28 N          -4.5065   -0.6571   -2.4672 N.pl3   1  UNL1       -0.2493
     29 N          -3.1290   -0.1088   -0.6140 N.2     1  UNL1       -0.0733
     30 H          -2.8010    2.0752    1.7618 H       1  UNL1        0.0279
     31 H          -4.3621    1.2696    1.9130 H       1  UNL1        0.0279
     32 H          -3.8349    2.0569    0.3288 H       1  UNL1        0.0279
     33 H          -1.0204    0.0687   -1.2252 H       1  UNL1        0.0641
     34 H           1.1837    0.0562   -2.2432 H       1  UNL1        0.1536
     35 H           5.1060    3.2156   -2.2336 H       1  UNL1        0.0830
     36 H           6.7567    1.5671   -1.4723 H       1  UNL1        0.0639
     37 H           7.3252   -0.5752   -0.5887 H       1  UNL1        0.0639
     38 H           4.2070   -3.2958    0.2626 H       1  UNL1        0.0844
     39 H           2.4963    0.9914    0.9767 H       1  UNL1        0.0637
     40 H           1.1425    1.1946    3.0537 H       1  UNL1        0.0647
     41 H          -2.7188   -1.8874    1.2095 H       1  UNL1        0.0550
     42 H          -3.1059   -0.8455    2.6841 H       1  UNL1        0.0550
     43 H          -5.7625    0.6399   -0.0160 H       1  UNL1        0.0626
     44 H          -6.2486   -0.9708   -0.6368 H       1  UNL1        0.0626
     45 H          -4.6445   -1.6365   -2.7657 H       1  UNL1        0.2881
     46 H          -4.5330    0.1184   -3.1488 H       1  UNL1        0.2881
@<TRIPOS>BOND
     1     2     1    1
     2     2     3    1
     3     3     4   ar
     4     4     5   ar
     5     5     6    1
     6     6     7    1
     7     7     8   ar
     8     8     9   ar
     9     9    10   ar
    10    10    11   ar
    11    11    12   ar
    12    12    13   ar
    13    13    14    1
    14    13    15   ar
    15    15    16   ar
    16    16    17   ar
    17     5    18   ar
    18    18    19   ar
    19    19    20   ar
    20    20    21    1
    21     2    22    1
    22    22    23    1
    23    23    24    2
    24    23    25    2
    25    23    26    1
    26    26    27    1
    27    27    28    1
    28    27    29    2
    29    29     2    1
    30    20     3   ar
    31    17     7   ar
    32    17    11   ar
    33     1    30    1
    34     1    31    1
    35     1    32    1
    36     4    33    1
    37     6    34    1
    38     9    35    1
    39    10    36    1
    40    12    37    1
    41    15    38    1
    42    18    39    1
    43    19    40    1
    44    22    41    1
    45    22    42    1
    46    26    43    1
    47    26    44    1
    48    28    45    1
    49    28    46    1
