
     RDKit          3D

 25 26  0  0  0  0  0  0  0  0999 V2000
    0.4573   -2.3661    0.1771 C   0  0  0  0  0  0  0  0  0  0  0  0
    1.1141   -1.0390    0.0399 C   0  0  0  0  0  0  0  0  0  0  0  0
    0.2836    0.0560    0.0456 C   0  0  0  0  0  0  0  0  0  0  0  0
    0.9480    1.2813   -0.0876 C   0  0  0  0  0  0  0  0  0  0  0  0
    2.3083    1.4133   -0.2149 C   0  0  0  0  0  0  0  0  0  0  0  0
    2.9180    2.7100   -0.3477 C   0  0  0  0  0  0  0  0  0  0  0  0
    3.4010    3.7552   -0.4493 N   0  0  0  0  0  0  0  0  0  0  0  0
    3.0846    0.2736   -0.2130 C   0  0  0  0  0  0  0  0  0  0  0  0
    4.3421    0.3227   -0.3262 O   0  0  0  0  0  0  0  0  0  0  0  0
    2.4475   -0.9059   -0.0850 N   0  0  0  0  0  0  0  0  0  0  0  0
   -1.1710    0.0568    0.1747 C   0  0  0  0  0  0  0  0  0  0  0  0
   -1.9933   -0.6304    1.0452 C   0  0  0  0  0  0  0  0  0  0  0  0
   -3.3556   -0.4511    0.9566 C   0  0  0  0  0  0  0  0  0  0  0  0
   -3.8982    0.3749    0.0450 N   0  0  0  0  0  0  0  0  0  0  0  0
   -3.1498    1.0706   -0.8287 C   0  0  0  0  0  0  0  0  0  0  0  0
   -1.7820    0.9056   -0.7572 C   0  0  0  0  0  0  0  0  0  0  0  0
    0.4487   -2.6615    1.2465 H   0  0  0  0  0  0  0  0  0  0  0  0
   -0.5787   -2.3497   -0.2313 H   0  0  0  0  0  0  0  0  0  0  0  0
    1.0624   -3.1413   -0.3729 H   0  0  0  0  0  0  0  0  0  0  0  0
    0.3544    2.1962   -0.0917 H   0  0  0  0  0  0  0  0  0  0  0  0
    2.9920   -1.8189   -0.0767 H   0  0  0  0  0  0  0  0  0  0  0  0
   -1.4326   -1.2547    1.7223 H   0  0  0  0  0  0  0  0  0  0  0  0
   -3.9348   -1.0247    1.6737 H   0  0  0  0  0  0  0  0  0  0  0  0
   -3.6280    1.7225   -1.5438 H   0  0  0  0  0  0  0  0  0  0  0  0
   -1.2380    1.5045   -1.5006 H   0  0  0  0  0  0  0  0  0  0  0  0
  1  2  1  0
  2  3  2  0
  3  4  1  0
  4  5  2  0
  5  6  1  0
  6  7  3  0
  5  8  1  0
  8  9  2  0
  8 10  1  0
  3 11  1  0
 11 12  2  0
 12 13  1  0
 13 14  2  0
 14 15  1  0
 15 16  2  0
 10  2  1  0
 16 11  1  0
  1 17  1  0
  1 18  1  0
  1 19  1  0
  4 20  1  0
 10 21  1  0
 12 22  1  0
 13 23  1  0
 15 24  1  0
 16 25  1  0
M  END
$$$$
