@<TRIPOS>MOLECULE
*****
 25 26 0 0 0
SMALL
GASTEIGER

@<TRIPOS>ATOM
      1 C           0.4573   -2.3661    0.1771 C.3     1  UNL1       -0.0238
      2 C           1.1141   -1.0390    0.0399 C.ar    1  UNL1        0.0237
      3 C           0.2836    0.0560    0.0456 C.ar    1  UNL1        0.0026
      4 C           0.9480    1.2813   -0.0876 C.ar    1  UNL1       -0.0297
      5 C           2.3083    1.4133   -0.2149 C.ar    1  UNL1        0.1165
      6 C           2.9180    2.7100   -0.3477 C.1     1  UNL1        0.1046
      7 N           3.4010    3.7552   -0.4493 N.1     1  UNL1       -0.1907
      8 C           3.0846    0.2736   -0.2130 C.ar    1  UNL1        0.2664
      9 O           4.3421    0.3227   -0.3262 O.2     1  UNL1       -0.2665
     10 N           2.4475   -0.9059   -0.0850 N.ar    1  UNL1       -0.3249
     11 C          -1.1710    0.0568    0.1747 C.ar    1  UNL1       -0.0134
     12 C          -1.9933   -0.6304    1.0452 C.ar    1  UNL1       -0.0358
     13 C          -3.3556   -0.4511    0.9566 C.ar    1  UNL1        0.0281
     14 N          -3.8982    0.3749    0.0450 N.ar    1  UNL1       -0.2632
     15 C          -3.1498    1.0706   -0.8287 C.ar    1  UNL1        0.0281
     16 C          -1.7820    0.9056   -0.7572 C.ar    1  UNL1       -0.0358
     17 H           0.4487   -2.6615    1.2465 H       1  UNL1        0.0292
     18 H          -0.5787   -2.3497   -0.2313 H       1  UNL1        0.0292
     19 H           1.0624   -3.1413   -0.3729 H       1  UNL1        0.0292
     20 H           0.3544    2.1962   -0.0917 H       1  UNL1        0.0639
     21 H           2.9920   -1.8189   -0.0767 H       1  UNL1        0.1686
     22 H          -1.4326   -1.2547    1.7223 H       1  UNL1        0.0639
     23 H          -3.9348   -1.0247    1.6737 H       1  UNL1        0.0830
     24 H          -3.6280    1.7225   -1.5438 H       1  UNL1        0.0830
     25 H          -1.2380    1.5045   -1.5006 H       1  UNL1        0.0639
@<TRIPOS>BOND
     1     1     2    1
     2     2     3   ar
     3     3     4   ar
     4     4     5   ar
     5     5     6    1
     6     6     7    3
     7     5     8   ar
     8     8     9    2
     9     8    10   ar
    10     3    11    1
    11    11    12   ar
    12    12    13   ar
    13    13    14   ar
    14    14    15   ar
    15    15    16   ar
    16    10     2   ar
    17    16    11   ar
    18     1    17    1
    19     1    18    1
    20     1    19    1
    21     4    20    1
    22    10    21    1
    23    12    22    1
    24    13    23    1
    25    15    24    1
    26    16    25    1
