@<TRIPOS>MOLECULE
*****
 99 103 0 0 0
SMALL
GASTEIGER

@<TRIPOS>ATOM
      1 C          14.7025    0.2357    0.1467 C.3     1  UNL1        0.0365
      2 O          13.7370   -0.2537   -0.7419 O.3     1  UNL1       -0.3807
      3 C          12.9370    0.8046   -1.1312 C.3     1  UNL1        0.0706
      4 C          11.8552    0.4140   -2.0861 C.3     1  UNL1        0.0711
      5 O          10.9897   -0.5313   -1.5621 O.3     1  UNL1       -0.3752
      6 C          10.3528   -0.1052   -0.4218 C.3     1  UNL1        0.0711
      7 C           9.3868   -1.1539    0.1311 C.3     1  UNL1        0.0711
      8 O           8.4080   -1.4798   -0.7655 O.3     1  UNL1       -0.3752
      9 C           7.5923   -0.4475   -1.1796 C.3     1  UNL1        0.0711
     10 C           6.7773    0.2174   -0.1263 C.3     1  UNL1        0.0711
     11 O           5.8782   -0.5245    0.5516 O.3     1  UNL1       -0.3752
     12 C           6.2453   -1.5951    1.2862 C.3     1  UNL1        0.0711
     13 C           5.0248   -2.2437    1.9282 C.3     1  UNL1        0.0711
     14 O           4.0886   -2.6923    1.0514 O.3     1  UNL1       -0.3752
     15 C           3.4868   -1.8022    0.2199 C.3     1  UNL1        0.0711
     16 C           2.7075   -0.6994    0.9020 C.3     1  UNL1        0.0711
     17 O           2.1423    0.1562   -0.0329 O.3     1  UNL1       -0.3752
     18 C           1.4059    1.1879    0.4684 C.3     1  UNL1        0.0711
     19 C           0.2022    0.8305    1.2695 C.3     1  UNL1        0.0711
     20 O          -0.7264    0.0846    0.5492 O.3     1  UNL1       -0.3752
     21 C          -1.1890    0.7234   -0.5706 C.3     1  UNL1        0.0711
     22 C          -1.8975    2.0166   -0.3417 C.3     1  UNL1        0.0715
     23 O          -3.0202    1.9621    0.4343 O.3     1  UNL1       -0.3706
     24 C          -4.0500    1.1833   -0.0149 C.3     1  UNL1        0.0965
     25 C          -4.3294    0.1183    1.0161 C.3     1  UNL1       -0.0204
     26 C          -5.3222   -0.9278    0.5389 C.3     1  UNL1       -0.0191
     27 C          -6.2142   -0.3764   -0.5158 C.3     1  UNL1        0.0951
     28 O          -5.5743   -0.6127   -1.7502 O.3     1  UNL1       -0.3860
     29 C          -7.5538   -1.0683   -0.6201 C.3     1  UNL1        0.0444
     30 C          -8.4473   -0.8622    0.5452 C.3     1  UNL1       -0.0089
     31 C          -7.9924    0.2329    1.4065 C.ar    1  UNL1       -0.0382
     32 C          -8.4346    0.4473    2.7185 C.ar    1  UNL1       -0.0546
     33 C          -7.9627    1.5056    3.5078 C.ar    1  UNL1       -0.0162
     34 C          -7.0125    2.3972    2.9895 C.ar    1  UNL1        0.1588
     35 O          -6.5013    3.4676    3.7143 O.3     1  UNL1       -0.5033
     36 C          -6.5203    2.2603    1.7032 C.ar    1  UNL1        0.1664
     37 C          -7.0798    1.1803    1.0629 C.ar    1  UNL1        0.0137
     38 C          -6.5116    1.0885   -0.3297 C.3     1  UNL1        0.0701
     39 C          -7.4479    1.5458   -1.3829 C.3     1  UNL1       -0.0242
     40 C          -7.8599    0.5273   -2.3963 C.3     1  UNL1        0.0006
     41 N          -8.1600   -0.7727   -1.8924 N.3     1  UNL1       -0.2927
     42 C          -9.5221   -1.1162   -2.0547 C.3     1  UNL1        0.0172
     43 C          -9.8825   -2.4651   -1.5512 C.2     1  UNL1       -0.0772
     44 C         -10.3808   -3.3974   -2.3277 C.2     1  UNL1       -0.1014
     45 C          -5.3041    1.9739   -0.2516 C.3     1  UNL1        0.1387
     46 O          -5.6180    2.8687    0.8122 O.3     1  UNL1       -0.4813
     47 H          15.3286    1.0280   -0.3553 H       1  UNL1        0.0524
     48 H          14.1889    0.7070    0.9984 H       1  UNL1        0.0524
     49 H          15.4073   -0.5522    0.4472 H       1  UNL1        0.0524
     50 H          12.5422    1.2931   -0.2189 H       1  UNL1        0.0582
     51 H          13.5662    1.5938   -1.6259 H       1  UNL1        0.0582
     52 H          11.2700    1.3282   -2.3589 H       1  UNL1        0.0583
     53 H          12.3104   -0.0287   -2.9990 H       1  UNL1        0.0583
     54 H           9.8048    0.8252   -0.5458 H       1  UNL1        0.0583
     55 H          11.0883    0.0406    0.4278 H       1  UNL1        0.0583
     56 H           9.0397   -0.8586    1.1188 H       1  UNL1        0.0583
     57 H          10.0027   -2.0893    0.2926 H       1  UNL1        0.0583
     58 H           6.9371   -0.8001   -2.0363 H       1  UNL1        0.0583
     59 H           8.2515    0.3121   -1.6886 H       1  UNL1        0.0583
     60 H           7.4812    0.7953    0.5327 H       1  UNL1        0.0583
     61 H           6.1921    1.0471   -0.6358 H       1  UNL1        0.0583
     62 H           6.9265   -1.2191    2.1057 H       1  UNL1        0.0583
     63 H           6.8237   -2.3067    0.6991 H       1  UNL1        0.0583
     64 H           4.6491   -1.6214    2.7709 H       1  UNL1        0.0583
     65 H           5.4431   -3.1627    2.4379 H       1  UNL1        0.0583
     66 H           2.6896   -2.4000   -0.3348 H       1  UNL1        0.0583
     67 H           4.0983   -1.3906   -0.6033 H       1  UNL1        0.0583
     68 H           1.8878   -1.1011    1.5302 H       1  UNL1        0.0583
     69 H           3.3744   -0.1150    1.5626 H       1  UNL1        0.0583
     70 H           1.1927    1.8961   -0.3532 H       1  UNL1        0.0583
     71 H           2.0862    1.7545    1.1688 H       1  UNL1        0.0583
     72 H           0.5063    0.2280    2.1440 H       1  UNL1        0.0583
     73 H          -0.2127    1.7701    1.6963 H       1  UNL1        0.0583
     74 H          -1.9017    0.0165   -1.0634 H       1  UNL1        0.0583
     75 H          -0.3764    0.8499   -1.3490 H       1  UNL1        0.0583
     76 H          -2.0739    2.5532   -1.3212 H       1  UNL1        0.0583
     77 H          -1.1853    2.7063    0.1884 H       1  UNL1        0.0583
     78 H          -3.7953    0.6982   -0.9814 H       1  UNL1        0.0633
     79 H          -4.7057    0.6161    1.9301 H       1  UNL1        0.0292
     80 H          -3.3841   -0.3984    1.2940 H       1  UNL1        0.0292
     81 H          -5.8484   -1.2825    1.4432 H       1  UNL1        0.0294
     82 H          -4.7500   -1.7936    0.1437 H       1  UNL1        0.0294
     83 H          -5.3012   -1.5615   -1.7720 H       1  UNL1        0.2103
     84 H          -7.2994   -2.1653   -0.6697 H       1  UNL1        0.0494
     85 H          -9.4990   -0.6857    0.1840 H       1  UNL1        0.0329
     86 H          -8.5744   -1.8221    1.1354 H       1  UNL1        0.0329
     87 H          -9.1816   -0.2490    3.1354 H       1  UNL1        0.0622
     88 H          -8.3168    1.6559    4.5212 H       1  UNL1        0.0655
     89 H          -6.6620    4.4297    3.3884 H       1  UNL1        0.2923
     90 H          -8.3493    2.0711   -0.9444 H       1  UNL1        0.0288
     91 H          -6.9466    2.3725   -1.9676 H       1  UNL1        0.0288
     92 H          -7.1470    0.4941   -3.2735 H       1  UNL1        0.0427
     93 H          -8.7944    0.9298   -2.8631 H       1  UNL1        0.0427
     94 H          -9.7086   -1.1494   -3.1708 H       1  UNL1        0.0470
     95 H         -10.2372   -0.3363   -1.7104 H       1  UNL1        0.0470
     96 H          -9.8284   -2.9288   -0.5761 H       1  UNL1        0.0579
     97 H         -10.5194   -3.1327   -3.3722 H       1  UNL1        0.0532
     98 H         -10.7202   -4.4080   -2.2508 H       1  UNL1        0.0532
     99 H          -5.1758    2.5908   -1.1615 H       1  UNL1        0.0769
@<TRIPOS>BOND
     1     1     2    1
     2     2     3    1
     3     3     4    1
     4     4     5    1
     5     5     6    1
     6     6     7    1
     7     7     8    1
     8     8     9    1
     9     9    10    1
    10    10    11    1
    11    11    12    1
    12    12    13    1
    13    13    14    1
    14    14    15    1
    15    15    16    1
    16    16    17    1
    17    17    18    1
    18    18    19    1
    19    19    20    1
    20    20    21    1
    21    21    22    1
    22    22    23    1
    23    23    24    1
    24    24    25    1
    25    25    26    1
    26    26    27    1
    27    27    28    1
    28    27    29    1
    29    29    30    1
    30    30    31    1
    31    31    32   ar
    32    32    33   ar
    33    33    34   ar
    34    34    35    1
    35    34    36   ar
    36    36    37   ar
    37    37    38    1
    38    38    39    1
    39    39    40    1
    40    40    41    1
    41    41    42    1
    42    42    43    1
    43    43    44    2
    44    38    45    1
    45    45    46    1
    46    45    24    1
    47    38    27    1
    48    41    29    1
    49    37    31   ar
    50    46    36    1
    51     1    47    1
    52     1    48    1
    53     1    49    1
    54     3    50    1
    55     3    51    1
    56     4    52    1
    57     4    53    1
    58     6    54    1
    59     6    55    1
    60     7    56    1
    61     7    57    1
    62     9    58    1
    63     9    59    1
    64    10    60    1
    65    10    61    1
    66    12    62    1
    67    12    63    1
    68    13    64    1
    69    13    65    1
    70    15    66    1
    71    15    67    1
    72    16    68    1
    73    16    69    1
    74    18    70    1
    75    18    71    1
    76    19    72    1
    77    19    73    1
    78    21    74    1
    79    21    75    1
    80    22    76    1
    81    22    77    1
    82    24    78    1
    83    25    79    1
    84    25    80    1
    85    26    81    1
    86    26    82    1
    87    28    83    1
    88    29    84    1
    89    30    85    1
    90    30    86    1
    91    32    87    1
    92    33    88    1
    93    35    89    1
    94    39    90    1
    95    39    91    1
    96    40    92    1
    97    40    93    1
    98    42    94    1
    99    42    95    1
   100    43    96    1
   101    44    97    1
   102    44    98    1
   103    45    99    1
