@<TRIPOS>MOLECULE
*****
 69 71 0 0 0
SMALL
GASTEIGER

@<TRIPOS>ATOM
      1 C           7.1282    2.4912    1.2694 C.3     1  UNL1       -0.0638
      2 C           6.8326    1.7201   -0.0027 C.3     1  UNL1       -0.0350
      3 C           5.4491    1.1151    0.0309 C.3     1  UNL1        0.0817
      4 S           4.1930    2.3656    0.2008 S.O2    1  UNL1        0.0319
      5 O           4.2880    3.3429   -0.9078 O.2     1  UNL1       -0.1580
      6 O           4.3662    3.0066    1.5488 O.2     1  UNL1       -0.1580
      7 N           2.6726    1.5463    0.2264 N.3     1  UNL1       -0.1787
      8 C           2.5484    0.6455    1.3243 C.3     1  UNL1        0.0329
      9 C           2.0905   -0.7513    0.8825 C.3     1  UNL1        0.0139
     10 N           0.9028   -0.5408    0.0873 N.3     1  UNL1       -0.2927
     11 C           0.0840   -1.7023   -0.0372 C.3     1  UNL1        0.0375
     12 C          -1.1260   -1.4017   -0.8721 C.3     1  UNL1        0.0304
     13 N          -1.9316   -0.3398   -0.2756 N.am    1  UNL1       -0.3094
     14 C          -3.1225    0.1198   -0.8642 C.2     1  UNL1        0.2487
     15 O          -3.4076   -0.4880   -1.9698 O.2     1  UNL1       -0.2700
     16 C          -4.0184    1.1364   -0.4115 C.ar    1  UNL1        0.0917
     17 C          -4.9883    1.5722   -1.3148 C.ar    1  UNL1        0.1360
     18 O          -5.0506    1.0421   -2.5874 O.3     1  UNL1       -0.4942
     19 C          -6.0127    1.4529   -3.5293 C.3     1  UNL1        0.0788
     20 C          -5.8932    2.5274   -0.9645 C.ar    1  UNL1        0.0161
     21 C          -5.8944    3.1051    0.2902 C.ar    1  UNL1        0.1279
     22 F          -6.8143    4.0618    0.6143 F       1  UNL1       -0.2053
     23 C          -4.9613    2.7011    1.1943 C.ar    1  UNL1       -0.0121
     24 C          -4.0300    1.7145    0.8275 C.ar    1  UNL1        0.0260
     25 S          -2.8501    1.2059    2.0844 S.3     1  UNL1       -0.1276
     26 C          -3.5178   -0.1656    3.0273 C.3     1  UNL1       -0.0134
     27 C           0.8911   -2.7927   -0.7012 C.3     1  UNL1       -0.0330
     28 C           0.1542   -4.1144   -0.7268 C.3     1  UNL1       -0.0513
     29 C          -0.4476   -4.4437    0.6218 C.3     1  UNL1       -0.0529
     30 C           0.0718   -3.5210    1.7025 C.3     1  UNL1       -0.0513
     31 C          -0.4052   -2.1216    1.3326 C.3     1  UNL1       -0.0330
     32 C           1.1794    0.1564   -1.1355 C.3     1  UNL1        0.0139
     33 C           2.4489    0.9780   -1.0645 C.3     1  UNL1        0.0329
     34 H           6.6362    3.4783    1.2826 H       1  UNL1        0.0230
     35 H           8.2452    2.6237    1.2974 H       1  UNL1        0.0230
     36 H           6.8591    1.8502    2.1239 H       1  UNL1        0.0230
     37 H           7.5517    0.8768   -0.0264 H       1  UNL1        0.0279
     38 H           7.0195    2.3415   -0.8875 H       1  UNL1        0.0279
     39 H           5.3984    0.4260    0.8962 H       1  UNL1        0.0515
     40 H           5.2692    0.5573   -0.8878 H       1  UNL1        0.0515
     41 H           3.5066    0.5730    1.8779 H       1  UNL1        0.0456
     42 H           1.7783    1.0335    2.0502 H       1  UNL1        0.0456
     43 H           2.9288   -1.1750    0.3077 H       1  UNL1        0.0440
     44 H           1.8796   -1.3075    1.7925 H       1  UNL1        0.0440
     45 H          -0.8924   -1.0910   -1.9012 H       1  UNL1        0.0480
     46 H          -1.7652   -2.3119   -0.9382 H       1  UNL1        0.0480
     47 H          -1.5805    0.0632    0.5814 H       1  UNL1        0.1491
     48 H          -7.0086    1.3855   -3.0383 H       1  UNL1        0.0660
     49 H          -6.0279    0.7246   -4.3842 H       1  UNL1        0.0660
     50 H          -5.8044    2.4469   -3.9561 H       1  UNL1        0.0660
     51 H          -6.6504    2.8621   -1.6839 H       1  UNL1        0.0683
     52 H          -4.9256    3.1228    2.1798 H       1  UNL1        0.0657
     53 H          -3.9619   -0.9457    2.3855 H       1  UNL1        0.0344
     54 H          -2.7125   -0.5562    3.6829 H       1  UNL1        0.0344
     55 H          -4.3174    0.2110    3.7126 H       1  UNL1        0.0344
     56 H           1.0157   -2.4993   -1.7722 H       1  UNL1        0.0284
     57 H           1.8870   -2.9344   -0.2824 H       1  UNL1        0.0284
     58 H          -0.5852   -4.1740   -1.5517 H       1  UNL1        0.0266
     59 H           0.9155   -4.8973   -0.9418 H       1  UNL1        0.0266
     60 H          -0.2460   -5.4914    0.9317 H       1  UNL1        0.0265
     61 H          -1.5497   -4.3423    0.5294 H       1  UNL1        0.0265
     62 H          -0.4437   -3.7919    2.6325 H       1  UNL1        0.0266
     63 H           1.1571   -3.6089    1.7238 H       1  UNL1        0.0266
     64 H          -1.5203   -2.1701    1.3788 H       1  UNL1        0.0284
     65 H          -0.1291   -1.3714    2.1172 H       1  UNL1        0.0284
     66 H           1.2818   -0.4958   -2.0250 H       1  UNL1        0.0440
     67 H           0.3384    0.8677   -1.3203 H       1  UNL1        0.0440
     68 H           2.3377    1.8044   -1.7960 H       1  UNL1        0.0456
     69 H           3.2858    0.2919   -1.2968 H       1  UNL1        0.0456
@<TRIPOS>BOND
     1     1     2    1
     2     2     3    1
     3     3     4    1
     4     4     5    2
     5     4     6    2
     6     4     7    1
     7     7     8    1
     8     8     9    1
     9     9    10    1
    10    10    11    1
    11    11    12    1
    12    12    13    1
    13    13    14   am
    14    14    15    2
    15    14    16    1
    16    16    17   ar
    17    17    18    1
    18    18    19    1
    19    17    20   ar
    20    20    21   ar
    21    21    22    1
    22    21    23   ar
    23    23    24   ar
    24    24    25    1
    25    25    26    1
    26    11    27    1
    27    27    28    1
    28    28    29    1
    29    29    30    1
    30    30    31    1
    31    10    32    1
    32    32    33    1
    33    33     7    1
    34    31    11    1
    35    24    16   ar
    36     1    34    1
    37     1    35    1
    38     1    36    1
    39     2    37    1
    40     2    38    1
    41     3    39    1
    42     3    40    1
    43     8    41    1
    44     8    42    1
    45     9    43    1
    46     9    44    1
    47    12    45    1
    48    12    46    1
    49    13    47    1
    50    19    48    1
    51    19    49    1
    52    19    50    1
    53    20    51    1
    54    23    52    1
    55    26    53    1
    56    26    54    1
    57    26    55    1
    58    27    56    1
    59    27    57    1
    60    28    58    1
    61    28    59    1
    62    29    60    1
    63    29    61    1
    64    30    62    1
    65    30    63    1
    66    31    64    1
    67    31    65    1
    68    32    66    1
    69    32    67    1
    70    33    68    1
    71    33    69    1
