@<TRIPOS>MOLECULE
*****
 73 77 0 0 0
SMALL
GASTEIGER

@<TRIPOS>ATOM
      1 C           9.5568   -2.1975   -2.5297 C.3     1  UNL1       -0.0306
      2 C           8.6855   -2.9769   -1.5818 C.3     1  UNL1        0.0885
      3 O           7.6683   -2.1365   -1.0222 O.3     1  UNL1       -0.4744
      4 C           7.9773   -1.0190   -0.2859 C.ar    1  UNL1        0.2555
      5 N           9.1846   -0.5580    0.0115 N.ar    1  UNL1       -0.1317
      6 N           9.1182    0.5328    0.7323 N.ar    1  UNL1       -0.2692
      7 C          10.2595    1.2861    1.2200 C.3     1  UNL1        0.0304
      8 C           7.8147    0.8091    0.9225 C.ar    1  UNL1        0.0503
      9 C           7.0482   -0.1481    0.2946 C.ar    1  UNL1        0.1152
     10 N           5.6609   -0.2940    0.2032 N.pl3   1  UNL1       -0.2782
     11 C           4.7373    0.5955    0.8234 C.ar    1  UNL1        0.2203
     12 N           5.1386    1.6320    1.5526 N.ar    1  UNL1       -0.2198
     13 C           4.2552    2.4451    2.1272 C.ar    1  UNL1        0.0685
     14 C           2.8972    2.2380    1.9844 C.ar    1  UNL1        0.1674
     15 F           2.0114    3.0866    2.5839 F       1  UNL1       -0.2016
     16 C           2.4814    1.1679    1.2313 C.ar    1  UNL1        0.1132
     17 C           1.0508    0.8998    1.0392 C.ar    1  UNL1        0.0284
     18 C           0.0747    0.6932    1.9851 C.ar    1  UNL1        0.0121
     19 N          -1.1064    0.4674    1.3746 N.ar    1  UNL1       -0.3586
     20 C          -0.9018    0.5263    0.0371 C.ar    1  UNL1        0.0686
     21 C          -1.7574    0.3754   -1.0204 C.ar    1  UNL1        0.0576
     22 N          -3.1350    0.0880   -0.8369 N.am    1  UNL1       -0.2825
     23 C          -4.0905    1.1157   -0.6675 C.2     1  UNL1        0.2342
     24 O          -3.6690    2.3035   -0.6916 O.2     1  UNL1       -0.2738
     25 C          -5.5625    0.8227   -0.4651 C.3     1  UNL1        0.0850
     26 C          -6.2741    1.6356   -1.4790 C.3     1  UNL1       -0.0409
     27 N          -5.7530   -0.5156   -0.3174 N.3     1  UNL1       -0.2866
     28 C          -5.1604   -1.0472    0.8881 C.3     1  UNL1        0.0127
     29 C          -6.1465   -1.1089    2.0143 C.3     1  UNL1        0.0115
     30 N          -7.5040   -1.2095    1.6960 N.3     1  UNL1       -0.3027
     31 C          -8.3833   -0.3400    2.4439 C.3     1  UNL1       -0.0127
     32 C          -7.9149   -1.4517    0.3782 C.3     1  UNL1        0.0140
     33 C          -6.8466   -1.2802   -0.6775 C.3     1  UNL1        0.0211
     34 C          -7.4860   -1.0252   -2.0242 C.3     1  UNL1       -0.0483
     35 C          -1.2667    0.4958   -2.2990 C.ar    1  UNL1       -0.0384
     36 C           0.0723    0.7658   -2.5599 C.ar    1  UNL1       -0.0593
     37 C           0.9108    0.9126   -1.4990 C.ar    1  UNL1       -0.0518
     38 C           0.4314    0.7941   -0.1910 C.ar    1  UNL1        0.0107
     39 N           3.4115    0.3844    0.6772 N.ar    1  UNL1       -0.2113
     40 H           9.0818   -1.2384   -2.8293 H       1  UNL1        0.0262
     41 H          10.5711   -2.0154   -2.0748 H       1  UNL1        0.0262
     42 H           9.7178   -2.8074   -3.4407 H       1  UNL1        0.0262
     43 H           8.2212   -3.8098   -2.1475 H       1  UNL1        0.0694
     44 H           9.2954   -3.3981   -0.7300 H       1  UNL1        0.0694
     45 H           9.8833    2.0073    1.9753 H       1  UNL1        0.0473
     46 H          10.6423    1.8937    0.3603 H       1  UNL1        0.0473
     47 H          11.0464    0.6520    1.6597 H       1  UNL1        0.0473
     48 H           7.4603    1.6652    1.4910 H       1  UNL1        0.0846
     49 H           5.2593   -1.0938   -0.3457 H       1  UNL1        0.1552
     50 H           4.6115    3.3039    2.7304 H       1  UNL1        0.0861
     51 H           0.2609    0.7158    3.0532 H       1  UNL1        0.0814
     52 H          -2.0349    0.2767    1.8240 H       1  UNL1        0.1654
     53 H          -3.3950   -0.9194   -0.8462 H       1  UNL1        0.1549
     54 H          -5.7633    1.3543    0.5238 H       1  UNL1        0.0556
     55 H          -5.9288    2.7053   -1.3034 H       1  UNL1        0.0249
     56 H          -7.3834    1.7333   -1.3049 H       1  UNL1        0.0249
     57 H          -6.0070    1.4610   -2.5319 H       1  UNL1        0.0249
     58 H          -4.7586   -2.0849    0.7243 H       1  UNL1        0.0439
     59 H          -4.3117   -0.4185    1.2520 H       1  UNL1        0.0439
     60 H          -6.0148   -0.2155    2.6964 H       1  UNL1        0.0439
     61 H          -5.8575   -1.9736    2.6758 H       1  UNL1        0.0439
     62 H          -7.9446    0.0729    3.3503 H       1  UNL1        0.0391
     63 H          -8.5974    0.5413    1.7755 H       1  UNL1        0.0391
     64 H          -9.3500   -0.8441    2.5860 H       1  UNL1        0.0391
     65 H          -8.3786   -2.4820    0.3336 H       1  UNL1        0.0442
     66 H          -8.7434   -0.7649    0.1121 H       1  UNL1        0.0442
     67 H          -6.4383   -2.3417   -0.7956 H       1  UNL1        0.0473
     68 H          -6.7589   -0.7845   -2.7969 H       1  UNL1        0.0245
     69 H          -8.3631   -0.3323   -1.9645 H       1  UNL1        0.0245
     70 H          -7.9721   -1.9840   -2.3882 H       1  UNL1        0.0245
     71 H          -1.9133    0.3836   -3.1797 H       1  UNL1        0.0637
     72 H           0.4054    0.8501   -3.5949 H       1  UNL1        0.0618
     73 H           1.9694    1.1265   -1.6568 H       1  UNL1        0.0624
@<TRIPOS>BOND
     1     1     2    1
     2     2     3    1
     3     3     4    1
     4     4     5   ar
     5     5     6   ar
     6     6     7    1
     7     6     8   ar
     8     8     9   ar
     9     9    10    1
    10    10    11    1
    11    11    12   ar
    12    12    13   ar
    13    13    14   ar
    14    14    15    1
    15    14    16   ar
    16    16    17    1
    17    17    18   ar
    18    18    19   ar
    19    19    20   ar
    20    20    21   ar
    21    21    22    1
    22    22    23   am
    23    23    24    2
    24    23    25    1
    25    25    26    1
    26    25    27    1
    27    27    28    1
    28    28    29    1
    29    29    30    1
    30    30    31    1
    31    30    32    1
    32    32    33    1
    33    33    34    1
    34    21    35   ar
    35    35    36   ar
    36    36    37   ar
    37    37    38   ar
    38    16    39   ar
    39     9     4   ar
    40    39    11   ar
    41    38    17   ar
    42    38    20   ar
    43    33    27    1
    44     1    40    1
    45     1    41    1
    46     1    42    1
    47     2    43    1
    48     2    44    1
    49     7    45    1
    50     7    46    1
    51     7    47    1
    52     8    48    1
    53    10    49    1
    54    13    50    1
    55    18    51    1
    56    19    52    1
    57    22    53    1
    58    25    54    1
    59    26    55    1
    60    26    56    1
    61    26    57    1
    62    28    58    1
    63    28    59    1
    64    29    60    1
    65    29    61    1
    66    31    62    1
    67    31    63    1
    68    31    64    1
    69    32    65    1
    70    32    66    1
    71    33    67    1
    72    34    68    1
    73    34    69    1
    74    34    70    1
    75    35    71    1
    76    36    72    1
    77    37    73    1
