
     RDKit          3D

 72 76  0  0  0  0  0  0  0  0999 V2000
    3.8902    6.3015   -1.1986 C   0  0  0  0  0  0  0  0  0  0  0  0
    2.7303    5.6916   -0.8843 C   0  0  0  0  0  0  0  0  0  0  0  0
    1.6273    5.9369   -1.8745 C   0  0  0  0  0  0  0  0  0  0  0  0
    1.1636    4.6988   -2.5630 C   0  0  0  0  0  0  0  0  0  0  0  0
    2.1480    3.6587   -2.1888 N   0  0  0  0  0  0  0  0  0  0  0  0
    1.6719    2.4556   -1.5978 C   0  0  0  0  0  0  0  0  0  0  0  0
    2.3073    1.2740   -1.5638 N   0  0  0  0  0  0  0  0  0  0  0  0
    1.7480    0.2548   -0.8672 C   0  0  0  0  0  0  0  0  0  0  0  0
    2.5922   -0.9174   -0.8932 N   0  0  0  0  0  0  0  0  0  0  0  0
    3.9171   -0.7929   -0.3675 C   0  0  0  0  0  0  0  0  0  0  0  0
    4.3329   -1.8898    0.5191 C   0  0  0  0  0  0  0  0  0  0  0  0
    3.4930   -2.3118    1.5255 C   0  0  0  0  0  0  0  0  0  0  0  0
    4.4992   -3.5533    2.3384 S   0  0  0  0  0  0  0  0  0  0  0  0
    5.9639   -3.2604    1.1049 C   0  0  0  0  0  0  0  0  0  0  0  0
    7.0677   -4.1997    1.3837 C   0  0  0  0  0  0  0  0  0  0  0  0
    7.1815   -5.4122    0.7131 C   0  0  0  0  0  0  0  0  0  0  0  0
    8.0783   -6.2555    1.1732 C   0  0  0  0  0  0  0  0  0  0  0  0
    8.9162   -5.9409    2.2126 C   0  0  0  0  0  0  0  0  0  0  0  0
    8.2872   -4.2407    2.5969 S   0  0  0  0  0  0  0  0  0  0  0  0
    5.5087   -2.4945    0.4818 N   0  0  0  0  0  0  0  0  0  0  0  0
    0.6128    0.3666   -0.2369 N   0  0  0  0  0  0  0  0  0  0  0  0
   -0.0413    1.5586   -0.2825 C   0  0  0  0  0  0  0  0  0  0  0  0
   -1.1437    1.7257    0.4861 N   0  0  0  0  0  0  0  0  0  0  0  0
   -1.6790    2.9534    1.0531 C   0  0  0  0  0  0  0  0  0  0  0  0
   -1.4692    2.4452    2.5223 C   0  0  0  0  0  0  0  0  0  0  0  0
   -1.5380    0.9455    2.4829 C   0  0  0  0  0  0  0  0  0  0  0  0
   -2.0319    0.8074    0.9975 C   0  0  2  0  0  0  0  0  0  0  0  0
   -2.3321   -0.5064    0.5599 C   0  0  0  0  0  0  0  0  0  0  0  0
   -2.3740   -0.4305   -0.9289 N   0  0  0  0  0  0  0  0  0  0  0  0
   -4.0195   -0.4660   -1.2334 S   0  0  0  0  0  6  0  0  0  0  0  0
   -4.0857   -0.4400   -2.7952 O   0  0  0  0  0  0  0  0  0  0  0  0
   -4.4262    1.1259   -1.0376 O   0  0  0  0  0  0  0  0  0  0  0  0
   -5.2295   -1.4355   -0.6939 C   0  0  0  0  0  0  0  0  0  0  0  0
   -5.5441   -2.6187   -1.2601 C   0  0  0  0  0  0  0  0  0  0  0  0
   -6.7415   -3.2575   -0.9114 C   0  0  0  0  0  0  0  0  0  0  0  0
   -7.5983   -2.6662   -0.0170 C   0  0  0  0  0  0  0  0  0  0  0  0
   -8.9384   -3.3095    0.0794 C   0  0  0  0  0  0  0  0  0  0  0  0
   -9.6478   -2.7718    1.0950 F   0  0  0  0  0  0  0  0  0  0  0  0
   -8.7839   -4.6685    0.0601 F   0  0  0  0  0  0  0  0  0  0  0  0
   -9.5406   -2.9172   -1.1518 F   0  0  0  0  0  0  0  0  0  0  0  0
   -7.2857   -1.4863    0.5962 C   0  0  0  0  0  0  0  0  0  0  0  0
   -6.1231   -0.8818    0.2741 C   0  0  0  0  0  0  0  0  0  0  0  0
    0.5083    2.6144   -0.9806 N   0  0  0  0  0  0  0  0  0  0  0  0
    4.0919    6.9488   -2.0936 H   0  0  0  0  0  0  0  0  0  0  0  0
    4.6428    6.2780   -0.4186 H   0  0  0  0  0  0  0  0  0  0  0  0
    2.6395    5.0417   -0.0615 H   0  0  0  0  0  0  0  0  0  0  0  0
    0.7830    6.3160   -1.1634 H   0  0  0  0  0  0  0  0  0  0  0  0
    1.8139    6.7396   -2.5433 H   0  0  0  0  0  0  0  0  0  0  0  0
    1.0983    4.8202   -3.6538 H   0  0  0  0  0  0  0  0  0  0  0  0
    0.1831    4.3946   -2.1799 H   0  0  0  0  0  0  0  0  0  0  0  0
    3.1457    3.8075   -2.3106 H   0  0  0  0  0  0  0  0  0  0  0  0
    2.1992   -1.8050   -1.2571 H   0  0  0  0  0  0  0  0  0  0  0  0
    4.0683    0.1834    0.1029 H   0  0  0  0  0  0  0  0  0  0  0  0
    4.5677   -0.7972   -1.3231 H   0  0  0  0  0  0  0  0  0  0  0  0
    2.4643   -2.0412    1.7464 H   0  0  0  0  0  0  0  0  0  0  0  0
    6.5913   -5.5987   -0.2180 H   0  0  0  0  0  0  0  0  0  0  0  0
    8.0686   -7.3433    0.8243 H   0  0  0  0  0  0  0  0  0  0  0  0
    9.6865   -6.4474    2.7355 H   0  0  0  0  0  0  0  0  0  0  0  0
   -2.7200    3.0677    0.8471 H   0  0  0  0  0  0  0  0  0  0  0  0
   -1.0509    3.7909    0.8116 H   0  0  0  0  0  0  0  0  0  0  0  0
   -2.3386    2.7920    3.1074 H   0  0  0  0  0  0  0  0  0  0  0  0
   -0.4549    2.7770    2.8323 H   0  0  0  0  0  0  0  0  0  0  0  0
   -0.4622    0.5776    2.4505 H   0  0  0  0  0  0  0  0  0  0  0  0
   -2.1926    0.4565    3.1948 H   0  0  0  0  0  0  0  0  0  0  0  0
   -3.1127    1.3056    1.1167 H   0  0  0  0  0  0  0  0  0  0  0  0
   -1.2539   -1.1282    0.5815 H   0  0  0  0  0  0  0  0  0  0  0  0
   -2.8822   -1.2292    0.9792 H   0  0  0  0  0  0  0  0  0  0  0  0
   -1.6944   -0.2747   -1.4951 H   0  0  0  0  0  0  0  0  0  0  0  0
   -4.8565   -3.0200   -2.0196 H   0  0  0  0  0  0  0  0  0  0  0  0
   -6.8826   -4.2295   -1.3802 H   0  0  0  0  0  0  0  0  0  0  0  0
   -7.9925   -1.1024    1.3207 H   0  0  0  0  0  0  0  0  0  0  0  0
   -5.8225    0.0301    0.7389 H   0  0  0  0  0  0  0  0  0  0  0  0
  1  2  2  3
  2  3  1  0
  3  4  1  0
  4  5  1  0
  5  6  1  0
  6  7  2  0
  7  8  1  0
  8  9  1  0
  9 10  1  0
 10 11  1  0
 11 12  2  0
 12 13  1  0
 13 14  1  0
 14 15  1  0
 15 16  2  0
 16 17  1  0
 17 18  2  0
 18 19  1  0
 14 20  2  0
  8 21  2  0
 21 22  1  0
 22 23  1  0
 23 24  1  0
 24 25  1  0
 25 26  1  0
 26 27  1  0
 27 28  1  0
 28 29  1  0
 29 30  1  0
 30 31  2  0
 30 32  2  0
 30 33  1  0
 33 34  2  0
 34 35  1  0
 35 36  2  0
 36 37  1  0
 37 38  1  0
 37 39  1  0
 37 40  1  0
 36 41  1  0
 41 42  2  0
 22 43  2  0
 43  6  1  0
 20 11  1  0
 27 23  1  0
 42 33  1  0
 19 15  1  0
  1 44  1  0
  1 45  1  0
  2 46  1  0
  3 47  1  0
  3 48  1  0
  4 49  1  0
  4 50  1  0
  5 51  1  0
  9 52  1  0
 10 53  1  0
 10 54  1  0
 12 55  1  0
 16 56  1  0
 17 57  1  0
 18 58  1  0
 24 59  1  0
 24 60  1  0
 25 61  1  0
 25 62  1  0
 26 63  1  0
 26 64  1  0
 27 65  1  1
 28 66  1  0
 28 67  1  0
 29 68  1  0
 34 69  1  0
 35 70  1  0
 41 71  1  0
 42 72  1  0
M  END
$$$$
