@<TRIPOS>MOLECULE
*****
 72 76 0 0 0
SMALL
GASTEIGER

@<TRIPOS>ATOM
      1 C           3.8902    6.3015   -1.1986 C.2     1  UNL1       -0.1026
      2 C           2.7303    5.6916   -0.8843 C.2     1  UNL1       -0.0896
      3 C           1.6273    5.9369   -1.8745 C.3     1  UNL1       -0.0194
      4 C           1.1636    4.6988   -2.5630 C.3     1  UNL1        0.0152
      5 N           2.1480    3.6587   -2.1888 N.pl3   1  UNL1       -0.3130
      6 C           1.6719    2.4556   -1.5978 C.ar    1  UNL1        0.2211
      7 N           2.3073    1.2740   -1.5638 N.ar    1  UNL1       -0.1810
      8 C           1.7480    0.2548   -0.8672 C.ar    1  UNL1        0.2214
      9 N           2.5922   -0.9174   -0.8932 N.pl3   1  UNL1       -0.3077
     10 C           3.9171   -0.7929   -0.3675 C.3     1  UNL1        0.0547
     11 C           4.3329   -1.8898    0.5191 C.ar    1  UNL1        0.0662
     12 C           3.4930   -2.3118    1.5255 C.ar    1  UNL1        0.0005
     13 S           4.4992   -3.5533    2.3384 S.2     1  UNL1       -0.0748
     14 C           5.9639   -3.2604    1.1049 C.ar    1  UNL1        0.1151
     15 C           7.0677   -4.1997    1.3837 C.ar    1  UNL1        0.0443
     16 C           7.1815   -5.4122    0.7131 C.ar    1  UNL1       -0.0449
     17 C           8.0783   -6.2555    1.1732 C.ar    1  UNL1       -0.0541
     18 C           8.9162   -5.9409    2.2126 C.ar    1  UNL1       -0.0237
     19 S           8.2872   -4.2407    2.5969 S.2     1  UNL1       -0.0946
     20 N           5.5087   -2.4945    0.4818 N.ar    1  UNL1       -0.2419
     21 N           0.6128    0.3666   -0.2369 N.ar    1  UNL1       -0.1809
     22 C          -0.0413    1.5586   -0.2825 C.ar    1  UNL1        0.2239
     23 N          -1.1437    1.7257    0.4861 N.pl3   1  UNL1       -0.2952
     24 C          -1.6790    2.9534    1.0531 C.3     1  UNL1        0.0153
     25 C          -1.4692    2.4452    2.5223 C.3     1  UNL1       -0.0354
     26 C          -1.5380    0.9455    2.4829 C.3     1  UNL1       -0.0316
     27 C          -2.0319    0.8074    0.9975 C.3     1  UNL1        0.0403
     28 C          -2.3321   -0.5064    0.5599 C.3     1  UNL1        0.0361
     29 N          -2.3740   -0.4305   -0.9289 N.3     1  UNL1       -0.1882
     30 S          -4.0195   -0.4660   -1.2334 S.O2    1  UNL1        0.0585
     31 O          -4.0857   -0.4400   -2.7952 O.2     1  UNL1       -0.1530
     32 O          -4.4262    1.1259   -1.0376 O.2     1  UNL1       -0.1530
     33 C          -5.2295   -1.4355   -0.6939 C.ar    1  UNL1        0.1053
     34 C          -5.5441   -2.6187   -1.2601 C.ar    1  UNL1       -0.0348
     35 C          -6.7415   -3.2575   -0.9114 C.ar    1  UNL1       -0.0483
     36 C          -7.5983   -2.6662   -0.0170 C.ar    1  UNL1        0.0549
     37 C          -8.9384   -3.3095    0.0794 C.3     1  UNL1        0.4174
     38 F          -9.6478   -2.7718    1.0950 F       1  UNL1       -0.1659
     39 F          -8.7839   -4.6685    0.0601 F       1  UNL1       -0.1659
     40 F          -9.5406   -2.9172   -1.1518 F       1  UNL1       -0.1659
     41 C          -7.2857   -1.4863    0.5962 C.ar    1  UNL1       -0.0483
     42 C          -6.1231   -0.8818    0.2741 C.ar    1  UNL1       -0.0348
     43 N           0.5083    2.6144   -0.9806 N.ar    1  UNL1       -0.1809
     44 H           4.0919    6.9488   -2.0936 H       1  UNL1        0.0532
     45 H           4.6428    6.2780   -0.4186 H       1  UNL1        0.0532
     46 H           2.6395    5.0417   -0.0615 H       1  UNL1        0.0567
     47 H           0.7830    6.3160   -1.1634 H       1  UNL1        0.0322
     48 H           1.8139    6.7396   -2.5433 H       1  UNL1        0.0322
     49 H           1.0983    4.8202   -3.6538 H       1  UNL1        0.0465
     50 H           0.1831    4.3946   -2.1799 H       1  UNL1        0.0465
     51 H           3.1457    3.8075   -2.3106 H       1  UNL1        0.1489
     52 H           2.1992   -1.8050   -1.2571 H       1  UNL1        0.1493
     53 H           4.0683    0.1834    0.1029 H       1  UNL1        0.0527
     54 H           4.5677   -0.7972   -1.3231 H       1  UNL1        0.0527
     55 H           2.4643   -2.0412    1.7464 H       1  UNL1        0.0712
     56 H           6.5913   -5.5987   -0.2180 H       1  UNL1        0.0630
     57 H           8.0686   -7.3433    0.8243 H       1  UNL1        0.0623
     58 H           9.6865   -6.4474    2.7355 H       1  UNL1        0.0693
     59 H          -2.7200    3.0677    0.8471 H       1  UNL1        0.0465
     60 H          -1.0509    3.7909    0.8116 H       1  UNL1        0.0465
     61 H          -2.3386    2.7920    3.1074 H       1  UNL1        0.0281
     62 H          -0.4549    2.7770    2.8323 H       1  UNL1        0.0281
     63 H          -0.4622    0.5776    2.4505 H       1  UNL1        0.0284
     64 H          -2.1926    0.4565    3.1948 H       1  UNL1        0.0284
     65 H          -3.1127    1.3056    1.1167 H       1  UNL1        0.0514
     66 H          -1.2539   -1.1282    0.5815 H       1  UNL1        0.0460
     67 H          -2.8822   -1.2292    0.9792 H       1  UNL1        0.0460
     68 H          -1.6944   -0.2747   -1.4951 H       1  UNL1        0.1481
     69 H          -4.8565   -3.0200   -2.0196 H       1  UNL1        0.0637
     70 H          -6.8826   -4.2295   -1.3802 H       1  UNL1        0.0624
     71 H          -7.9925   -1.1024    1.3207 H       1  UNL1        0.0624
     72 H          -5.8225    0.0301    0.7389 H       1  UNL1        0.0637
@<TRIPOS>BOND
     1     1     2    2
     2     2     3    1
     3     3     4    1
     4     4     5    1
     5     5     6    1
     6     6     7   ar
     7     7     8   ar
     8     8     9    1
     9     9    10    1
    10    10    11    1
    11    11    12   ar
    12    12    13   ar
    13    13    14   ar
    14    14    15    1
    15    15    16   ar
    16    16    17   ar
    17    17    18   ar
    18    18    19   ar
    19    14    20   ar
    20     8    21   ar
    21    21    22   ar
    22    22    23    1
    23    23    24    1
    24    24    25    1
    25    25    26    1
    26    26    27    1
    27    27    28    1
    28    28    29    1
    29    29    30    1
    30    30    31    2
    31    30    32    2
    32    30    33    1
    33    33    34   ar
    34    34    35   ar
    35    35    36   ar
    36    36    37    1
    37    37    38    1
    38    37    39    1
    39    37    40    1
    40    36    41   ar
    41    41    42   ar
    42    22    43   ar
    43    43     6   ar
    44    20    11   ar
    45    27    23    1
    46    42    33   ar
    47    19    15   ar
    48     1    44    1
    49     1    45    1
    50     2    46    1
    51     3    47    1
    52     3    48    1
    53     4    49    1
    54     4    50    1
    55     5    51    1
    56     9    52    1
    57    10    53    1
    58    10    54    1
    59    12    55    1
    60    16    56    1
    61    17    57    1
    62    18    58    1
    63    24    59    1
    64    24    60    1
    65    25    61    1
    66    25    62    1
    67    26    63    1
    68    26    64    1
    69    27    65    1
    70    28    66    1
    71    28    67    1
    72    29    68    1
    73    34    69    1
    74    35    70    1
    75    41    71    1
    76    42    72    1
