@<TRIPOS>MOLECULE
*****
 54 57 0 0 0
SMALL
GASTEIGER

@<TRIPOS>ATOM
      1 O          -4.8621    1.1311   -2.2833 O.2     1  UNL1       -0.2756
      2 C          -5.6009    0.5867   -1.4153 C.2     1  UNL1        0.2157
      3 C          -6.8769   -0.1576   -1.6549 C.3     1  UNL1        0.0256
      4 C          -6.9910   -1.0128   -0.4143 C.3     1  UNL1       -0.0289
      5 C          -6.3214   -0.2134    0.6963 C.3     1  UNL1        0.0152
      6 N          -5.3258    0.5956   -0.0218 N.am    1  UNL1       -0.2987
      7 C          -4.2496    1.2727    0.6584 C.3     1  UNL1        0.0436
      8 C          -3.0087    0.4191    0.7889 C.3     1  UNL1        0.0846
      9 O          -3.3785   -0.7134    1.5171 O.3     1  UNL1       -0.3869
     10 C          -1.9501    1.1280    1.5692 C.3     1  UNL1       -0.0066
     11 C          -0.6778    1.3669    0.7879 C.3     1  UNL1        0.0175
     12 N          -0.1878    0.1987    0.1146 N.pl3   1  UNL1       -0.2994
     13 C           1.2018   -0.0815    0.0043 C.ar    1  UNL1        0.2214
     14 N           2.1438    0.7257    0.5084 N.ar    1  UNL1       -0.1790
     15 C           3.4596    0.4993    0.4254 C.ar    1  UNL1        0.2254
     16 O           4.4059    1.3539    0.9572 O.3     1  UNL1       -0.4378
     17 C           5.7519    1.0408    0.8227 C.ar    1  UNL1        0.1331
     18 C           6.4120    0.2831    1.7749 C.ar    1  UNL1       -0.0191
     19 C           7.7402   -0.0420    1.6693 C.ar    1  UNL1       -0.0556
     20 C           8.4863    0.3758    0.5981 C.ar    1  UNL1       -0.0262
     21 C           7.8430    1.1373   -0.3686 C.ar    1  UNL1        0.1269
     22 F           8.5720    1.5606   -1.4403 F       1  UNL1       -0.2054
     23 C           6.5100    1.4549   -0.2481 C.ar    1  UNL1        0.0160
     24 C           3.8403   -0.6697   -0.2399 C.ar    1  UNL1        0.0305
     25 C           2.8986   -1.5224   -0.7703 C.ar    1  UNL1        0.1522
     26 C           3.3536   -2.7447   -1.4632 C.3     1  UNL1        0.4345
     27 F           3.9931   -2.4026   -2.6400 F       1  UNL1       -0.1644
     28 F           2.3295   -3.6365   -1.6901 F       1  UNL1       -0.1644
     29 F           4.3284   -3.3199   -0.6390 F       1  UNL1       -0.1644
     30 N           1.6063   -1.2027   -0.6323 N.ar    1  UNL1       -0.2101
     31 C          -1.1610   -0.7052   -0.4629 C.3     1  UNL1        0.0175
     32 C          -2.5041   -0.0187   -0.5786 C.3     1  UNL1       -0.0066
     33 H          -6.8459   -0.7561   -2.5800 H       1  UNL1        0.0359
     34 H          -7.7244    0.5808   -1.6550 H       1  UNL1        0.0359
     35 H          -8.0486   -1.2238   -0.2096 H       1  UNL1        0.0285
     36 H          -6.4638   -1.9885   -0.5697 H       1  UNL1        0.0285
     37 H          -7.0383    0.4651    1.1968 H       1  UNL1        0.0465
     38 H          -5.8298   -0.9258    1.3778 H       1  UNL1        0.0465
     39 H          -4.5703    1.5577    1.6803 H       1  UNL1        0.0493
     40 H          -3.9925    2.2425    0.1460 H       1  UNL1        0.0493
     41 H          -3.4914   -1.5095    0.9579 H       1  UNL1        0.2102
     42 H          -2.3216    2.1345    1.8737 H       1  UNL1        0.0309
     43 H          -1.6764    0.5979    2.5019 H       1  UNL1        0.0309
     44 H          -0.8482    2.1990    0.0635 H       1  UNL1        0.0465
     45 H           0.0791    1.7284    1.5211 H       1  UNL1        0.0465
     46 H           5.8263   -0.0505    2.6249 H       1  UNL1        0.0654
     47 H           8.1970   -0.6330    2.4405 H       1  UNL1        0.0620
     48 H           9.5530    0.1249    0.4963 H       1  UNL1        0.0646
     49 H           6.0584    2.0479   -1.0249 H       1  UNL1        0.0683
     50 H           4.9160   -0.8663   -0.3144 H       1  UNL1        0.0692
     51 H          -1.1967   -1.6041    0.1629 H       1  UNL1        0.0465
     52 H          -0.8211   -0.9442   -1.4832 H       1  UNL1        0.0465
     53 H          -2.3420    0.8514   -1.2466 H       1  UNL1        0.0309
     54 H          -3.1995   -0.7154   -1.0691 H       1  UNL1        0.0309
@<TRIPOS>BOND
     1     1     2    2
     2     2     3    1
     3     3     4    1
     4     4     5    1
     5     5     6    1
     6     6     7    1
     7     7     8    1
     8     8     9    1
     9     8    10    1
    10    10    11    1
    11    11    12    1
    12    12    13    1
    13    13    14   ar
    14    14    15   ar
    15    15    16    1
    16    16    17    1
    17    17    18   ar
    18    18    19   ar
    19    19    20   ar
    20    20    21   ar
    21    21    22    1
    22    21    23   ar
    23    15    24   ar
    24    24    25   ar
    25    25    26    1
    26    26    27    1
    27    26    28    1
    28    26    29    1
    29    25    30   ar
    30    12    31    1
    31    31    32    1
    32     6     2   am
    33    32     8    1
    34    30    13   ar
    35    23    17   ar
    36     3    33    1
    37     3    34    1
    38     4    35    1
    39     4    36    1
    40     5    37    1
    41     5    38    1
    42     7    39    1
    43     7    40    1
    44     9    41    1
    45    10    42    1
    46    10    43    1
    47    11    44    1
    48    11    45    1
    49    18    46    1
    50    19    47    1
    51    20    48    1
    52    23    49    1
    53    24    50    1
    54    31    51    1
    55    31    52    1
    56    32    53    1
    57    32    54    1
