
     RDKit          3D

 54 57  0  0  0  0  0  0  0  0999 V2000
   -4.8621    1.1311   -2.2833 O   0  0  0  0  0  0  0  0  0  0  0  0
   -5.6009    0.5867   -1.4153 C   0  0  0  0  0  0  0  0  0  0  0  0
   -6.8769   -0.1576   -1.6549 C   0  0  0  0  0  0  0  0  0  0  0  0
   -6.9910   -1.0128   -0.4143 C   0  0  0  0  0  0  0  0  0  0  0  0
   -6.3214   -0.2134    0.6963 C   0  0  0  0  0  0  0  0  0  0  0  0
   -5.3258    0.5956   -0.0218 N   0  0  0  0  0  0  0  0  0  0  0  0
   -4.2496    1.2727    0.6584 C   0  0  0  0  0  0  0  0  0  0  0  0
   -3.0087    0.4191    0.7889 C   0  0  0  0  0  0  0  0  0  0  0  0
   -3.3785   -0.7134    1.5171 O   0  0  0  0  0  0  0  0  0  0  0  0
   -1.9501    1.1280    1.5692 C   0  0  0  0  0  0  0  0  0  0  0  0
   -0.6778    1.3669    0.7879 C   0  0  0  0  0  0  0  0  0  0  0  0
   -0.1878    0.1987    0.1146 N   0  0  0  0  0  0  0  0  0  0  0  0
    1.2018   -0.0815    0.0043 C   0  0  0  0  0  0  0  0  0  0  0  0
    2.1438    0.7257    0.5084 N   0  0  0  0  0  0  0  0  0  0  0  0
    3.4596    0.4993    0.4254 C   0  0  0  0  0  0  0  0  0  0  0  0
    4.4059    1.3539    0.9572 O   0  0  0  0  0  0  0  0  0  0  0  0
    5.7519    1.0408    0.8227 C   0  0  0  0  0  0  0  0  0  0  0  0
    6.4120    0.2831    1.7749 C   0  0  0  0  0  0  0  0  0  0  0  0
    7.7402   -0.0420    1.6693 C   0  0  0  0  0  0  0  0  0  0  0  0
    8.4863    0.3758    0.5981 C   0  0  0  0  0  0  0  0  0  0  0  0
    7.8430    1.1373   -0.3686 C   0  0  0  0  0  0  0  0  0  0  0  0
    8.5720    1.5606   -1.4403 F   0  0  0  0  0  0  0  0  0  0  0  0
    6.5100    1.4549   -0.2481 C   0  0  0  0  0  0  0  0  0  0  0  0
    3.8403   -0.6697   -0.2399 C   0  0  0  0  0  0  0  0  0  0  0  0
    2.8986   -1.5224   -0.7703 C   0  0  0  0  0  0  0  0  0  0  0  0
    3.3536   -2.7447   -1.4632 C   0  0  0  0  0  0  0  0  0  0  0  0
    3.9931   -2.4026   -2.6400 F   0  0  0  0  0  0  0  0  0  0  0  0
    2.3295   -3.6365   -1.6901 F   0  0  0  0  0  0  0  0  0  0  0  0
    4.3284   -3.3199   -0.6390 F   0  0  0  0  0  0  0  0  0  0  0  0
    1.6063   -1.2027   -0.6323 N   0  0  0  0  0  0  0  0  0  0  0  0
   -1.1610   -0.7052   -0.4629 C   0  0  0  0  0  0  0  0  0  0  0  0
   -2.5041   -0.0187   -0.5786 C   0  0  0  0  0  0  0  0  0  0  0  0
   -6.8459   -0.7561   -2.5800 H   0  0  0  0  0  0  0  0  0  0  0  0
   -7.7244    0.5808   -1.6550 H   0  0  0  0  0  0  0  0  0  0  0  0
   -8.0486   -1.2238   -0.2096 H   0  0  0  0  0  0  0  0  0  0  0  0
   -6.4638   -1.9885   -0.5697 H   0  0  0  0  0  0  0  0  0  0  0  0
   -7.0383    0.4651    1.1968 H   0  0  0  0  0  0  0  0  0  0  0  0
   -5.8298   -0.9258    1.3778 H   0  0  0  0  0  0  0  0  0  0  0  0
   -4.5703    1.5577    1.6803 H   0  0  0  0  0  0  0  0  0  0  0  0
   -3.9925    2.2425    0.1460 H   0  0  0  0  0  0  0  0  0  0  0  0
   -3.4914   -1.5095    0.9579 H   0  0  0  0  0  0  0  0  0  0  0  0
   -2.3216    2.1345    1.8737 H   0  0  0  0  0  0  0  0  0  0  0  0
   -1.6764    0.5979    2.5019 H   0  0  0  0  0  0  0  0  0  0  0  0
   -0.8482    2.1990    0.0635 H   0  0  0  0  0  0  0  0  0  0  0  0
    0.0791    1.7284    1.5211 H   0  0  0  0  0  0  0  0  0  0  0  0
    5.8263   -0.0505    2.6249 H   0  0  0  0  0  0  0  0  0  0  0  0
    8.1970   -0.6330    2.4405 H   0  0  0  0  0  0  0  0  0  0  0  0
    9.5530    0.1249    0.4963 H   0  0  0  0  0  0  0  0  0  0  0  0
    6.0584    2.0479   -1.0249 H   0  0  0  0  0  0  0  0  0  0  0  0
    4.9160   -0.8663   -0.3144 H   0  0  0  0  0  0  0  0  0  0  0  0
   -1.1967   -1.6041    0.1629 H   0  0  0  0  0  0  0  0  0  0  0  0
   -0.8211   -0.9442   -1.4832 H   0  0  0  0  0  0  0  0  0  0  0  0
   -2.3420    0.8514   -1.2466 H   0  0  0  0  0  0  0  0  0  0  0  0
   -3.1995   -0.7154   -1.0691 H   0  0  0  0  0  0  0  0  0  0  0  0
  1  2  2  0
  2  3  1  0
  3  4  1  0
  4  5  1  0
  5  6  1  0
  6  7  1  0
  7  8  1  0
  8  9  1  0
  8 10  1  0
 10 11  1  0
 11 12  1  0
 12 13  1  0
 13 14  2  0
 14 15  1  0
 15 16  1  0
 16 17  1  0
 17 18  2  0
 18 19  1  0
 19 20  2  0
 20 21  1  0
 21 22  1  0
 21 23  2  0
 15 24  2  0
 24 25  1  0
 25 26  1  0
 26 27  1  0
 26 28  1  0
 26 29  1  0
 25 30  2  0
 12 31  1  0
 31 32  1  0
  6  2  1  0
 32  8  1  0
 30 13  1  0
 23 17  1  0
  3 33  1  0
  3 34  1  0
  4 35  1  0
  4 36  1  0
  5 37  1  0
  5 38  1  0
  7 39  1  0
  7 40  1  0
  9 41  1  0
 10 42  1  0
 10 43  1  0
 11 44  1  0
 11 45  1  0
 18 46  1  0
 19 47  1  0
 20 48  1  0
 23 49  1  0
 24 50  1  0
 31 51  1  0
 31 52  1  0
 32 53  1  0
 32 54  1  0
M  END
$$$$
