@<TRIPOS>MOLECULE
*****
 55 56 0 0 0
SMALL
GASTEIGER

@<TRIPOS>ATOM
      1 C           3.7834   -1.1309   -1.1061 C.3     1  UNL1        0.0519
      2 C           3.7317   -1.9376    0.1968 C.3     1  UNL1       -0.0435
      3 C           2.5083   -1.3470   -1.8857 C.3     1  UNL1        0.1075
      4 O           1.4087   -0.9594   -1.2821 O.3     1  UNL1       -0.4901
      5 C           0.5521   -0.1544   -0.7231 C.ar    1  UNL1        0.1216
      6 C          -0.5538   -0.9141   -0.3018 C.ar    1  UNL1       -0.0078
      7 C          -1.6375   -0.3005    0.3369 C.ar    1  UNL1        0.0406
      8 C          -1.6042    1.0584    0.5459 C.ar    1  UNL1       -0.0465
      9 C          -0.5455    1.8508    0.1526 C.ar    1  UNL1       -0.0463
     10 C          -0.4551    3.3304    0.3425 C.3     1  UNL1       -0.0396
     11 C           0.4871    1.1958   -0.4674 C.ar    1  UNL1       -0.0170
     12 C          -2.8582   -0.8965    0.8473 C.2     1  UNL1        0.2470
     13 O          -2.5431   -1.6215    1.8405 O.2     1  UNL1       -0.2700
     14 N          -4.2346   -0.8418    0.4929 N.am    1  UNL1       -0.2953
     15 C          -5.0834   -1.6372    1.3506 C.3     1  UNL1        0.0124
     16 C          -5.5374   -0.8173    2.5400 C.3     1  UNL1       -0.0493
     17 C          -4.5936   -0.0383   -0.6423 C.3     1  UNL1        0.0207
     18 C          -5.2263   -0.9074   -1.7007 C.3     1  UNL1       -0.0467
     19 C          -5.5574    1.0851   -0.2871 C.3     1  UNL1       -0.0467
     20 N           4.0715    0.2246   -0.7896 N.pl3   1  UNL1       -0.3379
     21 C           5.3688    0.4813   -0.2697 C.ar    1  UNL1        0.0303
     22 C           5.8064    1.7435    0.1488 C.ar    1  UNL1       -0.0227
     23 C           7.0498    2.0648    0.6392 C.ar    1  UNL1        0.0293
     24 N           7.9387    1.0386    0.7217 N.ar    1  UNL1       -0.2631
     25 C           7.6350   -0.2135    0.3509 C.ar    1  UNL1        0.0293
     26 C           6.3673   -0.4459   -0.1293 C.ar    1  UNL1       -0.0227
     27 H           4.6362   -1.5706   -1.6989 H       1  UNL1        0.0528
     28 H           2.6606   -2.0285    0.4979 H       1  UNL1        0.0249
     29 H           4.3190   -1.4520    0.9738 H       1  UNL1        0.0249
     30 H           4.1208   -2.9349   -0.0016 H       1  UNL1        0.0249
     31 H           2.6729   -0.9024   -2.9261 H       1  UNL1        0.0715
     32 H           2.4829   -2.4674   -2.1264 H       1  UNL1        0.0715
     33 H          -0.7533   -1.9760   -0.3794 H       1  UNL1        0.0662
     34 H          -2.3894    1.6308    1.0314 H       1  UNL1        0.0628
     35 H           0.1386    3.5931    1.2235 H       1  UNL1        0.0278
     36 H           0.0850    3.7220   -0.5651 H       1  UNL1        0.0278
     37 H          -1.4695    3.7787    0.3690 H       1  UNL1        0.0278
     38 H           1.3276    1.7418   -0.8042 H       1  UNL1        0.0657
     39 H          -4.5414   -2.5576    1.6464 H       1  UNL1        0.0462
     40 H          -5.9649   -1.9978    0.7664 H       1  UNL1        0.0462
     41 H          -6.2974   -1.4181    3.0942 H       1  UNL1        0.0245
     42 H          -4.6320   -0.6686    3.1771 H       1  UNL1        0.0245
     43 H          -5.9513    0.1407    2.1882 H       1  UNL1        0.0245
     44 H          -3.6533    0.4061   -1.0351 H       1  UNL1        0.0495
     45 H          -5.2571   -0.4073   -2.6909 H       1  UNL1        0.0247
     46 H          -6.2798   -1.1371   -1.4086 H       1  UNL1        0.0247
     47 H          -4.6010   -1.8323   -1.7795 H       1  UNL1        0.0247
     48 H          -6.5713    0.7007   -0.0394 H       1  UNL1        0.0247
     49 H          -5.1675    1.6906    0.5503 H       1  UNL1        0.0247
     50 H          -5.6651    1.7798   -1.1538 H       1  UNL1        0.0247
     51 H           3.5281    1.0786   -0.8663 H       1  UNL1        0.1465
     52 H           5.0911    2.5766    0.0845 H       1  UNL1        0.0651
     53 H           7.2688    3.0945    0.9359 H       1  UNL1        0.0830
     54 H           8.3841   -1.0068    0.4349 H       1  UNL1        0.0830
     55 H           6.1999   -1.4866   -0.4201 H       1  UNL1        0.0651
@<TRIPOS>BOND
     1     1     2    1
     2     1     3    1
     3     3     4    1
     4     4     5    1
     5     5     6   ar
     6     6     7   ar
     7     7     8   ar
     8     8     9   ar
     9     9    10    1
    10     9    11   ar
    11     7    12    1
    12    12    13    2
    13    12    14   am
    14    14    15    1
    15    15    16    1
    16    14    17    1
    17    17    18    1
    18    17    19    1
    19     1    20    1
    20    20    21    1
    21    21    22   ar
    22    22    23   ar
    23    23    24   ar
    24    24    25   ar
    25    25    26   ar
    26    11     5   ar
    27    26    21   ar
    28     1    27    1
    29     2    28    1
    30     2    29    1
    31     2    30    1
    32     3    31    1
    33     3    32    1
    34     6    33    1
    35     8    34    1
    36    10    35    1
    37    10    36    1
    38    10    37    1
    39    11    38    1
    40    15    39    1
    41    15    40    1
    42    16    41    1
    43    16    42    1
    44    16    43    1
    45    17    44    1
    46    18    45    1
    47    18    46    1
    48    18    47    1
    49    19    48    1
    50    19    49    1
    51    19    50    1
    52    20    51    1
    53    22    52    1
    54    23    53    1
    55    25    54    1
    56    26    55    1
