
     RDKit          3D

 55 56  0  0  0  0  0  0  0  0999 V2000
    3.7834   -1.1309   -1.1061 C   0  0  1  0  0  0  0  0  0  0  0  0
    3.7317   -1.9376    0.1968 C   0  0  0  0  0  0  0  0  0  0  0  0
    2.5083   -1.3470   -1.8857 C   0  0  0  0  0  0  0  0  0  0  0  0
    1.4087   -0.9594   -1.2821 O   0  0  0  0  0  0  0  0  0  0  0  0
    0.5521   -0.1544   -0.7231 C   0  0  0  0  0  0  0  0  0  0  0  0
   -0.5538   -0.9141   -0.3018 C   0  0  0  0  0  0  0  0  0  0  0  0
   -1.6375   -0.3005    0.3369 C   0  0  0  0  0  0  0  0  0  0  0  0
   -1.6042    1.0584    0.5459 C   0  0  0  0  0  0  0  0  0  0  0  0
   -0.5455    1.8508    0.1526 C   0  0  0  0  0  0  0  0  0  0  0  0
   -0.4551    3.3304    0.3425 C   0  0  0  0  0  0  0  0  0  0  0  0
    0.4871    1.1958   -0.4674 C   0  0  0  0  0  0  0  0  0  0  0  0
   -2.8582   -0.8965    0.8473 C   0  0  0  0  0  0  0  0  0  0  0  0
   -2.5431   -1.6215    1.8405 O   0  0  0  0  0  0  0  0  0  0  0  0
   -4.2346   -0.8418    0.4929 N   0  0  0  0  0  0  0  0  0  0  0  0
   -5.0834   -1.6372    1.3506 C   0  0  0  0  0  0  0  0  0  0  0  0
   -5.5374   -0.8173    2.5400 C   0  0  0  0  0  0  0  0  0  0  0  0
   -4.5936   -0.0383   -0.6423 C   0  0  0  0  0  0  0  0  0  0  0  0
   -5.2263   -0.9074   -1.7007 C   0  0  0  0  0  0  0  0  0  0  0  0
   -5.5574    1.0851   -0.2871 C   0  0  0  0  0  0  0  0  0  0  0  0
    4.0715    0.2246   -0.7896 N   0  0  0  0  0  0  0  0  0  0  0  0
    5.3688    0.4813   -0.2697 C   0  0  0  0  0  0  0  0  0  0  0  0
    5.8064    1.7435    0.1488 C   0  0  0  0  0  0  0  0  0  0  0  0
    7.0498    2.0648    0.6392 C   0  0  0  0  0  0  0  0  0  0  0  0
    7.9387    1.0386    0.7217 N   0  0  0  0  0  0  0  0  0  0  0  0
    7.6350   -0.2135    0.3509 C   0  0  0  0  0  0  0  0  0  0  0  0
    6.3673   -0.4459   -0.1293 C   0  0  0  0  0  0  0  0  0  0  0  0
    4.6362   -1.5706   -1.6989 H   0  0  0  0  0  0  0  0  0  0  0  0
    2.6606   -2.0285    0.4979 H   0  0  0  0  0  0  0  0  0  0  0  0
    4.3190   -1.4520    0.9738 H   0  0  0  0  0  0  0  0  0  0  0  0
    4.1208   -2.9349   -0.0016 H   0  0  0  0  0  0  0  0  0  0  0  0
    2.6729   -0.9024   -2.9261 H   0  0  0  0  0  0  0  0  0  0  0  0
    2.4829   -2.4674   -2.1264 H   0  0  0  0  0  0  0  0  0  0  0  0
   -0.7533   -1.9760   -0.3794 H   0  0  0  0  0  0  0  0  0  0  0  0
   -2.3894    1.6308    1.0314 H   0  0  0  0  0  0  0  0  0  0  0  0
    0.1386    3.5931    1.2235 H   0  0  0  0  0  0  0  0  0  0  0  0
    0.0850    3.7220   -0.5651 H   0  0  0  0  0  0  0  0  0  0  0  0
   -1.4695    3.7787    0.3690 H   0  0  0  0  0  0  0  0  0  0  0  0
    1.3276    1.7418   -0.8042 H   0  0  0  0  0  0  0  0  0  0  0  0
   -4.5414   -2.5576    1.6464 H   0  0  0  0  0  0  0  0  0  0  0  0
   -5.9649   -1.9978    0.7664 H   0  0  0  0  0  0  0  0  0  0  0  0
   -6.2974   -1.4181    3.0942 H   0  0  0  0  0  0  0  0  0  0  0  0
   -4.6320   -0.6686    3.1771 H   0  0  0  0  0  0  0  0  0  0  0  0
   -5.9513    0.1407    2.1882 H   0  0  0  0  0  0  0  0  0  0  0  0
   -3.6533    0.4061   -1.0351 H   0  0  0  0  0  0  0  0  0  0  0  0
   -5.2571   -0.4073   -2.6909 H   0  0  0  0  0  0  0  0  0  0  0  0
   -6.2798   -1.1371   -1.4086 H   0  0  0  0  0  0  0  0  0  0  0  0
   -4.6010   -1.8323   -1.7795 H   0  0  0  0  0  0  0  0  0  0  0  0
   -6.5713    0.7007   -0.0394 H   0  0  0  0  0  0  0  0  0  0  0  0
   -5.1675    1.6906    0.5503 H   0  0  0  0  0  0  0  0  0  0  0  0
   -5.6651    1.7798   -1.1538 H   0  0  0  0  0  0  0  0  0  0  0  0
    3.5281    1.0786   -0.8663 H   0  0  0  0  0  0  0  0  0  0  0  0
    5.0911    2.5766    0.0845 H   0  0  0  0  0  0  0  0  0  0  0  0
    7.2688    3.0945    0.9359 H   0  0  0  0  0  0  0  0  0  0  0  0
    8.3841   -1.0068    0.4349 H   0  0  0  0  0  0  0  0  0  0  0  0
    6.1999   -1.4866   -0.4201 H   0  0  0  0  0  0  0  0  0  0  0  0
  1  2  1  0
  1  3  1  0
  3  4  1  0
  4  5  1  0
  5  6  2  0
  6  7  1  0
  7  8  2  0
  8  9  1  0
  9 10  1  0
  9 11  2  0
  7 12  1  0
 12 13  2  0
 12 14  1  0
 14 15  1  0
 15 16  1  0
 14 17  1  0
 17 18  1  0
 17 19  1  0
  1 20  1  0
 20 21  1  0
 21 22  2  0
 22 23  1  0
 23 24  2  0
 24 25  1  0
 25 26  2  0
 11  5  1  0
 26 21  1  0
  1 27  1  6
  2 28  1  0
  2 29  1  0
  2 30  1  0
  3 31  1  0
  3 32  1  0
  6 33  1  0
  8 34  1  0
 10 35  1  0
 10 36  1  0
 10 37  1  0
 11 38  1  0
 15 39  1  0
 15 40  1  0
 16 41  1  0
 16 42  1  0
 16 43  1  0
 17 44  1  0
 18 45  1  0
 18 46  1  0
 18 47  1  0
 19 48  1  0
 19 49  1  0
 19 50  1  0
 20 51  1  0
 22 52  1  0
 23 53  1  0
 25 54  1  0
 26 55  1  0
M  END
$$$$
