@<TRIPOS>MOLECULE
*****
 57 60 0 0 0
SMALL
GASTEIGER

@<TRIPOS>ATOM
      1 C          -1.7401   -4.4828    1.8697 C.3     1  UNL1       -0.0242
      2 C          -1.0179   -3.2626    1.3522 C.ar    1  UNL1        0.0170
      3 C           0.0948   -3.3015    0.5544 C.ar    1  UNL1       -0.0288
      4 C           0.4773   -2.0086    0.2819 C.ar    1  UNL1        0.0574
      5 C           1.6368   -1.6296   -0.5521 C.2     1  UNL1        0.2460
      6 O           1.4584   -0.9762   -1.6102 O.2     1  UNL1       -0.2701
      7 N           2.9641   -1.9846   -0.1921 N.am    1  UNL1       -0.3072
      8 C           4.1507   -1.6746   -0.9179 C.3     1  UNL1        0.0371
      9 C           4.6151   -0.2724   -0.7887 C.ar    1  UNL1       -0.0303
     10 C           5.4484    0.1211    0.2389 C.ar    1  UNL1       -0.0568
     11 C           5.9077    1.4106    0.3854 C.ar    1  UNL1       -0.0570
     12 C           5.5399    2.3917   -0.5199 C.ar    1  UNL1       -0.0338
     13 C           6.0324    3.8017   -0.3770 C.3     1  UNL1        0.0185
     14 N           7.3009    3.9553   -1.0974 N.3     1  UNL1       -0.3261
     15 C           4.7095    2.0199   -1.5517 C.ar    1  UNL1       -0.0570
     16 C           4.2563    0.7127   -1.6829 C.ar    1  UNL1       -0.0568
     17 C          -0.4310   -1.2257    0.9342 C.ar    1  UNL1        0.0284
     18 C          -0.4272    0.2563    0.9332 C.3     1  UNL1       -0.0235
     19 N          -1.3248   -1.9832    1.5739 N.ar    1  UNL1       -0.3417
     20 C          -2.4540   -1.5248    2.3857 C.3     1  UNL1        0.0659
     21 C          -3.6715   -1.3574    1.4799 C.ar    1  UNL1        0.0687
     22 C          -4.5064   -2.4200    1.2493 C.ar    1  UNL1        0.0007
     23 S          -5.7695   -1.6851    0.1246 S.2     1  UNL1       -0.0753
     24 C          -4.9014   -0.0238    0.1801 C.ar    1  UNL1        0.1086
     25 C          -5.5417    1.0906   -0.6331 C.ar    1  UNL1        0.0071
     26 C          -4.9456    2.3212   -0.6332 C.ar    1  UNL1       -0.0521
     27 C          -5.4694    3.3938   -1.3508 C.ar    1  UNL1       -0.0611
     28 C          -6.6286    3.1932   -2.0813 C.ar    1  UNL1       -0.0617
     29 C          -7.2308    1.9563   -2.0836 C.ar    1  UNL1       -0.0611
     30 C          -6.6791    0.8947   -1.3503 C.ar    1  UNL1       -0.0521
     31 N          -4.0256   -0.2465    0.8650 N.ar    1  UNL1       -0.2422
     32 H          -0.9711   -5.1254    2.3928 H       1  UNL1        0.0292
     33 H          -2.1309   -5.0936    1.0360 H       1  UNL1        0.0292
     34 H          -2.5019   -4.2168    2.5992 H       1  UNL1        0.0292
     35 H           0.6052   -4.1792    0.1872 H       1  UNL1        0.0643
     36 H           3.0146   -2.5370    0.7215 H       1  UNL1        0.1493
     37 H           4.0756   -1.9508   -2.0105 H       1  UNL1        0.0512
     38 H           4.9672   -2.3602   -0.5467 H       1  UNL1        0.0512
     39 H           5.7375   -0.6534    0.9514 H       1  UNL1        0.0621
     40 H           6.5540    1.6910    1.1935 H       1  UNL1        0.0621
     41 H           5.3146    4.4669   -0.9122 H       1  UNL1        0.0471
     42 H           6.1441    4.0426    0.6863 H       1  UNL1        0.0471
     43 H           7.4908    3.0662   -1.6066 H       1  UNL1        0.1185
     44 H           8.0743    4.0813   -0.4043 H       1  UNL1        0.1185
     45 H           4.4002    2.7575   -2.2781 H       1  UNL1        0.0621
     46 H           3.6053    0.4367   -2.5046 H       1  UNL1        0.0621
     47 H           0.5680    0.6674    0.6783 H       1  UNL1        0.0292
     48 H          -1.2176    0.5915    0.2308 H       1  UNL1        0.0292
     49 H          -0.7535    0.5823    1.9607 H       1  UNL1        0.0292
     50 H          -2.1818   -0.5648    2.8647 H       1  UNL1        0.0557
     51 H          -2.6892   -2.2393    3.1994 H       1  UNL1        0.0557
     52 H          -4.5355   -3.4722    1.5771 H       1  UNL1        0.0713
     53 H          -4.0408    2.4347   -0.0487 H       1  UNL1        0.0624
     54 H          -5.0049    4.3543   -1.3519 H       1  UNL1        0.0618
     55 H          -7.0457    4.0161   -2.6421 H       1  UNL1        0.0618
     56 H          -8.1380    1.8067   -2.6575 H       1  UNL1        0.0618
     57 H          -7.1683   -0.0625   -1.3697 H       1  UNL1        0.0624
@<TRIPOS>BOND
     1     1     2    1
     2     2     3   ar
     3     3     4   ar
     4     4     5    1
     5     5     6    2
     6     5     7   am
     7     7     8    1
     8     8     9    1
     9     9    10   ar
    10    10    11   ar
    11    11    12   ar
    12    12    13    1
    13    13    14    1
    14    12    15   ar
    15    15    16   ar
    16     4    17   ar
    17    17    18    1
    18    17    19   ar
    19    19    20    1
    20    20    21    1
    21    21    22   ar
    22    22    23   ar
    23    23    24   ar
    24    24    25    1
    25    25    26   ar
    26    26    27   ar
    27    27    28   ar
    28    28    29   ar
    29    29    30   ar
    30    24    31   ar
    31    19     2   ar
    32    31    21   ar
    33    16     9   ar
    34    30    25   ar
    35     1    32    1
    36     1    33    1
    37     1    34    1
    38     3    35    1
    39     7    36    1
    40     8    37    1
    41     8    38    1
    42    10    39    1
    43    11    40    1
    44    13    41    1
    45    13    42    1
    46    14    43    1
    47    14    44    1
    48    15    45    1
    49    16    46    1
    50    18    47    1
    51    18    48    1
    52    18    49    1
    53    20    50    1
    54    20    51    1
    55    22    52    1
    56    26    53    1
    57    27    54    1
    58    28    55    1
    59    29    56    1
    60    30    57    1
