
     RDKit          3D

 57 60  0  0  0  0  0  0  0  0999 V2000
    9.4518    1.0015   -2.2918 Cl  0  0  0  0  0  0  0  0  0  0  0  0
    8.1881    0.8135   -1.0946 C   0  0  0  0  0  0  0  0  0  0  0  0
    8.3916    1.2864    0.2025 C   0  0  0  0  0  0  0  0  0  0  0  0
    7.4062    1.1535    1.1540 C   0  0  0  0  0  0  0  0  0  0  0  0
    6.2344    0.5444    0.7700 C   0  0  0  0  0  0  0  0  0  0  0  0
    6.0112    0.0688   -0.5075 C   0  0  0  0  0  0  0  0  0  0  0  0
    4.7481   -0.5562   -0.8133 N   0  0  0  0  0  0  0  0  0  0  0  0
    3.9699   -0.0635   -1.9129 C   0  0  0  0  0  0  0  0  0  0  0  0
    2.5887    0.3177   -1.5942 C   0  0  0  0  0  0  0  0  0  0  0  0
    1.9502   -0.2732   -0.4547 N   0  0  0  0  0  0  0  0  0  0  0  0
    0.6211   -0.7150   -0.7328 C   0  0  0  0  0  0  0  0  0  0  0  0
   -0.2135   -1.1933    0.3819 C   0  0  0  0  0  0  0  0  0  0  0  0
   -0.4590   -0.1727    1.4682 C   0  0  0  0  0  0  0  0  0  0  0  0
   -1.1007    1.0829    0.9282 C   0  0  0  0  0  0  0  0  0  0  0  0
   -2.2737    1.0142    0.3049 O   0  0  0  0  0  0  0  0  0  0  0  0
   -3.5510    0.7062    0.3861 C   0  0  0  0  0  0  0  0  0  0  0  0
   -4.4307    0.2328    1.3133 C   0  0  0  0  0  0  0  0  0  0  0  0
   -5.7475    0.0218    1.0550 C   0  0  0  0  0  0  0  0  0  0  0  0
   -6.2420    0.2909   -0.2017 C   0  0  0  0  0  0  0  0  0  0  0  0
   -7.6797    0.0698   -0.5124 C   0  0  0  0  0  0  0  0  0  0  0  0
   -8.5183    0.2922    0.7309 C   0  0  0  0  0  0  0  0  0  0  0  0
   -7.9976   -0.6500    1.7708 C   0  0  0  0  0  0  0  0  0  0  0  0
   -8.6330   -1.5441    2.3590 O   0  0  0  0  0  0  0  0  0  0  0  0
   -6.6040   -0.4591    2.0911 N   0  0  0  0  0  0  0  0  0  0  0  0
   -5.4281    0.7809   -1.2325 C   0  0  0  0  0  0  0  0  0  0  0  0
   -4.0808    0.9748   -0.8929 C   0  0  0  0  0  0  0  0  0  0  0  0
    2.7533   -1.0700    0.3842 C   0  0  0  0  0  0  0  0  0  0  0  0
    4.0028   -1.6502   -0.2360 C   0  0  0  0  0  0  0  0  0  0  0  0
    6.9973    0.2001   -1.4634 C   0  0  0  0  0  0  0  0  0  0  0  0
    6.7043   -0.4045   -3.0930 Cl  0  0  0  0  0  0  0  0  0  0  0  0
    9.3304    1.7651    0.4861 H   0  0  0  0  0  0  0  0  0  0  0  0
    7.5289    1.5058    2.1699 H   0  0  0  0  0  0  0  0  0  0  0  0
    5.4462    0.4343    1.5059 H   0  0  0  0  0  0  0  0  0  0  0  0
    4.0458   -0.7764   -2.7897 H   0  0  0  0  0  0  0  0  0  0  0  0
    4.4926    0.8569   -2.3086 H   0  0  0  0  0  0  0  0  0  0  0  0
    2.4887    1.4329   -1.4507 H   0  0  0  0  0  0  0  0  0  0  0  0
    1.9290    0.0726   -2.4760 H   0  0  0  0  0  0  0  0  0  0  0  0
    0.0986    0.1689   -1.2084 H   0  0  0  0  0  0  0  0  0  0  0  0
    0.5898   -1.4883   -1.5407 H   0  0  0  0  0  0  0  0  0  0  0  0
    0.2031   -2.0780    0.8954 H   0  0  0  0  0  0  0  0  0  0  0  0
   -1.2103   -1.5218   -0.0032 H   0  0  0  0  0  0  0  0  0  0  0  0
    0.4571    0.0868    1.9946 H   0  0  0  0  0  0  0  0  0  0  0  0
   -1.1663   -0.6209    2.1895 H   0  0  0  0  0  0  0  0  0  0  0  0
   -1.0529    1.8561    1.7746 H   0  0  0  0  0  0  0  0  0  0  0  0
   -0.3185    1.5154    0.2215 H   0  0  0  0  0  0  0  0  0  0  0  0
   -3.9429    0.0561    2.2543 H   0  0  0  0  0  0  0  0  0  0  0  0
   -7.9924    0.7689   -1.3321 H   0  0  0  0  0  0  0  0  0  0  0  0
   -7.8039   -0.9513   -0.9219 H   0  0  0  0  0  0  0  0  0  0  0  0
   -8.3491    1.3290    1.0678 H   0  0  0  0  0  0  0  0  0  0  0  0
   -9.5830    0.1554    0.5067 H   0  0  0  0  0  0  0  0  0  0  0  0
   -6.2238   -0.6629    3.0439 H   0  0  0  0  0  0  0  0  0  0  0  0
   -5.8961    0.9649   -2.1901 H   0  0  0  0  0  0  0  0  0  0  0  0
   -3.5719    1.3581   -1.8036 H   0  0  0  0  0  0  0  0  0  0  0  0
    2.9944   -0.4582    1.2982 H   0  0  0  0  0  0  0  0  0  0  0  0
    2.1820   -1.9287    0.7806 H   0  0  0  0  0  0  0  0  0  0  0  0
    4.5665   -2.1562    0.5822 H   0  0  0  0  0  0  0  0  0  0  0  0
    3.6986   -2.3640   -1.0125 H   0  0  0  0  0  0  0  0  0  0  0  0
  1  2  1  0
  2  3  2  0
  3  4  1  0
  4  5  2  0
  5  6  1  0
  6  7  1  0
  7  8  1  0
  8  9  1  0
  9 10  1  0
 10 11  1  0
 11 12  1  0
 12 13  1  0
 13 14  1  0
 14 15  1  0
 15 16  1  0
 16 17  2  0
 17 18  1  0
 18 19  2  0
 19 20  1  0
 20 21  1  0
 21 22  1  0
 22 23  2  0
 22 24  1  0
 19 25  1  0
 25 26  2  0
 10 27  1  0
 27 28  1  0
  6 29  2  0
 29 30  1  0
 29  2  1  0
 28  7  1  0
 26 16  1  0
 24 18  1  0
  3 31  1  0
  4 32  1  0
  5 33  1  0
  8 34  1  0
  8 35  1  0
  9 36  1  0
  9 37  1  0
 11 38  1  0
 11 39  1  0
 12 40  1  0
 12 41  1  0
 13 42  1  0
 13 43  1  0
 14 44  1  0
 14 45  1  0
 17 46  1  0
 20 47  1  0
 20 48  1  0
 21 49  1  0
 21 50  1  0
 24 51  1  0
 25 52  1  0
 26 53  1  0
 27 54  1  0
 27 55  1  0
 28 56  1  0
 28 57  1  0
M  END
$$$$
