@<TRIPOS>MOLECULE
*****
 53 56 0 0 0
SMALL
GASTEIGER

@<TRIPOS>ATOM
      1 C          -4.1974    3.3912    2.9004 C.3     1  UNL1        0.0788
      2 O          -3.0872    3.5121    2.0591 O.3     1  UNL1       -0.4949
      3 C          -2.7890    2.5921    1.0613 C.ar    1  UNL1        0.1254
      4 C          -3.6344    1.5143    0.9035 C.ar    1  UNL1        0.0219
      5 C          -3.4199    0.5593   -0.0520 C.ar    1  UNL1        0.1262
      6 O          -4.1809   -0.5377   -0.2969 O.3     1  UNL1       -0.4892
      7 C          -5.3364   -0.9777    0.3250 C.3     1  UNL1        0.0946
      8 C          -5.1230   -2.3166    1.0203 C.3     1  UNL1       -0.0281
      9 C          -6.5400   -1.0222   -0.5903 C.3     1  UNL1       -0.0281
     10 C          -2.2923    0.7325   -0.8659 C.ar    1  UNL1        0.0055
     11 C          -1.4362    1.7960   -0.7288 C.ar    1  UNL1        0.1005
     12 S          -0.0242    1.9994   -1.7591 S.O2    1  UNL1        0.0254
     13 O          -0.2562    1.4110   -3.1133 O.2     1  UNL1       -0.1643
     14 O           0.3228    3.4527   -1.9113 O.2     1  UNL1       -0.1643
     15 C           1.3780    1.2091   -1.0655 C.ar    1  UNL1        0.0970
     16 C           2.2248    1.8728   -0.2129 C.ar    1  UNL1       -0.0360
     17 C           3.3169    1.1931    0.3031 C.ar    1  UNL1       -0.0529
     18 C           3.5505   -0.1277   -0.0334 C.ar    1  UNL1        0.0011
     19 C           2.6987   -0.7730   -0.8826 C.ar    1  UNL1        0.1264
     20 C           1.6054   -0.1067   -1.4045 C.ar    1  UNL1        0.0056
     21 O           3.1284   -2.0911   -1.0790 O.3     1  UNL1       -0.4866
     22 C           4.1426   -2.3743   -0.1638 C.3     1  UNL1        0.1195
     23 C           5.2380   -3.2198   -0.7592 C.3     1  UNL1        0.0336
     24 N           6.0310   -2.5358   -1.7317 N.3     1  UNL1       -0.3125
     25 C           5.8320   -1.1138   -1.7445 C.3     1  UNL1       -0.0033
     26 C           5.9018   -0.6320   -0.3051 C.3     1  UNL1       -0.0301
     27 C           4.6342   -1.0642    0.3790 C.3     1  UNL1        0.0270
     28 C          -1.6961    2.7341    0.2514 C.ar    1  UNL1        0.0055
     29 H          -4.4060    4.3925    3.3773 H       1  UNL1        0.0660
     30 H          -4.0699    2.6765    3.7281 H       1  UNL1        0.0660
     31 H          -5.1479    3.1589    2.3460 H       1  UNL1        0.0660
     32 H          -4.4944    1.4035    1.5416 H       1  UNL1        0.0691
     33 H          -5.5943   -0.2571    1.1302 H       1  UNL1        0.0727
     34 H          -5.7865   -3.1003    0.6121 H       1  UNL1        0.0265
     35 H          -4.0484   -2.5782    0.9291 H       1  UNL1        0.0265
     36 H          -5.3406   -2.2576    2.1057 H       1  UNL1        0.0265
     37 H          -6.9657   -2.0483   -0.6430 H       1  UNL1        0.0265
     38 H          -6.1876   -0.7929   -1.6297 H       1  UNL1        0.0265
     39 H          -7.3527   -0.3551   -0.2782 H       1  UNL1        0.0265
     40 H          -2.0566    0.0136   -1.6480 H       1  UNL1        0.0673
     41 H           2.0278    2.9134    0.0429 H       1  UNL1        0.0637
     42 H           4.0013    1.7009    0.9812 H       1  UNL1        0.0622
     43 H           0.9336   -0.6469   -2.0860 H       1  UNL1        0.0673
     44 H           3.7429   -2.9591    0.7149 H       1  UNL1        0.0752
     45 H           4.7561   -4.0952   -1.2322 H       1  UNL1        0.0460
     46 H           5.8947   -3.5603    0.0725 H       1  UNL1        0.0460
     47 H           6.0873   -2.9784   -2.6539 H       1  UNL1        0.1221
     48 H           4.8319   -0.8556   -2.1441 H       1  UNL1        0.0424
     49 H           6.6456   -0.6610   -2.3535 H       1  UNL1        0.0424
     50 H           6.0632    0.4623   -0.2519 H       1  UNL1        0.0284
     51 H           6.7620   -1.1775    0.1611 H       1  UNL1        0.0284
     52 H           4.7526   -1.0566    1.4787 H       1  UNL1        0.0387
     53 H          -1.0405    3.5813    0.3830 H       1  UNL1        0.0673
@<TRIPOS>BOND
     1     1     2    1
     2     2     3    1
     3     3     4   ar
     4     4     5   ar
     5     5     6    1
     6     6     7    1
     7     7     8    1
     8     7     9    1
     9     5    10   ar
    10    10    11   ar
    11    11    12    1
    12    12    13    2
    13    12    14    2
    14    12    15    1
    15    15    16   ar
    16    16    17   ar
    17    17    18   ar
    18    18    19   ar
    19    19    20   ar
    20    19    21    1
    21    21    22    1
    22    22    23    1
    23    23    24    1
    24    24    25    1
    25    25    26    1
    26    26    27    1
    27    11    28   ar
    28    28     3   ar
    29    20    15   ar
    30    27    22    1
    31    27    18    1
    32     1    29    1
    33     1    30    1
    34     1    31    1
    35     4    32    1
    36     7    33    1
    37     8    34    1
    38     8    35    1
    39     8    36    1
    40     9    37    1
    41     9    38    1
    42     9    39    1
    43    10    40    1
    44    16    41    1
    45    17    42    1
    46    20    43    1
    47    22    44    1
    48    23    45    1
    49    23    46    1
    50    24    47    1
    51    25    48    1
    52    25    49    1
    53    26    50    1
    54    26    51    1
    55    27    52    1
    56    28    53    1
