
     RDKit          3D

 53 56  0  0  0  0  0  0  0  0999 V2000
   -4.1974    3.3912    2.9004 C   0  0  0  0  0  0  0  0  0  0  0  0
   -3.0872    3.5121    2.0591 O   0  0  0  0  0  0  0  0  0  0  0  0
   -2.7890    2.5921    1.0613 C   0  0  0  0  0  0  0  0  0  0  0  0
   -3.6344    1.5143    0.9035 C   0  0  0  0  0  0  0  0  0  0  0  0
   -3.4199    0.5593   -0.0520 C   0  0  0  0  0  0  0  0  0  0  0  0
   -4.1809   -0.5377   -0.2969 O   0  0  0  0  0  0  0  0  0  0  0  0
   -5.3364   -0.9777    0.3250 C   0  0  0  0  0  0  0  0  0  0  0  0
   -5.1230   -2.3166    1.0203 C   0  0  0  0  0  0  0  0  0  0  0  0
   -6.5400   -1.0222   -0.5903 C   0  0  0  0  0  0  0  0  0  0  0  0
   -2.2923    0.7325   -0.8659 C   0  0  0  0  0  0  0  0  0  0  0  0
   -1.4362    1.7960   -0.7288 C   0  0  0  0  0  0  0  0  0  0  0  0
   -0.0242    1.9994   -1.7591 S   0  0  0  0  0  6  0  0  0  0  0  0
   -0.2562    1.4110   -3.1133 O   0  0  0  0  0  0  0  0  0  0  0  0
    0.3228    3.4527   -1.9113 O   0  0  0  0  0  0  0  0  0  0  0  0
    1.3780    1.2091   -1.0655 C   0  0  0  0  0  0  0  0  0  0  0  0
    2.2248    1.8728   -0.2129 C   0  0  0  0  0  0  0  0  0  0  0  0
    3.3169    1.1931    0.3031 C   0  0  0  0  0  0  0  0  0  0  0  0
    3.5505   -0.1277   -0.0334 C   0  0  0  0  0  0  0  0  0  0  0  0
    2.6987   -0.7730   -0.8826 C   0  0  0  0  0  0  0  0  0  0  0  0
    1.6054   -0.1067   -1.4045 C   0  0  0  0  0  0  0  0  0  0  0  0
    3.1284   -2.0911   -1.0790 O   0  0  0  0  0  0  0  0  0  0  0  0
    4.1426   -2.3743   -0.1638 C   0  0  1  0  0  0  0  0  0  0  0  0
    5.2380   -3.2198   -0.7592 C   0  0  0  0  0  0  0  0  0  0  0  0
    6.0310   -2.5358   -1.7317 N   0  0  0  0  0  0  0  0  0  0  0  0
    5.8320   -1.1138   -1.7445 C   0  0  0  0  0  0  0  0  0  0  0  0
    5.9018   -0.6320   -0.3051 C   0  0  0  0  0  0  0  0  0  0  0  0
    4.6342   -1.0642    0.3790 C   0  0  1  0  0  0  0  0  0  0  0  0
   -1.6961    2.7341    0.2514 C   0  0  0  0  0  0  0  0  0  0  0  0
   -4.4060    4.3925    3.3773 H   0  0  0  0  0  0  0  0  0  0  0  0
   -4.0699    2.6765    3.7281 H   0  0  0  0  0  0  0  0  0  0  0  0
   -5.1479    3.1589    2.3460 H   0  0  0  0  0  0  0  0  0  0  0  0
   -4.4944    1.4035    1.5416 H   0  0  0  0  0  0  0  0  0  0  0  0
   -5.5943   -0.2571    1.1302 H   0  0  0  0  0  0  0  0  0  0  0  0
   -5.7865   -3.1003    0.6121 H   0  0  0  0  0  0  0  0  0  0  0  0
   -4.0484   -2.5782    0.9291 H   0  0  0  0  0  0  0  0  0  0  0  0
   -5.3406   -2.2576    2.1057 H   0  0  0  0  0  0  0  0  0  0  0  0
   -6.9657   -2.0483   -0.6430 H   0  0  0  0  0  0  0  0  0  0  0  0
   -6.1876   -0.7929   -1.6297 H   0  0  0  0  0  0  0  0  0  0  0  0
   -7.3527   -0.3551   -0.2782 H   0  0  0  0  0  0  0  0  0  0  0  0
   -2.0566    0.0136   -1.6480 H   0  0  0  0  0  0  0  0  0  0  0  0
    2.0278    2.9134    0.0429 H   0  0  0  0  0  0  0  0  0  0  0  0
    4.0013    1.7009    0.9812 H   0  0  0  0  0  0  0  0  0  0  0  0
    0.9336   -0.6469   -2.0860 H   0  0  0  0  0  0  0  0  0  0  0  0
    3.7429   -2.9591    0.7149 H   0  0  0  0  0  0  0  0  0  0  0  0
    4.7561   -4.0952   -1.2322 H   0  0  0  0  0  0  0  0  0  0  0  0
    5.8947   -3.5603    0.0725 H   0  0  0  0  0  0  0  0  0  0  0  0
    6.0873   -2.9784   -2.6539 H   0  0  0  0  0  0  0  0  0  0  0  0
    4.8319   -0.8556   -2.1441 H   0  0  0  0  0  0  0  0  0  0  0  0
    6.6456   -0.6610   -2.3535 H   0  0  0  0  0  0  0  0  0  0  0  0
    6.0632    0.4623   -0.2519 H   0  0  0  0  0  0  0  0  0  0  0  0
    6.7620   -1.1775    0.1611 H   0  0  0  0  0  0  0  0  0  0  0  0
    4.7526   -1.0566    1.4787 H   0  0  0  0  0  0  0  0  0  0  0  0
   -1.0405    3.5813    0.3830 H   0  0  0  0  0  0  0  0  0  0  0  0
  1  2  1  0
  2  3  1  0
  3  4  2  0
  4  5  1  0
  5  6  1  0
  6  7  1  0
  7  8  1  0
  7  9  1  0
  5 10  2  0
 10 11  1  0
 11 12  1  0
 12 13  2  0
 12 14  2  0
 12 15  1  0
 15 16  2  0
 16 17  1  0
 17 18  2  0
 18 19  1  0
 19 20  2  0
 19 21  1  0
 21 22  1  0
 22 23  1  0
 23 24  1  0
 24 25  1  0
 25 26  1  0
 26 27  1  0
 11 28  2  0
 28  3  1  0
 20 15  1  0
 27 22  1  0
 27 18  1  0
  1 29  1  0
  1 30  1  0
  1 31  1  0
  4 32  1  0
  7 33  1  0
  8 34  1  0
  8 35  1  0
  8 36  1  0
  9 37  1  0
  9 38  1  0
  9 39  1  0
 10 40  1  0
 16 41  1  0
 17 42  1  0
 20 43  1  0
 22 44  1  1
 23 45  1  0
 23 46  1  0
 24 47  1  0
 25 48  1  0
 25 49  1  0
 26 50  1  0
 26 51  1  0
 27 52  1  1
 28 53  1  0
M  END
$$$$
