@<TRIPOS>MOLECULE
*****
 50 53 0 0 0
SMALL
GASTEIGER

@<TRIPOS>ATOM
      1 C          -4.2094    0.9293    1.1366 C.3     1  UNL1        0.0000
      2 C          -3.2824    0.2095    0.1443 C.3     1  UNL1        0.0000
      3 C          -3.9004    0.4183   -1.2161 C.3     1  UNL1        0.0000
      4 C          -3.2891   -1.2334    0.5310 C.3     1  UNL1        0.0000
      5 C          -1.9610   -1.9024    0.3988 C.3     1  UNL1        0.0000
      6 C          -1.0927   -1.3098   -0.6725 C.3     1  UNL1        0.0000
      7 C          -0.8526    0.1818   -0.4967 C.3     1  UNL1        0.0000
      8 C          -0.8149    0.7624   -1.9103 C.3     1  UNL1        0.0000
      9 C           0.4982    0.3415    0.0611 C.ar    1  UNL1        0.0000
     10 C           0.7867    0.9128    1.2490 C.ar    1  UNL1        0.0000
     11 O           2.1071    0.8935    1.4487 O.2     1  UNL1        0.0000
     12 C           2.6784    0.3337    0.4386 C.ar    1  UNL1        0.0000
     13 C           4.0022    0.0716    0.1561 C.ar    1  UNL1        0.0000
     14 B           5.0809    0.5062    1.2150 B       1  UNL1        0.0000
     15 O           5.1338   -0.1998    2.5119 O.3     1  UNL1        0.0000
     16 O           5.8355    1.7283    1.0793 O.3     1  UNL1        0.0000
     17 C           4.3693   -0.5531   -1.0199 C.ar    1  UNL1        0.0000
     18 O           5.7065   -0.8087   -1.2872 O.3     1  UNL1        0.0000
     19 C           3.3902   -0.9179   -1.9220 C.ar    1  UNL1        0.0000
     20 O           3.7115   -1.5570   -3.1351 O.3     1  UNL1        0.0000
     21 C           2.0635   -0.6709   -1.6701 C.ar    1  UNL1        0.0000
     22 C           1.7308   -0.0456   -0.4864 C.ar    1  UNL1        0.0000
     23 C          -0.2886    1.4374    2.0978 C.3     1  UNL1        0.0000
     24 C          -1.6543    1.0528    1.7244 C.3     1  UNL1        0.0000
     25 C          -1.9222    0.8610    0.2670 C.3     1  UNL1        0.0000
     26 H          -4.0125    0.5770    2.1764 H       1  UNL1        0.0000
     27 H          -4.1451    2.0217    1.0279 H       1  UNL1        0.0000
     28 H          -5.2737    0.6504    0.9309 H       1  UNL1        0.0000
     29 H          -4.8597   -0.1407   -1.2393 H       1  UNL1        0.0000
     30 H          -3.2907    0.0056   -2.0454 H       1  UNL1        0.0000
     31 H          -4.1701    1.4829   -1.3936 H       1  UNL1        0.0000
     32 H          -3.6415   -1.3920    1.5785 H       1  UNL1        0.0000
     33 H          -4.0151   -1.7560   -0.1261 H       1  UNL1        0.0000
     34 H          -1.3708   -1.9431    1.3368 H       1  UNL1        0.0000
     35 H          -2.1273   -2.9660    0.1094 H       1  UNL1        0.0000
     36 H          -1.4965   -1.5456   -1.7001 H       1  UNL1        0.0000
     37 H          -0.1247   -1.8657   -0.6323 H       1  UNL1        0.0000
     38 H          -0.9800   -0.0033   -2.6918 H       1  UNL1        0.0000
     39 H          -1.5074    1.6079   -1.9678 H       1  UNL1        0.0000
     40 H           0.1959    1.1968   -2.1474 H       1  UNL1        0.0000
     41 H           4.9592   -1.1620    2.3399 H       1  UNL1        0.0000
     42 H           6.7933    1.5601    1.3247 H       1  UNL1        0.0000
     43 H           6.3468   -0.0981   -1.6259 H       1  UNL1        0.0000
     44 H           4.2368   -2.4167   -3.0461 H       1  UNL1        0.0000
     45 H           1.2660   -0.9395   -2.3487 H       1  UNL1        0.0000
     46 H          -0.1649    2.5607    2.1148 H       1  UNL1        0.0000
     47 H          -0.0746    1.1369    3.1661 H       1  UNL1        0.0000
     48 H          -2.3541    1.8706    2.0750 H       1  UNL1        0.0000
     49 H          -1.9649    0.1629    2.3128 H       1  UNL1        0.0000
     50 H          -2.0516    1.8953   -0.1716 H       1  UNL1        0.0000
@<TRIPOS>BOND
     1     1     2    1
     2     2     3    1
     3     2     4    1
     4     4     5    1
     5     5     6    1
     6     6     7    1
     7     7     8    1
     8     7     9    1
     9     9    10   ar
    10    10    11   ar
    11    11    12   ar
    12    12    13   ar
    13    13    14    1
    14    14    15    1
    15    14    16    1
    16    13    17   ar
    17    17    18    1
    18    17    19   ar
    19    19    20    1
    20    19    21   ar
    21    21    22   ar
    22    10    23    1
    23    23    24    1
    24    24    25    1
    25    25     2    1
    26    25     7    1
    27    22     9   ar
    28    22    12   ar
    29     1    26    1
    30     1    27    1
    31     1    28    1
    32     3    29    1
    33     3    30    1
    34     3    31    1
    35     4    32    1
    36     4    33    1
    37     5    34    1
    38     5    35    1
    39     6    36    1
    40     6    37    1
    41     8    38    1
    42     8    39    1
    43     8    40    1
    44    15    41    1
    45    16    42    1
    46    18    43    1
    47    20    44    1
    48    21    45    1
    49    23    46    1
    50    23    47    1
    51    24    48    1
    52    24    49    1
    53    25    50    1
