@<TRIPOS>MOLECULE
*****
 31 32 0 0 0
SMALL
GASTEIGER

@<TRIPOS>ATOM
      1 C          -5.6906   -0.1121   -0.2833 C.3     1  UNL1       -0.0013
      2 C          -4.8192    0.7979    0.4860 C.2     1  UNL1        0.1629
      3 O          -5.3562    1.6790    1.1995 O.2     1  UNL1       -0.2923
      4 C          -3.3774    0.6412    0.3899 C.ar    1  UNL1        0.0525
      5 C          -2.5879    1.5184    1.1344 C.ar    1  UNL1       -0.0451
      6 C          -1.2221    1.3929    1.0626 C.ar    1  UNL1       -0.0191
      7 C          -0.6183    0.4290    0.2790 C.ar    1  UNL1        0.1237
      8 O           0.7912    0.3547    0.2506 O.3     1  UNL1       -0.4873
      9 C           1.3970   -0.6355   -0.5547 C.3     1  UNL1        0.1147
     10 C           2.8761   -0.4912   -0.4005 C.ar    1  UNL1       -0.0090
     11 C           3.5773    0.3311   -1.2431 C.ar    1  UNL1       -0.0553
     12 C           4.9491    0.4755   -1.1128 C.ar    1  UNL1       -0.0600
     13 C           5.5812   -0.2290   -0.1161 C.ar    1  UNL1       -0.0434
     14 C           4.8684   -1.0537    0.7269 C.ar    1  UNL1        0.0413
     15 CL          5.6737   -1.9636    2.0115 Cl      1  UNL1       -0.0835
     16 C           3.5192   -1.1927    0.5951 C.ar    1  UNL1       -0.0370
     17 C          -1.3918   -0.4340   -0.4534 C.ar    1  UNL1        0.0160
     18 C          -2.7619   -0.3124   -0.3849 C.ar    1  UNL1        0.1373
     19 F          -3.5212   -1.1791   -1.1203 F       1  UNL1       -0.2046
     20 H          -5.5040   -0.0937   -1.3765 H       1  UNL1        0.0309
     21 H          -6.7501    0.1404   -0.0419 H       1  UNL1        0.0309
     22 H          -5.4684   -1.1536    0.0560 H       1  UNL1        0.0309
     23 H          -3.0468    2.2872    1.7599 H       1  UNL1        0.0627
     24 H          -0.5654    2.0693    1.6378 H       1  UNL1        0.0654
     25 H           1.0867   -0.5020   -1.6251 H       1  UNL1        0.0748
     26 H           1.0381   -1.6249   -0.2202 H       1  UNL1        0.0748
     27 H           3.0956    0.8876   -2.0265 H       1  UNL1        0.0621
     28 H           5.5433    1.1092   -1.7502 H       1  UNL1        0.0618
     29 H           6.6704   -0.1313    0.0079 H       1  UNL1        0.0632
     30 H           2.9159   -1.8270    1.2312 H       1  UNL1        0.0636
     31 H          -0.9014   -1.1774   -1.0571 H       1  UNL1        0.0683
@<TRIPOS>BOND
     1     1     2    1
     2     2     3    2
     3     2     4    1
     4     4     5   ar
     5     5     6   ar
     6     6     7   ar
     7     7     8    1
     8     8     9    1
     9     9    10    1
    10    10    11   ar
    11    11    12   ar
    12    12    13   ar
    13    13    14   ar
    14    14    15    1
    15    14    16   ar
    16     7    17   ar
    17    17    18   ar
    18    18    19    1
    19    18     4   ar
    20    16    10   ar
    21     1    20    1
    22     1    21    1
    23     1    22    1
    24     5    23    1
    25     6    24    1
    26     9    25    1
    27     9    26    1
    28    11    27    1
    29    12    28    1
    30    13    29    1
    31    16    30    1
    32    17    31    1
