
     RDKit          3D

 31 32  0  0  0  0  0  0  0  0999 V2000
   -5.6906   -0.1121   -0.2833 C   0  0  0  0  0  0  0  0  0  0  0  0
   -4.8192    0.7979    0.4860 C   0  0  0  0  0  0  0  0  0  0  0  0
   -5.3562    1.6790    1.1995 O   0  0  0  0  0  0  0  0  0  0  0  0
   -3.3774    0.6412    0.3899 C   0  0  0  0  0  0  0  0  0  0  0  0
   -2.5879    1.5184    1.1344 C   0  0  0  0  0  0  0  0  0  0  0  0
   -1.2221    1.3929    1.0626 C   0  0  0  0  0  0  0  0  0  0  0  0
   -0.6183    0.4290    0.2790 C   0  0  0  0  0  0  0  0  0  0  0  0
    0.7912    0.3547    0.2506 O   0  0  0  0  0  0  0  0  0  0  0  0
    1.3970   -0.6355   -0.5547 C   0  0  0  0  0  0  0  0  0  0  0  0
    2.8761   -0.4912   -0.4005 C   0  0  0  0  0  0  0  0  0  0  0  0
    3.5773    0.3311   -1.2431 C   0  0  0  0  0  0  0  0  0  0  0  0
    4.9491    0.4755   -1.1128 C   0  0  0  0  0  0  0  0  0  0  0  0
    5.5812   -0.2290   -0.1161 C   0  0  0  0  0  0  0  0  0  0  0  0
    4.8684   -1.0537    0.7269 C   0  0  0  0  0  0  0  0  0  0  0  0
    5.6737   -1.9636    2.0115 Cl  0  0  0  0  0  0  0  0  0  0  0  0
    3.5192   -1.1927    0.5951 C   0  0  0  0  0  0  0  0  0  0  0  0
   -1.3918   -0.4340   -0.4534 C   0  0  0  0  0  0  0  0  0  0  0  0
   -2.7619   -0.3124   -0.3849 C   0  0  0  0  0  0  0  0  0  0  0  0
   -3.5212   -1.1791   -1.1203 F   0  0  0  0  0  0  0  0  0  0  0  0
   -5.5040   -0.0937   -1.3765 H   0  0  0  0  0  0  0  0  0  0  0  0
   -6.7501    0.1404   -0.0419 H   0  0  0  0  0  0  0  0  0  0  0  0
   -5.4684   -1.1536    0.0560 H   0  0  0  0  0  0  0  0  0  0  0  0
   -3.0468    2.2872    1.7599 H   0  0  0  0  0  0  0  0  0  0  0  0
   -0.5654    2.0693    1.6378 H   0  0  0  0  0  0  0  0  0  0  0  0
    1.0867   -0.5020   -1.6251 H   0  0  0  0  0  0  0  0  0  0  0  0
    1.0381   -1.6249   -0.2202 H   0  0  0  0  0  0  0  0  0  0  0  0
    3.0956    0.8876   -2.0265 H   0  0  0  0  0  0  0  0  0  0  0  0
    5.5433    1.1092   -1.7502 H   0  0  0  0  0  0  0  0  0  0  0  0
    6.6704   -0.1313    0.0079 H   0  0  0  0  0  0  0  0  0  0  0  0
    2.9159   -1.8270    1.2312 H   0  0  0  0  0  0  0  0  0  0  0  0
   -0.9014   -1.1774   -1.0571 H   0  0  0  0  0  0  0  0  0  0  0  0
  1  2  1  0
  2  3  2  0
  2  4  1  0
  4  5  2  0
  5  6  1  0
  6  7  2  0
  7  8  1  0
  8  9  1  0
  9 10  1  0
 10 11  2  0
 11 12  1  0
 12 13  2  0
 13 14  1  0
 14 15  1  0
 14 16  2  0
  7 17  1  0
 17 18  2  0
 18 19  1  0
 18  4  1  0
 16 10  1  0
  1 20  1  0
  1 21  1  0
  1 22  1  0
  5 23  1  0
  6 24  1  0
  9 25  1  0
  9 26  1  0
 11 27  1  0
 12 28  1  0
 13 29  1  0
 16 30  1  0
 17 31  1  0
M  END
$$$$
