@<TRIPOS>MOLECULE
*****
 45 48 0 0 0
SMALL
GASTEIGER

@<TRIPOS>ATOM
      1 C          -3.2111   -3.0763    0.3553 C.3     1  UNL1       -0.0347
      2 C          -2.7381   -1.6869    0.8333 C.3     1  UNL1        0.0783
      3 C          -3.6623   -1.3387    1.9811 C.3     1  UNL1       -0.0347
      4 O          -2.8956   -0.8336   -0.2382 O.3     1  UNL1       -0.3874
      5 C          -1.3191   -1.8718    1.2362 C.3     1  UNL1        0.0530
      6 N          -0.6364   -0.7120    1.7178 N.ar    1  UNL1       -0.3256
      7 C          -0.5437   -0.2268    2.9725 C.ar    1  UNL1        0.0972
      8 N           0.2048    0.8809    2.9367 N.ar    1  UNL1       -0.2351
      9 C           0.6064    1.1269    1.6604 C.ar    1  UNL1        0.0982
     10 C           1.4400    2.2455    1.2674 C.ar    1  UNL1        0.0027
     11 C           2.7457    2.3160    1.6906 C.ar    1  UNL1       -0.0498
     12 C           3.5368    3.3897    1.3072 C.ar    1  UNL1       -0.0258
     13 C           3.0201    4.3746    0.5113 C.ar    1  UNL1        0.1234
     14 F           3.8180    5.4153    0.1489 F       1  UNL1       -0.2055
     15 C           1.6984    4.3070    0.0805 C.ar    1  UNL1       -0.0258
     16 C           0.9497    3.2436    0.4728 C.ar    1  UNL1       -0.0498
     17 C           0.0708    0.1148    0.8905 C.ar    1  UNL1        0.0967
     18 C           0.2706    0.0068   -0.5450 C.ar    1  UNL1        0.1103
     19 C          -0.4079    0.7939   -1.4433 C.ar    1  UNL1       -0.0290
     20 C          -0.1561    0.6532   -2.7904 C.ar    1  UNL1       -0.0153
     21 C           0.7693   -0.2719   -3.2227 C.ar    1  UNL1        0.1555
     22 N           1.2271   -0.6351   -4.4516 N.ar    1  UNL1       -0.2333
     23 C           2.1409   -1.6006   -4.2741 C.ar    1  UNL1        0.0659
     24 C           2.2849   -1.8747   -2.9256 C.ar    1  UNL1        0.1618
     25 C           3.1332   -2.8136   -2.2841 C.1     1  UNL1        0.1208
     26 N           3.8367   -3.6143   -1.7425 N.1     1  UNL1       -0.1892
     27 N           1.4156   -1.0271   -2.3183 N.ar    1  UNL1       -0.2023
     28 N           1.1592   -0.8775   -1.0104 N.ar    1  UNL1       -0.1623
     29 H          -4.2354   -3.0153   -0.0441 H       1  UNL1        0.0258
     30 H          -3.1836   -3.7042    1.2696 H       1  UNL1        0.0258
     31 H          -2.4597   -3.4747   -0.3357 H       1  UNL1        0.0258
     32 H          -3.1651   -0.8736    2.8388 H       1  UNL1        0.0258
     33 H          -4.4578   -0.6713    1.5523 H       1  UNL1        0.0258
     34 H          -4.2166   -2.2234    2.3761 H       1  UNL1        0.0258
     35 H          -3.8262   -0.7005   -0.4970 H       1  UNL1        0.2102
     36 H          -1.2741   -2.7116    1.9717 H       1  UNL1        0.0520
     37 H          -0.7692   -2.2552    0.3442 H       1  UNL1        0.0520
     38 H          -1.0128   -0.6990    3.8228 H       1  UNL1        0.1029
     39 H           3.1270    1.5311    2.3161 H       1  UNL1        0.0625
     40 H           4.5558    3.4430    1.6378 H       1  UNL1        0.0646
     41 H           1.3330    5.1014   -0.5456 H       1  UNL1        0.0646
     42 H          -0.0739    3.2002    0.1431 H       1  UNL1        0.0625
     43 H          -1.1548    1.5279   -1.1133 H       1  UNL1        0.0641
     44 H          -0.6712    1.2565   -3.5227 H       1  UNL1        0.0655
     45 H           2.7264   -2.1385   -5.0301 H       1  UNL1        0.0859
@<TRIPOS>BOND
     1     1     2    1
     2     2     3    1
     3     2     4    1
     4     2     5    1
     5     5     6    1
     6     6     7   ar
     7     7     8   ar
     8     8     9   ar
     9     9    10    1
    10    10    11   ar
    11    11    12   ar
    12    12    13   ar
    13    13    14    1
    14    13    15   ar
    15    15    16   ar
    16     9    17   ar
    17    17    18    1
    18    18    19   ar
    19    19    20   ar
    20    20    21   ar
    21    21    22   ar
    22    22    23   ar
    23    23    24   ar
    24    24    25    1
    25    25    26    3
    26    24    27   ar
    27    27    28   ar
    28    17     6   ar
    29    28    18   ar
    30    16    10   ar
    31    27    21   ar
    32     1    29    1
    33     1    30    1
    34     1    31    1
    35     3    32    1
    36     3    33    1
    37     3    34    1
    38     4    35    1
    39     5    36    1
    40     5    37    1
    41     7    38    1
    42    11    39    1
    43    12    40    1
    44    15    41    1
    45    16    42    1
    46    19    43    1
    47    20    44    1
    48    23    45    1
