
     RDKit          3D

 45 48  0  0  0  0  0  0  0  0999 V2000
   -3.2111   -3.0763    0.3553 C   0  0  0  0  0  0  0  0  0  0  0  0
   -2.7381   -1.6869    0.8333 C   0  0  0  0  0  0  0  0  0  0  0  0
   -3.6623   -1.3387    1.9811 C   0  0  0  0  0  0  0  0  0  0  0  0
   -2.8956   -0.8336   -0.2382 O   0  0  0  0  0  0  0  0  0  0  0  0
   -1.3191   -1.8718    1.2362 C   0  0  0  0  0  0  0  0  0  0  0  0
   -0.6364   -0.7120    1.7178 N   0  0  0  0  0  0  0  0  0  0  0  0
   -0.5437   -0.2268    2.9725 C   0  0  0  0  0  0  0  0  0  0  0  0
    0.2048    0.8809    2.9367 N   0  0  0  0  0  0  0  0  0  0  0  0
    0.6064    1.1269    1.6604 C   0  0  0  0  0  0  0  0  0  0  0  0
    1.4400    2.2455    1.2674 C   0  0  0  0  0  0  0  0  0  0  0  0
    2.7457    2.3160    1.6906 C   0  0  0  0  0  0  0  0  0  0  0  0
    3.5368    3.3897    1.3072 C   0  0  0  0  0  0  0  0  0  0  0  0
    3.0201    4.3746    0.5113 C   0  0  0  0  0  0  0  0  0  0  0  0
    3.8180    5.4153    0.1489 F   0  0  0  0  0  0  0  0  0  0  0  0
    1.6984    4.3070    0.0805 C   0  0  0  0  0  0  0  0  0  0  0  0
    0.9497    3.2436    0.4728 C   0  0  0  0  0  0  0  0  0  0  0  0
    0.0708    0.1148    0.8905 C   0  0  0  0  0  0  0  0  0  0  0  0
    0.2706    0.0068   -0.5450 C   0  0  0  0  0  0  0  0  0  0  0  0
   -0.4079    0.7939   -1.4433 C   0  0  0  0  0  0  0  0  0  0  0  0
   -0.1561    0.6532   -2.7904 C   0  0  0  0  0  0  0  0  0  0  0  0
    0.7693   -0.2719   -3.2227 C   0  0  0  0  0  0  0  0  0  0  0  0
    1.2271   -0.6351   -4.4516 N   0  0  0  0  0  0  0  0  0  0  0  0
    2.1409   -1.6006   -4.2741 C   0  0  0  0  0  0  0  0  0  0  0  0
    2.2849   -1.8747   -2.9256 C   0  0  0  0  0  0  0  0  0  0  0  0
    3.1332   -2.8136   -2.2841 C   0  0  0  0  0  0  0  0  0  0  0  0
    3.8367   -3.6143   -1.7425 N   0  0  0  0  0  0  0  0  0  0  0  0
    1.4156   -1.0271   -2.3183 N   0  0  0  0  0  0  0  0  0  0  0  0
    1.1592   -0.8775   -1.0104 N   0  0  0  0  0  0  0  0  0  0  0  0
   -4.2354   -3.0153   -0.0441 H   0  0  0  0  0  0  0  0  0  0  0  0
   -3.1836   -3.7042    1.2696 H   0  0  0  0  0  0  0  0  0  0  0  0
   -2.4597   -3.4747   -0.3357 H   0  0  0  0  0  0  0  0  0  0  0  0
   -3.1651   -0.8736    2.8388 H   0  0  0  0  0  0  0  0  0  0  0  0
   -4.4578   -0.6713    1.5523 H   0  0  0  0  0  0  0  0  0  0  0  0
   -4.2166   -2.2234    2.3761 H   0  0  0  0  0  0  0  0  0  0  0  0
   -3.8262   -0.7005   -0.4970 H   0  0  0  0  0  0  0  0  0  0  0  0
   -1.2741   -2.7116    1.9717 H   0  0  0  0  0  0  0  0  0  0  0  0
   -0.7692   -2.2552    0.3442 H   0  0  0  0  0  0  0  0  0  0  0  0
   -1.0128   -0.6990    3.8228 H   0  0  0  0  0  0  0  0  0  0  0  0
    3.1270    1.5311    2.3161 H   0  0  0  0  0  0  0  0  0  0  0  0
    4.5558    3.4430    1.6378 H   0  0  0  0  0  0  0  0  0  0  0  0
    1.3330    5.1014   -0.5456 H   0  0  0  0  0  0  0  0  0  0  0  0
   -0.0739    3.2002    0.1431 H   0  0  0  0  0  0  0  0  0  0  0  0
   -1.1548    1.5279   -1.1133 H   0  0  0  0  0  0  0  0  0  0  0  0
   -0.6712    1.2565   -3.5227 H   0  0  0  0  0  0  0  0  0  0  0  0
    2.7264   -2.1385   -5.0301 H   0  0  0  0  0  0  0  0  0  0  0  0
  1  2  1  0
  2  3  1  0
  2  4  1  0
  2  5  1  0
  5  6  1  0
  6  7  1  0
  7  8  2  0
  8  9  1  0
  9 10  1  0
 10 11  2  0
 11 12  1  0
 12 13  2  0
 13 14  1  0
 13 15  1  0
 15 16  2  0
  9 17  2  0
 17 18  1  0
 18 19  1  0
 19 20  2  0
 20 21  1  0
 21 22  2  0
 22 23  1  0
 23 24  2  0
 24 25  1  0
 25 26  3  0
 24 27  1  0
 27 28  1  0
 17  6  1  0
 28 18  2  0
 16 10  1  0
 27 21  1  0
  1 29  1  0
  1 30  1  0
  1 31  1  0
  3 32  1  0
  3 33  1  0
  3 34  1  0
  4 35  1  0
  5 36  1  0
  5 37  1  0
  7 38  1  0
 11 39  1  0
 12 40  1  0
 15 41  1  0
 16 42  1  0
 19 43  1  0
 20 44  1  0
 23 45  1  0
M  END
$$$$
