
     RDKit          3D

 21 20  0  0  0  0  0  0  0  0999 V2000
    3.4900    0.7217    0.3964 C   0  0  0  0  0  0  0  0  0  0  0  0
    2.6204    0.0315   -0.4878 O   0  0  0  0  0  0  0  0  0  0  0  0
    1.3610   -0.3665   -0.1370 C   0  0  0  0  0  0  0  0  0  0  0  0
    1.0770   -0.0466    1.0529 O   0  0  0  0  0  0  0  0  0  0  0  0
    0.6217   -1.0715   -1.2093 C   0  0  0  0  0  0  0  0  0  0  0  0
   -0.7465   -1.4607   -0.7101 C   0  0  0  0  0  0  0  0  0  0  0  0
   -1.5561   -0.3020   -0.2972 C   0  0  0  0  0  0  0  0  0  0  0  0
   -2.6644   -0.6853    0.1053 O   0  0  0  0  0  0  0  0  0  0  0  0
   -1.8637    1.1346   -0.0579 C   0  0  0  0  0  0  0  0  0  0  0  0
   -3.2335    1.1686    0.4812 N   0  0  0  0  0  0  0  0  0  0  0  0
    3.7882    1.7177   -0.0413 H   0  0  0  0  0  0  0  0  0  0  0  0
    4.4527    0.1638    0.4749 H   0  0  0  0  0  0  0  0  0  0  0  0
    3.0201    0.9435    1.3714 H   0  0  0  0  0  0  0  0  0  0  0  0
    0.6140   -0.4619   -2.1251 H   0  0  0  0  0  0  0  0  0  0  0  0
    1.1389   -2.0319   -1.4537 H   0  0  0  0  0  0  0  0  0  0  0  0
   -1.3197   -2.0171   -1.4772 H   0  0  0  0  0  0  0  0  0  0  0  0
   -0.6090   -2.1128    0.1618 H   0  0  0  0  0  0  0  0  0  0  0  0
   -1.7697    1.7695   -0.9441 H   0  0  0  0  0  0  0  0  0  0  0  0
   -1.2150    1.5376    0.7633 H   0  0  0  0  0  0  0  0  0  0  0  0
   -3.2827    0.6260    1.3709 H   0  0  0  0  0  0  0  0  0  0  0  0
   -3.9236    0.7416   -0.1752 H   0  0  0  0  0  0  0  0  0  0  0  0
  1  2  1  0
  2  3  1  0
  3  4  2  0
  3  5  1  0
  5  6  1  0
  6  7  1  0
  7  8  2  0
  7  9  1  0
  9 10  1  0
  1 11  1  0
  1 12  1  0
  1 13  1  0
  5 14  1  0
  5 15  1  0
  6 16  1  0
  6 17  1  0
  9 18  1  0
  9 19  1  0
 10 20  1  0
 10 21  1  0
M  END
$$$$
