@<TRIPOS>MOLECULE
*****
 21 20 0 0 0
SMALL
GASTEIGER

@<TRIPOS>ATOM
      1 C           3.4900    0.7217    0.3964 C.3     1  UNL1        0.0817
      2 O           2.6204    0.0315   -0.4878 O.3     1  UNL1       -0.4679
      3 C           1.3610   -0.3665   -0.1370 C.2     1  UNL1        0.3072
      4 O           1.0770   -0.0466    1.0529 O.2     1  UNL1       -0.2509
      5 C           0.6217   -1.0715   -1.2093 C.3     1  UNL1        0.0516
      6 C          -0.7465   -1.4607   -0.7101 C.3     1  UNL1        0.0171
      7 C          -1.5561   -0.3020   -0.2972 C.2     1  UNL1        0.1473
      8 O          -2.6644   -0.6853    0.1053 O.2     1  UNL1       -0.2960
      9 C          -1.8637    1.1346   -0.0579 C.3     1  UNL1        0.0524
     10 N          -3.2335    1.1686    0.4812 N.3     1  UNL1       -0.3238
     11 H           3.7882    1.7177   -0.0413 H       1  UNL1        0.0661
     12 H           4.4527    0.1638    0.4749 H       1  UNL1        0.0661
     13 H           3.0201    0.9435    1.3714 H       1  UNL1        0.0661
     14 H           0.6140   -0.4619   -2.1251 H       1  UNL1        0.0382
     15 H           1.1389   -2.0319   -1.4537 H       1  UNL1        0.0382
     16 H          -1.3197   -2.0171   -1.4772 H       1  UNL1        0.0347
     17 H          -0.6090   -2.1128    0.1618 H       1  UNL1        0.0347
     18 H          -1.7697    1.7695   -0.9441 H       1  UNL1        0.0500
     19 H          -1.2150    1.5376    0.7633 H       1  UNL1        0.0500
     20 H          -3.2827    0.6260    1.3709 H       1  UNL1        0.1186
     21 H          -3.9236    0.7416   -0.1752 H       1  UNL1        0.1186
@<TRIPOS>BOND
     1     1     2    1
     2     2     3    1
     3     3     4    2
     4     3     5    1
     5     5     6    1
     6     6     7    1
     7     7     8    2
     8     7     9    1
     9     9    10    1
    10     1    11    1
    11     1    12    1
    12     1    13    1
    13     5    14    1
    14     5    15    1
    15     6    16    1
    16     6    17    1
    17     9    18    1
    18     9    19    1
    19    10    20    1
    20    10    21    1
