@<TRIPOS>MOLECULE
*****
 54 56 0 0 0
SMALL
GASTEIGER

@<TRIPOS>ATOM
      1 C          -1.1657   -3.8698   -0.3510 C.3     1  UNL1       -0.0585
      2 C          -0.8902   -2.6894   -1.2688 C.3     1  UNL1       -0.0183
      3 C          -1.3930   -3.1196   -2.6368 C.3     1  UNL1       -0.0585
      4 C          -1.7380   -1.5650   -0.8193 C.ar    1  UNL1       -0.0055
      5 C          -3.1076   -1.7265   -1.0765 C.ar    1  UNL1        0.0334
      6 N          -4.0172   -0.8141   -0.7390 N.ar    1  UNL1       -0.2545
      7 C          -3.6335    0.3178   -0.1249 C.ar    1  UNL1        0.0755
      8 C          -4.6702    1.2916    0.2168 C.ar    1  UNL1        0.0369
      9 C          -4.4079    2.4769    0.8597 C.ar    1  UNL1       -0.0314
     10 C          -5.4474    3.3317    1.1311 C.ar    1  UNL1        0.0418
     11 CL         -5.1001    4.8485    1.9552 Cl      1  UNL1       -0.0835
     12 C          -6.7386    3.0637    0.7931 C.ar    1  UNL1       -0.0406
     13 C          -6.9918    1.8776    0.1515 C.ar    1  UNL1       -0.0244
     14 C          -5.9739    1.0116   -0.1289 C.ar    1  UNL1        0.1326
     15 F          -6.2756   -0.1683   -0.7754 F       1  UNL1       -0.2048
     16 C          -2.2976    0.5100    0.1434 C.ar    1  UNL1       -0.0141
     17 C          -1.3232   -0.4300   -0.1999 C.ar    1  UNL1        0.0393
     18 N           0.0586   -0.1652    0.0602 N.pl3   1  UNL1       -0.2984
     19 C           0.8669   -0.9182    0.9356 C.ar    1  UNL1        0.1383
     20 N           0.3070   -1.9179    1.6672 N.ar    1  UNL1       -0.2199
     21 C           1.0508   -2.6219    2.5180 C.ar    1  UNL1        0.1180
     22 N           2.3605   -2.3845    2.6903 N.ar    1  UNL1       -0.2428
     23 C           2.9785   -1.4152    2.0027 C.ar    1  UNL1        0.0447
     24 C           2.1990   -0.6666    1.1016 C.ar    1  UNL1        0.0947
     25 C           2.9160    0.3565    0.3384 C.2     1  UNL1        0.2490
     26 O           2.4178    0.9305   -0.6356 O.2     1  UNL1       -0.2700
     27 N           4.2520    0.7746    0.6649 N.am    1  UNL1       -0.3088
     28 C           4.8819    1.8050   -0.1547 C.3     1  UNL1        0.0377
     29 C           6.2678    2.0597    0.4117 C.3     1  UNL1        0.0679
     30 C           6.9180    3.1947   -0.3462 C.3     1  UNL1       -0.0375
     31 O           7.0401    0.9035    0.3781 O.3     1  UNL1       -0.3905
     32 H          -0.2235   -4.3572   -0.0286 H       1  UNL1        0.0235
     33 H          -1.8885   -4.5994   -0.8116 H       1  UNL1        0.0235
     34 H          -1.7009   -3.5378    0.5859 H       1  UNL1        0.0235
     35 H           0.1785   -2.4893   -1.2449 H       1  UNL1        0.0344
     36 H          -2.2071   -3.8833   -2.5526 H       1  UNL1        0.0235
     37 H          -1.8071   -2.2680   -3.2153 H       1  UNL1        0.0235
     38 H          -0.5731   -3.6304   -3.1641 H       1  UNL1        0.0235
     39 H          -3.4658   -2.6266   -1.5686 H       1  UNL1        0.0833
     40 H          -3.3753    2.7246    1.1474 H       1  UNL1        0.0639
     41 H          -7.5851    3.7046    0.9846 H       1  UNL1        0.0633
     42 H          -8.0022    1.5849   -0.1562 H       1  UNL1        0.0647
     43 H          -1.9737    1.4093    0.6330 H       1  UNL1        0.0658
     44 H           0.4493    0.6526   -0.4376 H       1  UNL1        0.1536
     45 H           0.6190   -3.4288    3.1155 H       1  UNL1        0.1047
     46 H           4.0206   -1.2197    2.1257 H       1  UNL1        0.0839
     47 H           4.7479    0.3655    1.4562 H       1  UNL1        0.1491
     48 H           4.2617    2.7273   -0.1210 H       1  UNL1        0.0487
     49 H           5.0199    1.4215   -1.1836 H       1  UNL1        0.0487
     50 H           6.1964    2.4180    1.4801 H       1  UNL1        0.0606
     51 H           6.4033    4.1447   -0.0716 H       1  UNL1        0.0255
     52 H           7.9787    3.2660    0.0111 H       1  UNL1        0.0255
     53 H           6.8571    3.0191   -1.4254 H       1  UNL1        0.0255
     54 H           6.7265    0.3207   -0.3610 H       1  UNL1        0.2098
@<TRIPOS>BOND
     1     1     2    1
     2     2     3    1
     3     2     4    1
     4     4     5   ar
     5     5     6   ar
     6     6     7   ar
     7     7     8    1
     8     8     9   ar
     9     9    10   ar
    10    10    11    1
    11    10    12   ar
    12    12    13   ar
    13    13    14   ar
    14    14    15    1
    15     7    16   ar
    16    16    17   ar
    17    17    18    1
    18    18    19    1
    19    19    20   ar
    20    20    21   ar
    21    21    22   ar
    22    22    23   ar
    23    23    24   ar
    24    24    25    1
    25    25    26    2
    26    25    27   am
    27    27    28    1
    28    28    29    1
    29    29    30    1
    30    29    31    1
    31    17     4   ar
    32    24    19   ar
    33    14     8   ar
    34     1    32    1
    35     1    33    1
    36     1    34    1
    37     2    35    1
    38     3    36    1
    39     3    37    1
    40     3    38    1
    41     5    39    1
    42     9    40    1
    43    12    41    1
    44    13    42    1
    45    16    43    1
    46    18    44    1
    47    21    45    1
    48    23    46    1
    49    27    47    1
    50    28    48    1
    51    28    49    1
    52    29    50    1
    53    30    51    1
    54    30    52    1
    55    30    53    1
    56    31    54    1
