
     RDKit          3D

 54 56  0  0  0  0  0  0  0  0999 V2000
   -1.1657   -3.8698   -0.3510 C   0  0  0  0  0  0  0  0  0  0  0  0
   -0.8902   -2.6894   -1.2688 C   0  0  0  0  0  0  0  0  0  0  0  0
   -1.3930   -3.1196   -2.6368 C   0  0  0  0  0  0  0  0  0  0  0  0
   -1.7380   -1.5650   -0.8193 C   0  0  0  0  0  0  0  0  0  0  0  0
   -3.1076   -1.7265   -1.0765 C   0  0  0  0  0  0  0  0  0  0  0  0
   -4.0172   -0.8141   -0.7390 N   0  0  0  0  0  0  0  0  0  0  0  0
   -3.6335    0.3178   -0.1249 C   0  0  0  0  0  0  0  0  0  0  0  0
   -4.6702    1.2916    0.2168 C   0  0  0  0  0  0  0  0  0  0  0  0
   -4.4079    2.4769    0.8597 C   0  0  0  0  0  0  0  0  0  0  0  0
   -5.4474    3.3317    1.1311 C   0  0  0  0  0  0  0  0  0  0  0  0
   -5.1001    4.8485    1.9552 Cl  0  0  0  0  0  0  0  0  0  0  0  0
   -6.7386    3.0637    0.7931 C   0  0  0  0  0  0  0  0  0  0  0  0
   -6.9918    1.8776    0.1515 C   0  0  0  0  0  0  0  0  0  0  0  0
   -5.9739    1.0116   -0.1289 C   0  0  0  0  0  0  0  0  0  0  0  0
   -6.2756   -0.1683   -0.7754 F   0  0  0  0  0  0  0  0  0  0  0  0
   -2.2976    0.5100    0.1434 C   0  0  0  0  0  0  0  0  0  0  0  0
   -1.3232   -0.4300   -0.1999 C   0  0  0  0  0  0  0  0  0  0  0  0
    0.0586   -0.1652    0.0602 N   0  0  0  0  0  0  0  0  0  0  0  0
    0.8669   -0.9182    0.9356 C   0  0  0  0  0  0  0  0  0  0  0  0
    0.3070   -1.9179    1.6672 N   0  0  0  0  0  0  0  0  0  0  0  0
    1.0508   -2.6219    2.5180 C   0  0  0  0  0  0  0  0  0  0  0  0
    2.3605   -2.3845    2.6903 N   0  0  0  0  0  0  0  0  0  0  0  0
    2.9785   -1.4152    2.0027 C   0  0  0  0  0  0  0  0  0  0  0  0
    2.1990   -0.6666    1.1016 C   0  0  0  0  0  0  0  0  0  0  0  0
    2.9160    0.3565    0.3384 C   0  0  0  0  0  0  0  0  0  0  0  0
    2.4178    0.9305   -0.6356 O   0  0  0  0  0  0  0  0  0  0  0  0
    4.2520    0.7746    0.6649 N   0  0  0  0  0  0  0  0  0  0  0  0
    4.8819    1.8050   -0.1547 C   0  0  0  0  0  0  0  0  0  0  0  0
    6.2678    2.0597    0.4117 C   0  0  2  0  0  0  0  0  0  0  0  0
    6.9180    3.1947   -0.3462 C   0  0  0  0  0  0  0  0  0  0  0  0
    7.0401    0.9035    0.3781 O   0  0  0  0  0  0  0  0  0  0  0  0
   -0.2235   -4.3572   -0.0286 H   0  0  0  0  0  0  0  0  0  0  0  0
   -1.8885   -4.5994   -0.8116 H   0  0  0  0  0  0  0  0  0  0  0  0
   -1.7009   -3.5378    0.5859 H   0  0  0  0  0  0  0  0  0  0  0  0
    0.1785   -2.4893   -1.2449 H   0  0  0  0  0  0  0  0  0  0  0  0
   -2.2071   -3.8833   -2.5526 H   0  0  0  0  0  0  0  0  0  0  0  0
   -1.8071   -2.2680   -3.2153 H   0  0  0  0  0  0  0  0  0  0  0  0
   -0.5731   -3.6304   -3.1641 H   0  0  0  0  0  0  0  0  0  0  0  0
   -3.4658   -2.6266   -1.5686 H   0  0  0  0  0  0  0  0  0  0  0  0
   -3.3753    2.7246    1.1474 H   0  0  0  0  0  0  0  0  0  0  0  0
   -7.5851    3.7046    0.9846 H   0  0  0  0  0  0  0  0  0  0  0  0
   -8.0022    1.5849   -0.1562 H   0  0  0  0  0  0  0  0  0  0  0  0
   -1.9737    1.4093    0.6330 H   0  0  0  0  0  0  0  0  0  0  0  0
    0.4493    0.6526   -0.4376 H   0  0  0  0  0  0  0  0  0  0  0  0
    0.6190   -3.4288    3.1155 H   0  0  0  0  0  0  0  0  0  0  0  0
    4.0206   -1.2197    2.1257 H   0  0  0  0  0  0  0  0  0  0  0  0
    4.7479    0.3655    1.4562 H   0  0  0  0  0  0  0  0  0  0  0  0
    4.2617    2.7273   -0.1210 H   0  0  0  0  0  0  0  0  0  0  0  0
    5.0199    1.4215   -1.1836 H   0  0  0  0  0  0  0  0  0  0  0  0
    6.1964    2.4180    1.4801 H   0  0  0  0  0  0  0  0  0  0  0  0
    6.4033    4.1447   -0.0716 H   0  0  0  0  0  0  0  0  0  0  0  0
    7.9787    3.2660    0.0111 H   0  0  0  0  0  0  0  0  0  0  0  0
    6.8571    3.0191   -1.4254 H   0  0  0  0  0  0  0  0  0  0  0  0
    6.7265    0.3207   -0.3610 H   0  0  0  0  0  0  0  0  0  0  0  0
  1  2  1  0
  2  3  1  0
  2  4  1  0
  4  5  2  0
  5  6  1  0
  6  7  2  0
  7  8  1  0
  8  9  2  0
  9 10  1  0
 10 11  1  0
 10 12  2  0
 12 13  1  0
 13 14  2  0
 14 15  1  0
  7 16  1  0
 16 17  2  0
 17 18  1  0
 18 19  1  0
 19 20  2  0
 20 21  1  0
 21 22  2  0
 22 23  1  0
 23 24  2  0
 24 25  1  0
 25 26  2  0
 25 27  1  0
 27 28  1  0
 28 29  1  0
 29 30  1  0
 29 31  1  0
 17  4  1  0
 24 19  1  0
 14  8  1  0
  1 32  1  0
  1 33  1  0
  1 34  1  0
  2 35  1  0
  3 36  1  0
  3 37  1  0
  3 38  1  0
  5 39  1  0
  9 40  1  0
 12 41  1  0
 13 42  1  0
 16 43  1  0
 18 44  1  0
 21 45  1  0
 23 46  1  0
 27 47  1  0
 28 48  1  0
 28 49  1  0
 29 50  1  1
 30 51  1  0
 30 52  1  0
 30 53  1  0
 31 54  1  0
M  END
$$$$
