@<TRIPOS>MOLECULE
*****
 61 64 0 0 0
SMALL
GASTEIGER

@<TRIPOS>ATOM
      1 C           5.7235   -2.4805    0.8047 C.3     1  UNL1       -0.0385
      2 C           5.5839   -1.0402    0.3204 C.3     1  UNL1        0.0747
      3 C           6.8549   -0.3216    0.6971 C.3     1  UNL1       -0.0385
      4 C           4.4384   -0.4236    1.0443 C.3     1  UNL1        0.0435
      5 N           3.4915   -0.0264   -0.0326 N.pl3   1  UNL1       -0.2799
      6 C           2.2336    0.5892   -0.1349 C.2     1  UNL1        0.0296
      7 C           1.4557    1.0543    1.0970 C.3     1  UNL1        0.0398
      8 S          -0.0965    1.7733    0.5982 S.3     1  UNL1       -0.0849
      9 C          -1.1496    0.5070   -0.0787 C.2     1  UNL1        0.1501
     10 N          -2.2866    0.8346   -0.5316 N.2     1  UNL1       -0.2602
     11 C          -2.7428    2.1870   -0.5131 C.3     1  UNL1        0.0533
     12 C          -3.0226    2.7276    0.8752 C.3     1  UNL1       -0.0305
     13 C          -3.9823    3.9068    0.6616 C.3     1  UNL1       -0.0511
     14 C          -3.2874    4.9434   -0.1797 C.3     1  UNL1       -0.0529
     15 C          -1.9019    4.5270   -0.6104 C.3     1  UNL1       -0.0511
     16 C          -1.9455    3.1615   -1.3100 C.3     1  UNL1       -0.0305
     17 N          -0.7690   -0.8677   -0.1354 N.pl3   1  UNL1       -0.3211
     18 C          -1.7194   -1.8295   -0.5956 C.3     1  UNL1        0.0224
     19 C          -1.0371   -3.1801   -0.5694 C.3     1  UNL1       -0.0345
     20 C          -1.9220   -4.2993   -1.0226 C.3     1  UNL1       -0.0514
     21 C          -3.0522   -4.4118    0.0088 C.3     1  UNL1       -0.0529
     22 C          -3.7899   -3.1005   -0.0369 C.3     1  UNL1       -0.0514
     23 C          -2.9425   -1.9175    0.2950 C.3     1  UNL1       -0.0345
     24 C           1.7409    0.7547   -1.3331 C.2     1  UNL1       -0.0031
     25 S           2.9199    0.0965   -2.4883 S.3     1  UNL1       -0.0607
     26 C           4.1004   -0.4069   -1.2411 C.2     1  UNL1        0.1609
     27 N           5.2504   -0.9641   -1.0633 N.2     1  UNL1       -0.2551
     28 H           6.7755   -2.8102    0.7868 H       1  UNL1        0.0253
     29 H           5.0286   -3.1597    0.2797 H       1  UNL1        0.0253
     30 H           5.4140   -2.4736    1.8754 H       1  UNL1        0.0253
     31 H           7.1670   -0.7399    1.6982 H       1  UNL1        0.0253
     32 H           6.7160    0.7632    0.8644 H       1  UNL1        0.0253
     33 H           7.6095   -0.5152   -0.0750 H       1  UNL1        0.0253
     34 H           3.9010   -1.1647    1.7029 H       1  UNL1        0.0492
     35 H           4.7074    0.4346    1.6668 H       1  UNL1        0.0492
     36 H           2.0564    1.8068    1.6519 H       1  UNL1        0.0442
     37 H           1.2932    0.2038    1.7851 H       1  UNL1        0.0442
     38 H          -3.7670    2.1613   -1.0035 H       1  UNL1        0.0545
     39 H          -2.1292    3.0642    1.3943 H       1  UNL1        0.0286
     40 H          -3.5926    1.9813    1.4558 H       1  UNL1        0.0286
     41 H          -4.3469    4.3046    1.6305 H       1  UNL1        0.0266
     42 H          -4.8349    3.4742    0.0819 H       1  UNL1        0.0266
     43 H          -3.1479    5.8452    0.4743 H       1  UNL1        0.0265
     44 H          -3.9145    5.2306   -1.0578 H       1  UNL1        0.0265
     45 H          -1.2509    4.5215    0.2707 H       1  UNL1        0.0266
     46 H          -1.5430    5.2733   -1.3437 H       1  UNL1        0.0266
     47 H          -0.9171    2.8846   -1.5318 H       1  UNL1        0.0286
     48 H          -2.4140    3.3893   -2.3124 H       1  UNL1        0.0286
     49 H           0.2107   -1.1556    0.1680 H       1  UNL1        0.1482
     50 H          -2.1146   -1.5943   -1.6214 H       1  UNL1        0.0498
     51 H          -0.7562   -3.3691    0.4873 H       1  UNL1        0.0283
     52 H          -0.0765   -3.1480   -1.1481 H       1  UNL1        0.0283
     53 H          -2.3332   -4.0857   -2.0226 H       1  UNL1        0.0266
     54 H          -1.3336   -5.2273   -1.0048 H       1  UNL1        0.0266
     55 H          -3.7383   -5.2103   -0.2687 H       1  UNL1        0.0265
     56 H          -2.5995   -4.5801    1.0019 H       1  UNL1        0.0265
     57 H          -4.2554   -2.9452   -1.0121 H       1  UNL1        0.0266
     58 H          -4.5951   -3.1652    0.7420 H       1  UNL1        0.0266
     59 H          -3.5941   -1.0222    0.1460 H       1  UNL1        0.0283
     60 H          -2.5771   -1.9613    1.3642 H       1  UNL1        0.0283
     61 H           0.8064    1.1960   -1.6517 H       1  UNL1        0.0710
@<TRIPOS>BOND
     1     1     2    1
     2     2     3    1
     3     2     4    1
     4     4     5    1
     5     5     6    1
     6     6     7    1
     7     7     8    1
     8     8     9    1
     9     9    10    2
    10    10    11    1
    11    11    12    1
    12    12    13    1
    13    13    14    1
    14    14    15    1
    15    15    16    1
    16     9    17    1
    17    17    18    1
    18    18    19    1
    19    19    20    1
    20    20    21    1
    21    21    22    1
    22    22    23    1
    23     6    24    2
    24    24    25    1
    25    25    26    1
    26    26    27    2
    27    27     2    1
    28    26     5    1
    29    16    11    1
    30    23    18    1
    31     1    28    1
    32     1    29    1
    33     1    30    1
    34     3    31    1
    35     3    32    1
    36     3    33    1
    37     4    34    1
    38     4    35    1
    39     7    36    1
    40     7    37    1
    41    11    38    1
    42    12    39    1
    43    12    40    1
    44    13    41    1
    45    13    42    1
    46    14    43    1
    47    14    44    1
    48    15    45    1
    49    15    46    1
    50    16    47    1
    51    16    48    1
    52    17    49    1
    53    18    50    1
    54    19    51    1
    55    19    52    1
    56    20    53    1
    57    20    54    1
    58    21    55    1
    59    21    56    1
    60    22    57    1
    61    22    58    1
    62    23    59    1
    63    23    60    1
    64    24    61    1
