@<TRIPOS>MOLECULE
*****
 52 55 0 0 0
SMALL
GASTEIGER

@<TRIPOS>ATOM
      1 C          -1.6729   -0.4392    3.1986 C.3     1  UNL1       -0.0492
      2 C          -2.2444    0.6253    2.3159 C.3     1  UNL1        0.0136
      3 N          -2.4223    0.2540    0.9346 N.pl3   1  UNL1       -0.2833
      4 C          -3.7632    0.0341    0.4611 C.ar    1  UNL1        0.0865
      5 C          -4.9053    0.1079    1.2311 C.ar    1  UNL1        0.1454
      6 F          -4.8333    0.3886    2.5239 F       1  UNL1       -0.2035
      7 C          -6.1583   -0.1223    0.7141 C.ar    1  UNL1       -0.0219
      8 C          -6.3293   -0.4420   -0.6156 C.ar    1  UNL1       -0.0228
      9 C          -5.2274   -0.5332   -1.4403 C.ar    1  UNL1        0.1402
     10 F          -5.3756   -0.8417   -2.7317 F       1  UNL1       -0.2045
     11 C          -4.0130   -0.2912   -0.8562 C.ar    1  UNL1        0.1238
     12 C          -2.8340   -0.3971   -1.6926 C.2     1  UNL1        0.3179
     13 N          -2.8794   -0.7198   -3.0953 N.pl3   1  UNL1       -0.2463
     14 N          -1.6493   -0.2192   -1.2790 N.2     1  UNL1       -0.0559
     15 C          -1.2826    0.1085    0.0749 C.3     1  UNL1        0.2222
     16 C          -0.2878   -0.9520    0.4962 C.3     1  UNL1        0.0283
     17 C           0.6933   -1.0369   -0.6850 C.3     1  UNL1        0.0208
     18 N           1.4167    0.2016   -0.8716 N.am    1  UNL1       -0.2973
     19 C           0.4009    1.1952   -1.2493 C.3     1  UNL1        0.0208
     20 C          -0.4838    1.4094   -0.0397 C.3     1  UNL1        0.0283
     21 C           2.7704    0.7045   -0.8048 C.2     1  UNL1        0.2441
     22 O           2.7884    1.9593   -1.1140 O.2     1  UNL1       -0.2703
     23 C           4.1391    0.2210   -0.4930 C.2     1  UNL1        0.0329
     24 C           4.2447   -1.0448   -0.1399 C.2     1  UNL1        0.0368
     25 N           5.5387   -1.5647    0.1743 N.2     1  UNL1       -0.2486
     26 C           6.5086   -0.7143    0.0809 C.2     1  UNL1        0.1177
     27 C           6.5341    0.6910   -0.2873 C.3     1  UNL1        0.0038
     28 C           5.2048    1.2270   -0.6547 C.3     1  UNL1       -0.0152
     29 C           7.8339   -1.2504    0.3981 C.1     1  UNL1        0.1146
     30 N           8.8978   -1.6908    0.6416 N.1     1  UNL1       -0.1896
     31 H          -2.2348   -0.5338    4.1672 H       1  UNL1        0.0245
     32 H          -0.6249   -0.2787    3.5259 H       1  UNL1        0.0245
     33 H          -1.6751   -1.4028    2.6432 H       1  UNL1        0.0245
     34 H          -1.3378    1.3640    2.2293 H       1  UNL1        0.0462
     35 H          -2.9673    1.3071    2.7533 H       1  UNL1        0.0462
     36 H          -7.0474   -0.0602    1.3398 H       1  UNL1        0.0648
     37 H          -7.3345   -0.6174   -0.9911 H       1  UNL1        0.0647
     38 H          -3.1100   -1.6933   -3.4138 H       1  UNL1        0.2884
     39 H          -2.7098   -0.1056   -3.9387 H       1  UNL1        0.2884
     40 H           0.2974   -0.7173    1.3789 H       1  UNL1        0.0343
     41 H          -0.8117   -1.9193    0.4875 H       1  UNL1        0.0343
     42 H           1.3201   -1.9179   -0.5979 H       1  UNL1        0.0467
     43 H           0.0273   -1.1893   -1.5958 H       1  UNL1        0.0467
     44 H          -0.1795    0.8579   -2.1428 H       1  UNL1        0.0467
     45 H           0.8908    2.1365   -1.5763 H       1  UNL1        0.0467
     46 H           0.1211    1.6373    0.8331 H       1  UNL1        0.0343
     47 H          -1.1361    2.2729   -0.2596 H       1  UNL1        0.0343
     48 H           3.4944   -1.7825   -0.0409 H       1  UNL1        0.0834
     49 H           7.0303    1.2714    0.5363 H       1  UNL1        0.0338
     50 H           7.1909    0.7576   -1.2164 H       1  UNL1        0.0338
     51 H           5.1999    1.6351   -1.7205 H       1  UNL1        0.0319
     52 H           4.9873    2.1105   -0.0009 H       1  UNL1        0.0319
@<TRIPOS>BOND
     1     1     2    1
     2     2     3    1
     3     3     4    1
     4     4     5   ar
     5     5     6    1
     6     5     7   ar
     7     7     8   ar
     8     8     9   ar
     9     9    10    1
    10     9    11   ar
    11    11    12    1
    12    12    13    1
    13    12    14    2
    14    14    15    1
    15    15    16    1
    16    16    17    1
    17    17    18    1
    18    18    19    1
    19    19    20    1
    20    18    21   am
    21    21    22    2
    22    21    23    1
    23    23    24    2
    24    24    25    1
    25    25    26    2
    26    26    27    1
    27    27    28    1
    28    26    29    1
    29    29    30    3
    30    15     3    1
    31    20    15    1
    32    28    23    1
    33    11     4   ar
    34     1    31    1
    35     1    32    1
    36     1    33    1
    37     2    34    1
    38     2    35    1
    39     7    36    1
    40     8    37    1
    41    13    38    1
    42    13    39    1
    43    16    40    1
    44    16    41    1
    45    17    42    1
    46    17    43    1
    47    19    44    1
    48    19    45    1
    49    20    46    1
    50    20    47    1
    51    24    48    1
    52    27    49    1
    53    27    50    1
    54    28    51    1
    55    28    52    1
