@<TRIPOS>MOLECULE
*****
 27 28 0 0 0
SMALL
GASTEIGER

@<TRIPOS>ATOM
      1 C          -4.6828    1.3299    0.8128 C.3     1  UNL1       -0.0140
      2 C          -3.7397    0.1820    0.6218 C.ar    1  UNL1        0.1007
      3 N          -3.7645   -0.9913    1.1634 N.ar    1  UNL1       -0.1449
      4 N          -2.8513   -1.8440    0.8637 N.ar    1  UNL1       -0.1245
      5 C          -1.9353   -1.6617    0.1004 C.ar    1  UNL1        0.2006
      6 N          -0.8422   -2.4684   -0.3586 N.pl3   1  UNL1       -0.1924
      7 S           0.3430   -1.9428   -1.4711 S.O2    1  UNL1        0.0739
      8 O          -0.4174   -1.5003   -2.7145 O.2     1  UNL1       -0.1499
      9 O           1.2137   -3.0772   -1.9228 O.2     1  UNL1       -0.1499
     10 C           1.2715   -0.5894   -0.9005 C.ar    1  UNL1        0.1087
     11 C           2.3481   -1.0201   -0.1144 C.ar    1  UNL1       -0.0333
     12 C           3.2389   -0.1017    0.4503 C.ar    1  UNL1       -0.0392
     13 C           3.0721    1.2513    0.2421 C.ar    1  UNL1        0.0247
     14 N           3.9482    2.2111    0.7939 N.pl3   1  UNL1       -0.3580
     15 C           2.0060    1.6512   -0.5346 C.ar    1  UNL1       -0.0392
     16 C           1.1255    0.7677   -1.0946 C.ar    1  UNL1       -0.0333
     17 S          -2.2443    0.0470   -0.4313 S.2     1  UNL1       -0.0345
     18 H          -4.1894    2.2907    0.5172 H       1  UNL1        0.0298
     19 H          -4.9064    1.3272    1.8759 H       1  UNL1        0.0298
     20 H          -5.5647    1.1282    0.1717 H       1  UNL1        0.0298
     21 H          -0.7982   -3.4114    0.0227 H       1  UNL1        0.1758
     22 H           2.6177   -2.0494    0.1443 H       1  UNL1        0.0638
     23 H           4.0817   -0.3853    1.0621 H       1  UNL1        0.0636
     24 H           4.5556    2.7425    0.1392 H       1  UNL1        0.1423
     25 H           4.0389    2.4344    1.8125 H       1  UNL1        0.1423
     26 H           1.8080    2.7020   -0.7444 H       1  UNL1        0.0636
     27 H           0.2674    0.9775   -1.7179 H       1  UNL1        0.0638
@<TRIPOS>BOND
     1     1     2    1
     2     2     3   ar
     3     3     4   ar
     4     4     5   ar
     5     5     6    1
     6     6     7    1
     7     7     8    2
     8     7     9    2
     9     7    10    1
    10    10    11   ar
    11    11    12   ar
    12    12    13   ar
    13    13    14    1
    14    13    15   ar
    15    15    16   ar
    16     5    17   ar
    17    17     2   ar
    18    16    10   ar
    19     1    18    1
    20     1    19    1
    21     1    20    1
    22     6    21    1
    23    11    22    1
    24    12    23    1
    25    14    24    1
    26    14    25    1
    27    15    26    1
    28    16    27    1
