
     RDKit          3D

 34 37  0  0  0  0  0  0  0  0999 V2000
    3.9488   -0.3504   -0.6594 C   0  0  0  0  0  0  0  0  0  0  0  0
    2.8700    0.4301   -0.0190 C   0  0  0  0  0  0  0  0  0  0  0  0
    1.5754   -0.0125   -0.1866 C   0  0  0  0  0  0  0  0  0  0  0  0
    1.4970   -1.1927   -0.9786 N   0  0  0  0  0  0  0  0  0  0  0  0
    0.4484   -2.1760   -0.9158 C   0  0  0  0  0  0  0  0  0  0  0  0
    0.8010   -3.3035   -1.3742 O   0  0  0  0  0  0  0  0  0  0  0  0
   -0.9082   -2.0219   -0.4069 C   0  0  0  0  0  0  0  0  0  0  0  0
   -1.4377   -0.8946    0.1289 C   0  0  0  0  0  0  0  0  0  0  0  0
   -2.7320   -0.9188    0.5596 N   0  0  0  0  0  0  0  0  0  0  0  0
   -3.4925   -2.0039    0.4740 C   0  0  0  0  0  0  0  0  0  0  0  0
   -2.9340   -3.1407   -0.0746 C   0  0  0  0  0  0  0  0  0  0  0  0
   -1.6265   -3.1917   -0.5335 C   0  0  0  0  0  0  0  0  0  0  0  0
   -0.9192    0.4353    0.3734 N   0  0  0  0  0  0  0  0  0  0  0  0
   -1.8090    1.5028    0.6098 C   0  0  0  0  0  0  0  0  0  0  0  0
   -1.6114    2.8808    0.8534 C   0  0  0  0  0  0  0  0  0  0  0  0
   -1.9897    2.4459   -0.5863 C   0  0  0  0  0  0  0  0  0  0  0  0
    0.5055    0.6513    0.3736 C   0  0  0  0  0  0  0  0  0  0  0  0
    0.7725    1.7587    1.0977 N   0  0  0  0  0  0  0  0  0  0  0  0
    2.0221    2.2230    1.2846 C   0  0  0  0  0  0  0  0  0  0  0  0
    3.1039    1.5640    0.7265 C   0  0  0  0  0  0  0  0  0  0  0  0
    4.0072   -0.1744   -1.7383 H   0  0  0  0  0  0  0  0  0  0  0  0
    3.8514   -1.3869   -0.3364 H   0  0  0  0  0  0  0  0  0  0  0  0
    4.9133    0.0391   -0.2296 H   0  0  0  0  0  0  0  0  0  0  0  0
    2.2833   -1.3224   -1.6498 H   0  0  0  0  0  0  0  0  0  0  0  0
   -4.5198   -2.0353    0.8119 H   0  0  0  0  0  0  0  0  0  0  0  0
   -3.5258   -4.0376   -0.1579 H   0  0  0  0  0  0  0  0  0  0  0  0
   -1.1665   -4.0615   -0.9644 H   0  0  0  0  0  0  0  0  0  0  0  0
   -2.8205    1.0944    0.9337 H   0  0  0  0  0  0  0  0  0  0  0  0
   -2.4460    3.4692    1.3444 H   0  0  0  0  0  0  0  0  0  0  0  0
   -0.7423    3.5389    0.8070 H   0  0  0  0  0  0  0  0  0  0  0  0
   -2.9995    2.6972   -0.9511 H   0  0  0  0  0  0  0  0  0  0  0  0
   -1.2214    2.4466   -1.3619 H   0  0  0  0  0  0  0  0  0  0  0  0
    2.1803    3.1271    1.8820 H   0  0  0  0  0  0  0  0  0  0  0  0
    4.1221    1.9205    0.8639 H   0  0  0  0  0  0  0  0  0  0  0  0
  1  2  1  0
  2  3  2  0
  3  4  1  0
  4  5  1  0
  5  6  2  0
  5  7  1  0
  7  8  2  0
  8  9  1  0
  9 10  2  0
 10 11  1  0
 11 12  2  0
  8 13  1  0
 13 14  1  0
 14 15  1  0
 15 16  1  0
 13 17  1  0
 17 18  2  0
 18 19  1  0
 19 20  2  0
 20  2  1  0
 17  3  1  0
 12  7  1  0
 16 14  1  0
  1 21  1  0
  1 22  1  0
  1 23  1  0
  4 24  1  0
 10 25  1  0
 11 26  1  0
 12 27  1  0
 14 28  1  0
 15 29  1  0
 15 30  1  0
 16 31  1  0
 16 32  1  0
 19 33  1  0
 20 34  1  0
M  END
$$$$
