@<TRIPOS>MOLECULE
*****
 56 60 0 0 0
SMALL
GASTEIGER

@<TRIPOS>ATOM
      1 C          -2.0969    0.1032    4.0156 C.3     1  UNL1       -0.0375
      2 C          -2.0592   -0.0999    2.5463 C.ar    1  UNL1       -0.0200
      3 C          -3.1746   -0.4198    1.7531 C.ar    1  UNL1        0.0179
      4 N          -2.7767   -0.5248    0.4789 N.ar    1  UNL1       -0.2721
      5 C          -3.5313   -0.8456   -0.6658 C.2     1  UNL1        0.3208
      6 O          -2.8790   -0.8746   -1.7804 O.2     1  UNL1       -0.2490
      7 N          -4.8825   -1.1347   -0.7554 N.am    1  UNL1       -0.2892
      8 C          -5.8385   -1.1762    0.3088 C.3     1  UNL1        0.0045
      9 C          -5.4405   -1.4433   -2.1101 C.3     1  UNL1        0.0045
     10 C          -1.4189   -0.2680    0.4712 C.ar    1  UNL1        0.0654
     11 C          -0.9754   -0.0166    1.7255 C.ar    1  UNL1        0.0635
     12 C           0.4848    0.0874    1.7318 C.2     1  UNL1        0.2538
     13 O           1.1279    0.3379    2.7754 O.2     1  UNL1       -0.2695
     14 N           0.9066   -0.1459    0.3921 N.am    1  UNL1       -0.2530
     15 C           2.2615   -0.4701    0.0378 C.ar    1  UNL1        0.0545
     16 C           2.6041   -0.8568   -1.2606 C.ar    1  UNL1       -0.0324
     17 C           3.8884   -1.1728   -1.6367 C.ar    1  UNL1       -0.0041
     18 C           4.1918   -1.5773   -3.0318 C.3     1  UNL1       -0.0361
     19 C           4.8500   -1.0890   -0.6493 C.ar    1  UNL1        0.1641
     20 N           6.1675   -1.3314   -0.7114 N.ar    1  UNL1       -0.1292
     21 N           6.6856   -1.1181    0.4865 N.ar    1  UNL1       -0.1340
     22 C           5.7165   -0.7341    1.3469 C.ar    1  UNL1        0.1347
     23 C           5.8515   -0.3936    2.7878 C.3     1  UNL1       -0.0041
     24 N           4.5827   -0.7267    0.6032 N.ar    1  UNL1       -0.2846
     25 C           3.3063   -0.4247    0.9294 C.ar    1  UNL1        0.0344
     26 C          -0.2502   -0.0314   -0.4437 C.3     1  UNL1        0.0977
     27 C          -0.3865    1.3573   -1.0011 C.ar    1  UNL1       -0.0208
     28 C           0.5577    1.9876   -1.7566 C.ar    1  UNL1       -0.0550
     29 C           0.3971    3.2950   -2.2360 C.ar    1  UNL1       -0.0431
     30 C          -0.7663    3.9613   -1.9252 C.ar    1  UNL1        0.0410
     31 CL         -0.9403    5.5998   -2.5404 Cl      1  UNL1       -0.0835
     32 C          -1.7433    3.3615   -1.1659 C.ar    1  UNL1       -0.0431
     33 C          -1.5393    2.0567   -0.7095 C.ar    1  UNL1       -0.0550
     34 H          -3.0791    0.5804    4.2559 H       1  UNL1        0.0278
     35 H          -2.1114   -0.9076    4.4872 H       1  UNL1        0.0278
     36 H          -1.2740    0.7317    4.3626 H       1  UNL1        0.0278
     37 H          -4.1560   -0.5433    2.1720 H       1  UNL1        0.0817
     38 H          -6.8348   -1.4796   -0.1364 H       1  UNL1        0.0429
     39 H          -5.9795   -0.1872    0.8327 H       1  UNL1        0.0429
     40 H          -5.6280   -1.9221    1.0999 H       1  UNL1        0.0429
     41 H          -5.7293   -0.4967   -2.5862 H       1  UNL1        0.0429
     42 H          -6.3437   -2.0759   -2.0167 H       1  UNL1        0.0429
     43 H          -4.6219   -1.9637   -2.6551 H       1  UNL1        0.0429
     44 H           1.7792   -0.8969   -1.9817 H       1  UNL1        0.0640
     45 H           3.3499   -2.0661   -3.5300 H       1  UNL1        0.0279
     46 H           5.0485   -2.3110   -3.0289 H       1  UNL1        0.0279
     47 H           4.5565   -0.7179   -3.6518 H       1  UNL1        0.0279
     48 H           6.0699    0.6826    2.9378 H       1  UNL1        0.0308
     49 H           4.9131   -0.6557    3.3500 H       1  UNL1        0.0308
     50 H           6.6649   -0.9601    3.2806 H       1  UNL1        0.0308
     51 H           3.1490   -0.1395    1.9489 H       1  UNL1        0.0833
     52 H          -0.2969   -0.7675   -1.2559 H       1  UNL1        0.0620
     53 H           1.4621    1.5085   -2.0188 H       1  UNL1        0.0621
     54 H           1.1646    3.7496   -2.8252 H       1  UNL1        0.0632
     55 H          -2.6393    3.9007   -0.9379 H       1  UNL1        0.0632
     56 H          -2.3446    1.6650   -0.1127 H       1  UNL1        0.0621
@<TRIPOS>BOND
     1     1     2    1
     2     2     3   ar
     3     3     4   ar
     4     4     5   am
     5     5     6    2
     6     5     7   am
     7     7     8    1
     8     7     9    1
     9     4    10   ar
    10    10    11   ar
    11    11    12    1
    12    12    13    2
    13    12    14   am
    14    14    15    1
    15    15    16   ar
    16    16    17   ar
    17    17    18    1
    18    17    19   ar
    19    19    20   ar
    20    20    21   ar
    21    21    22   ar
    22    22    23    1
    23    22    24   ar
    24    24    25   ar
    25    14    26    1
    26    26    27    1
    27    27    28   ar
    28    28    29   ar
    29    29    30   ar
    30    30    31    1
    31    30    32   ar
    32    32    33   ar
    33    11     2   ar
    34    25    15   ar
    35    33    27   ar
    36    26    10    1
    37    24    19   ar
    38     1    34    1
    39     1    35    1
    40     1    36    1
    41     3    37    1
    42     8    38    1
    43     8    39    1
    44     8    40    1
    45     9    41    1
    46     9    42    1
    47     9    43    1
    48    16    44    1
    49    18    45    1
    50    18    46    1
    51    18    47    1
    52    23    48    1
    53    23    49    1
    54    23    50    1
    55    25    51    1
    56    26    52    1
    57    28    53    1
    58    29    54    1
    59    32    55    1
    60    33    56    1
