
     RDKit          3D

 39 38  0  0  0  0  0  0  0  0999 V2000
   -3.1340   -0.8651   -0.5316 C   0  0  2  0  0  0  0  0  0  0  0  0
   -3.3368   -1.6461    0.6172 O   0  0  0  0  0  0  0  0  0  0  0  0
   -2.9762    0.5852   -0.1424 C   0  0  0  0  0  0  0  0  0  0  0  0
   -1.8044    0.7671    0.7715 C   0  0  0  0  0  0  0  0  0  0  0  0
   -0.5315    0.3254    0.1126 C   0  0  0  0  0  0  0  0  0  0  0  0
    0.5879    0.5481    1.1151 C   0  0  0  0  0  0  0  0  0  0  0  0
    1.8650    0.0934    0.4217 C   0  0  0  0  0  0  0  0  0  0  0  0
    3.0083    0.2868    1.3581 C   0  0  0  0  0  0  0  0  0  0  0  0
    4.2820   -0.1683    0.7059 C   0  0  0  0  0  0  0  0  0  0  0  0
    4.5403    0.6252   -0.5295 C   0  0  0  0  0  0  0  0  0  0  0  0
    5.8686    0.0873   -1.0986 C   0  0  0  0  0  0  0  0  0  0  0  0
   -4.3063   -1.0754   -1.4612 C   0  0  0  0  0  0  0  0  0  0  0  0
   -5.5805   -0.6806   -0.8344 C   0  0  0  0  0  0  0  0  0  0  0  0
   -6.7887   -0.8784   -0.1881 O   0  0  0  0  0  0  0  0  0  0  0  0
   -5.8267    0.5534   -0.8182 O   0  0  0  0  0  0  0  0  0  0  0  0
   -2.2332   -1.2114   -1.0929 H   0  0  0  0  0  0  0  0  0  0  0  0
   -3.8912   -1.1462    1.2644 H   0  0  0  0  0  0  0  0  0  0  0  0
   -3.8873    0.8890    0.4323 H   0  0  0  0  0  0  0  0  0  0  0  0
   -2.8413    1.2047   -1.0359 H   0  0  0  0  0  0  0  0  0  0  0  0
   -1.9343    0.2441    1.7418 H   0  0  0  0  0  0  0  0  0  0  0  0
   -1.6765    1.8663    0.9695 H   0  0  0  0  0  0  0  0  0  0  0  0
   -0.3964    0.9425   -0.7923 H   0  0  0  0  0  0  0  0  0  0  0  0
   -0.4799   -0.7268   -0.1719 H   0  0  0  0  0  0  0  0  0  0  0  0
    0.4349   -0.0705    2.0206 H   0  0  0  0  0  0  0  0  0  0  0  0
    0.6594    1.5995    1.4386 H   0  0  0  0  0  0  0  0  0  0  0  0
    1.9291    0.6667   -0.5257 H   0  0  0  0  0  0  0  0  0  0  0  0
    1.7096   -0.9752    0.1693 H   0  0  0  0  0  0  0  0  0  0  0  0
    2.8004   -0.2658    2.3011 H   0  0  0  0  0  0  0  0  0  0  0  0
    3.0527    1.3814    1.5964 H   0  0  0  0  0  0  0  0  0  0  0  0
    4.1554   -1.2434    0.4211 H   0  0  0  0  0  0  0  0  0  0  0  0
    5.0954   -0.0758    1.4533 H   0  0  0  0  0  0  0  0  0  0  0  0
    3.7472    0.4810   -1.2914 H   0  0  0  0  0  0  0  0  0  0  0  0
    4.6134    1.7141   -0.3465 H   0  0  0  0  0  0  0  0  0  0  0  0
    6.7154    0.5865   -0.6069 H   0  0  0  0  0  0  0  0  0  0  0  0
    5.8749    0.2556   -2.1927 H   0  0  0  0  0  0  0  0  0  0  0  0
    5.9579   -0.9964   -0.8945 H   0  0  0  0  0  0  0  0  0  0  0  0
   -4.1991   -0.4971   -2.3935 H   0  0  0  0  0  0  0  0  0  0  0  0
   -4.2983   -2.1540   -1.7292 H   0  0  0  0  0  0  0  0  0  0  0  0
   -6.7753   -1.0265    0.8286 H   0  0  0  0  0  0  0  0  0  0  0  0
  1  2  1  0
  1  3  1  0
  3  4  1  0
  4  5  1  0
  5  6  1  0
  6  7  1  0
  7  8  1  0
  8  9  1  0
  9 10  1  0
 10 11  1  0
  1 12  1  0
 12 13  1  0
 13 14  1  0
 13 15  2  0
  1 16  1  6
  2 17  1  0
  3 18  1  0
  3 19  1  0
  4 20  1  0
  4 21  1  0
  5 22  1  0
  5 23  1  0
  6 24  1  0
  6 25  1  0
  7 26  1  0
  7 27  1  0
  8 28  1  0
  8 29  1  0
  9 30  1  0
  9 31  1  0
 10 32  1  0
 10 33  1  0
 11 34  1  0
 11 35  1  0
 11 36  1  0
 12 37  1  0
 12 38  1  0
 14 39  1  0
M  END
$$$$
