@<TRIPOS>MOLECULE
*****
 39 38 0 0 0
SMALL
GASTEIGER

@<TRIPOS>ATOM
      1 C          -3.1340   -0.8651   -0.5316 C.3     1  UNL1        0.0653
      2 O          -3.3368   -1.6461    0.6172 O.3     1  UNL1       -0.3912
      3 C          -2.9762    0.5852   -0.1424 C.3     1  UNL1       -0.0263
      4 C          -1.8044    0.7671    0.7715 C.3     1  UNL1       -0.0507
      5 C          -0.5315    0.3254    0.1126 C.3     1  UNL1       -0.0530
      6 C           0.5879    0.5481    1.1151 C.3     1  UNL1       -0.0531
      7 C           1.8650    0.0934    0.4217 C.3     1  UNL1       -0.0531
      8 C           3.0083    0.2868    1.3581 C.3     1  UNL1       -0.0531
      9 C           4.2820   -0.1683    0.7059 C.3     1  UNL1       -0.0533
     10 C           4.5403    0.6252   -0.5295 C.3     1  UNL1       -0.0559
     11 C           5.8686    0.0873   -1.0986 C.3     1  UNL1       -0.0653
     12 C          -4.3063   -1.0754   -1.4612 C.3     1  UNL1        0.0707
     13 C          -5.5805   -0.6806   -0.8344 C.2     1  UNL1        0.3072
     14 O          -6.7887   -0.8784   -0.1881 O.3     1  UNL1       -0.4806
     15 O          -5.8267    0.5534   -0.8182 O.2     1  UNL1       -0.2509
     16 H          -2.2332   -1.2114   -1.0929 H       1  UNL1        0.0598
     17 H          -3.8912   -1.1462    1.2644 H       1  UNL1        0.2098
     18 H          -3.8873    0.8890    0.4323 H       1  UNL1        0.0290
     19 H          -2.8413    1.2047   -1.0359 H       1  UNL1        0.0290
     20 H          -1.9343    0.2441    1.7418 H       1  UNL1        0.0266
     21 H          -1.6765    1.8663    0.9695 H       1  UNL1        0.0266
     22 H          -0.3964    0.9425   -0.7923 H       1  UNL1        0.0265
     23 H          -0.4799   -0.7268   -0.1719 H       1  UNL1        0.0265
     24 H           0.4349   -0.0705    2.0206 H       1  UNL1        0.0265
     25 H           0.6594    1.5995    1.4386 H       1  UNL1        0.0265
     26 H           1.9291    0.6667   -0.5257 H       1  UNL1        0.0265
     27 H           1.7096   -0.9752    0.1693 H       1  UNL1        0.0265
     28 H           2.8004   -0.2658    2.3011 H       1  UNL1        0.0265
     29 H           3.0527    1.3814    1.5964 H       1  UNL1        0.0265
     30 H           4.1554   -1.2434    0.4211 H       1  UNL1        0.0265
     31 H           5.0954   -0.0758    1.4533 H       1  UNL1        0.0265
     32 H           3.7472    0.4810   -1.2914 H       1  UNL1        0.0263
     33 H           4.6134    1.7141   -0.3465 H       1  UNL1        0.0263
     34 H           6.7154    0.5865   -0.6069 H       1  UNL1        0.0230
     35 H           5.8749    0.2556   -2.1927 H       1  UNL1        0.0230
     36 H           5.9579   -0.9964   -0.8945 H       1  UNL1        0.0230
     37 H          -4.1991   -0.4971   -2.3935 H       1  UNL1        0.0403
     38 H          -4.2983   -2.1540   -1.7292 H       1  UNL1        0.0403
     39 H          -6.7753   -1.0265    0.8286 H       1  UNL1        0.2951
@<TRIPOS>BOND
     1     1     2    1
     2     1     3    1
     3     3     4    1
     4     4     5    1
     5     5     6    1
     6     6     7    1
     7     7     8    1
     8     8     9    1
     9     9    10    1
    10    10    11    1
    11     1    12    1
    12    12    13    1
    13    13    14    1
    14    13    15    2
    15     1    16    1
    16     2    17    1
    17     3    18    1
    18     3    19    1
    19     4    20    1
    20     4    21    1
    21     5    22    1
    22     5    23    1
    23     6    24    1
    24     6    25    1
    25     7    26    1
    26     7    27    1
    27     8    28    1
    28     8    29    1
    29     9    30    1
    30     9    31    1
    31    10    32    1
    32    10    33    1
    33    11    34    1
    34    11    35    1
    35    11    36    1
    36    12    37    1
    37    12    38    1
    38    14    39    1
