
     RDKit          3D

 56 61  0  0  0  0  0  0  0  0999 V2000
    9.6779    1.5497   -1.2063 C   0  0  0  0  0  0  0  0  0  0  0  0
    8.8565    1.4785   -0.0581 O   0  0  0  0  0  0  0  0  0  0  0  0
    7.5937    0.9285   -0.1289 C   0  0  0  0  0  0  0  0  0  0  0  0
    6.8187    0.8728    1.0024 C   0  0  0  0  0  0  0  0  0  0  0  0
    5.5664    0.3283    0.9360 N   0  0  0  0  0  0  0  0  0  0  0  0
    5.0834   -0.1521   -0.2166 C   0  0  0  0  0  0  0  0  0  0  0  0
    3.7252   -0.7316   -0.2426 C   0  0  0  0  0  0  0  0  0  0  0  0
    3.3002   -1.1737   -1.3376 O   0  0  0  0  0  0  0  0  0  0  0  0
    2.9291   -0.7889    0.9192 N   0  0  0  0  0  0  0  0  0  0  0  0
    1.6321   -1.3568    0.8337 C   0  0  0  0  0  0  0  0  0  0  0  0
    1.4331   -2.7015    1.0457 C   0  0  0  0  0  0  0  0  0  0  0  0
    0.1829   -3.2885    0.9704 C   0  0  0  0  0  0  0  0  0  0  0  0
   -0.9122   -2.5119    0.6732 C   0  0  0  0  0  0  0  0  0  0  0  0
   -0.7341   -1.1834    0.4611 C   0  0  0  0  0  0  0  0  0  0  0  0
    0.5187   -0.5954    0.5366 C   0  0  0  0  0  0  0  0  0  0  0  0
   -1.8643   -0.2370    0.1290 C   0  0  0  0  0  0  0  0  0  0  0  0
   -1.5033    0.3617   -1.1976 C   0  0  0  0  0  0  0  0  0  0  0  0
   -1.8871    1.7898   -1.3546 C   0  0  0  0  0  0  0  0  0  0  0  0
   -2.1672    2.4577   -0.1729 O   0  0  0  0  0  0  0  0  0  0  0  0
   -2.0809    1.9300    1.1051 C   0  0  0  0  0  0  0  0  0  0  0  0
   -2.1496    2.7890    2.2601 N   0  0  0  0  0  0  0  0  0  0  0  0
   -1.9394    0.6666    1.2224 N   0  0  0  0  0  0  0  0  0  0  0  0
   -3.1492   -0.9823    0.0763 C   0  0  0  0  0  0  0  0  0  0  0  0
   -4.3037   -0.2936   -0.2140 C   0  0  0  0  0  0  0  0  0  0  0  0
   -5.5425   -0.9246   -0.2801 C   0  0  0  0  0  0  0  0  0  0  0  0
   -6.7726   -0.1581   -0.5952 C   0  0  0  0  0  0  0  0  0  0  0  0
   -6.9649    1.1620    0.1094 C   0  0  0  0  0  0  0  0  0  0  0  0
   -6.6910    1.1115   -1.3585 C   0  0  0  0  0  0  0  0  0  0  0  0
   -5.6015   -2.2454   -0.0521 N   0  0  0  0  0  0  0  0  0  0  0  0
   -4.5068   -2.9801    0.2378 C   0  0  0  0  0  0  0  0  0  0  0  0
   -3.2763   -2.3341    0.2999 C   0  0  0  0  0  0  0  0  0  0  0  0
   -2.1617   -3.0706    0.5928 O   0  0  0  0  0  0  0  0  0  0  0  0
    5.8627   -0.0916   -1.3354 C   0  0  0  0  0  0  0  0  0  0  0  0
    7.1161    0.4496   -1.2851 N   0  0  0  0  0  0  0  0  0  0  0  0
    9.5105    0.6484   -1.8312 H   0  0  0  0  0  0  0  0  0  0  0  0
   10.7366    1.6447   -0.9044 H   0  0  0  0  0  0  0  0  0  0  0  0
    9.3890    2.4565   -1.7894 H   0  0  0  0  0  0  0  0  0  0  0  0
    7.1316    1.2341    1.9581 H   0  0  0  0  0  0  0  0  0  0  0  0
    3.3265   -0.4083    1.8071 H   0  0  0  0  0  0  0  0  0  0  0  0
    2.2658   -3.3759    1.2867 H   0  0  0  0  0  0  0  0  0  0  0  0
    0.0765   -4.3652    1.1478 H   0  0  0  0  0  0  0  0  0  0  0  0
    0.6867    0.4604    0.3719 H   0  0  0  0  0  0  0  0  0  0  0  0
   -0.4384    0.2060   -1.4619 H   0  0  0  0  0  0  0  0  0  0  0  0
   -2.0791   -0.2229   -1.9748 H   0  0  0  0  0  0  0  0  0  0  0  0
   -2.7526    1.9350   -2.0667 H   0  0  0  0  0  0  0  0  0  0  0  0
   -1.0403    2.3430   -1.8574 H   0  0  0  0  0  0  0  0  0  0  0  0
   -3.0390    2.8345    2.7751 H   0  0  0  0  0  0  0  0  0  0  0  0
   -1.3305    3.3292    2.5449 H   0  0  0  0  0  0  0  0  0  0  0  0
   -4.2981    0.7571   -0.4016 H   0  0  0  0  0  0  0  0  0  0  0  0
   -7.6959   -0.7739   -0.6180 H   0  0  0  0  0  0  0  0  0  0  0  0
   -6.1359    1.5707    0.7244 H   0  0  0  0  0  0  0  0  0  0  0  0
   -7.9602    1.4323    0.4905 H   0  0  0  0  0  0  0  0  0  0  0  0
   -5.7103    1.4174   -1.7527 H   0  0  0  0  0  0  0  0  0  0  0  0
   -7.5876    1.3306   -1.9968 H   0  0  0  0  0  0  0  0  0  0  0  0
   -4.5996   -4.0442    0.4149 H   0  0  0  0  0  0  0  0  0  0  0  0
    5.4560   -0.4838   -2.2550 H   0  0  0  0  0  0  0  0  0  0  0  0
  1  2  1  0
  2  3  1  0
  3  4  2  0
  4  5  1  0
  5  6  2  0
  6  7  1  0
  7  8  2  0
  7  9  1  0
  9 10  1  0
 10 11  2  0
 11 12  1  0
 12 13  2  0
 13 14  1  0
 14 15  2  0
 14 16  1  0
 16 17  1  0
 17 18  1  0
 18 19  1  0
 19 20  1  0
 20 21  1  0
 20 22  2  0
 16 23  1  0
 23 24  2  0
 24 25  1  0
 25 26  1  0
 26 27  1  0
 27 28  1  0
 25 29  2  0
 29 30  1  0
 30 31  2  0
 31 32  1  0
  6 33  1  0
 33 34  2  0
 34  3  1  0
 15 10  1  0
 22 16  1  0
 31 23  1  0
 32 13  1  0
 28 26  1  0
  1 35  1  0
  1 36  1  0
  1 37  1  0
  4 38  1  0
  9 39  1  0
 11 40  1  0
 12 41  1  0
 15 42  1  0
 17 43  1  0
 17 44  1  0
 18 45  1  0
 18 46  1  0
 21 47  1  0
 21 48  1  0
 24 49  1  0
 26 50  1  0
 27 51  1  0
 27 52  1  0
 28 53  1  0
 28 54  1  0
 30 55  1  0
 33 56  1  0
M  END
$$$$
