@<TRIPOS>MOLECULE
*****
 56 61 0 0 0
SMALL
GASTEIGER

@<TRIPOS>ATOM
      1 C           9.6779    1.5497   -1.2063 C.3     1  UNL1        0.0805
      2 O           8.8565    1.4785   -0.0581 O.3     1  UNL1       -0.4786
      3 C           7.5937    0.9285   -0.1289 C.ar    1  UNL1        0.2332
      4 C           6.8187    0.8728    1.0024 C.ar    1  UNL1        0.0899
      5 N           5.5664    0.3283    0.9360 N.ar    1  UNL1       -0.2435
      6 C           5.0834   -0.1521   -0.2166 C.ar    1  UNL1        0.1439
      7 C           3.7252   -0.7316   -0.2426 C.2     1  UNL1        0.2681
      8 O           3.3002   -1.1737   -1.3376 O.2     1  UNL1       -0.2681
      9 N           2.9291   -0.7889    0.9192 N.am    1  UNL1       -0.2802
     10 C           1.6321   -1.3568    0.8337 C.ar    1  UNL1        0.0343
     11 C           1.4331   -2.7015    1.0457 C.ar    1  UNL1       -0.0370
     12 C           0.1829   -3.2885    0.9704 C.ar    1  UNL1       -0.0172
     13 C          -0.9122   -2.5119    0.6732 C.ar    1  UNL1        0.1344
     14 C          -0.7341   -1.1834    0.4611 C.ar    1  UNL1        0.0287
     15 C           0.5187   -0.5954    0.5366 C.ar    1  UNL1       -0.0312
     16 C          -1.8643   -0.2370    0.1290 C.3     1  UNL1        0.1264
     17 C          -1.5033    0.3617   -1.1976 C.3     1  UNL1        0.0155
     18 C          -1.8871    1.7898   -1.3546 C.3     1  UNL1        0.0953
     19 O          -2.1672    2.4577   -0.1729 O.2     1  UNL1       -0.4658
     20 C          -2.0809    1.9300    1.1051 C.2     1  UNL1        0.2763
     21 N          -2.1496    2.7890    2.2601 N.pl3   1  UNL1       -0.3134
     22 N          -1.9394    0.6666    1.2224 N.2     1  UNL1       -0.2205
     23 C          -3.1492   -0.9823    0.0763 C.ar    1  UNL1        0.0301
     24 C          -4.3037   -0.2936   -0.2140 C.ar    1  UNL1       -0.0308
     25 C          -5.5425   -0.9246   -0.2801 C.ar    1  UNL1        0.0449
     26 C          -6.7726   -0.1581   -0.5952 C.3     1  UNL1        0.0014
     27 C          -6.9649    1.1620    0.1094 C.3     1  UNL1       -0.0442
     28 C          -6.6910    1.1115   -1.3585 C.3     1  UNL1       -0.0442
     29 N          -5.6015   -2.2454   -0.0521 N.ar    1  UNL1       -0.2559
     30 C          -4.5068   -2.9801    0.2378 C.ar    1  UNL1        0.0705
     31 C          -3.2763   -2.3341    0.2999 C.ar    1  UNL1        0.1522
     32 O          -2.1617   -3.0706    0.5928 O.3     1  UNL1       -0.4538
     33 C           5.8627   -0.0916   -1.3354 C.ar    1  UNL1        0.0619
     34 N           7.1161    0.4496   -1.2851 N.ar    1  UNL1       -0.2178
     35 H           9.5105    0.6484   -1.8312 H       1  UNL1        0.0660
     36 H          10.7366    1.6447   -0.9044 H       1  UNL1        0.0660
     37 H           9.3890    2.4565   -1.7894 H       1  UNL1        0.0660
     38 H           7.1316    1.2341    1.9581 H       1  UNL1        0.0884
     39 H           3.3265   -0.4083    1.8071 H       1  UNL1        0.1552
     40 H           2.2658   -3.3759    1.2867 H       1  UNL1        0.0637
     41 H           0.0765   -4.3652    1.1478 H       1  UNL1        0.0655
     42 H           0.6867    0.4604    0.3719 H       1  UNL1        0.0641
     43 H          -0.4384    0.2060   -1.4619 H       1  UNL1        0.0328
     44 H          -2.0791   -0.2229   -1.9748 H       1  UNL1        0.0328
     45 H          -2.7526    1.9350   -2.0667 H       1  UNL1        0.0698
     46 H          -1.0403    2.3430   -1.8574 H       1  UNL1        0.0698
     47 H          -3.0390    2.8345    2.7751 H       1  UNL1        0.1466
     48 H          -1.3305    3.3292    2.5449 H       1  UNL1        0.1466
     49 H          -4.2981    0.7571   -0.4016 H       1  UNL1        0.0640
     50 H          -7.6959   -0.7739   -0.6180 H       1  UNL1        0.0364
     51 H          -6.1359    1.5707    0.7244 H       1  UNL1        0.0272
     52 H          -7.9602    1.4323    0.4905 H       1  UNL1        0.0272
     53 H          -5.7103    1.4174   -1.7527 H       1  UNL1        0.0272
     54 H          -7.5876    1.3306   -1.9968 H       1  UNL1        0.0272
     55 H          -4.5996   -4.0442    0.4149 H       1  UNL1        0.0867
     56 H           5.4560   -0.4838   -2.2550 H       1  UNL1        0.0854
@<TRIPOS>BOND
     1     1     2    1
     2     2     3    1
     3     3     4   ar
     4     4     5   ar
     5     5     6   ar
     6     6     7    1
     7     7     8    2
     8     7     9   am
     9     9    10    1
    10    10    11   ar
    11    11    12   ar
    12    12    13   ar
    13    13    14   ar
    14    14    15   ar
    15    14    16    1
    16    16    17    1
    17    17    18    1
    18    18    19    1
    19    19    20    1
    20    20    21    1
    21    20    22    2
    22    16    23    1
    23    23    24   ar
    24    24    25   ar
    25    25    26    1
    26    26    27    1
    27    27    28    1
    28    25    29   ar
    29    29    30   ar
    30    30    31   ar
    31    31    32    1
    32     6    33   ar
    33    33    34   ar
    34    34     3   ar
    35    15    10   ar
    36    22    16    1
    37    31    23   ar
    38    32    13    1
    39    28    26    1
    40     1    35    1
    41     1    36    1
    42     1    37    1
    43     4    38    1
    44     9    39    1
    45    11    40    1
    46    12    41    1
    47    15    42    1
    48    17    43    1
    49    17    44    1
    50    18    45    1
    51    18    46    1
    52    21    47    1
    53    21    48    1
    54    24    49    1
    55    26    50    1
    56    27    51    1
    57    27    52    1
    58    28    53    1
    59    28    54    1
    60    30    55    1
    61    33    56    1
