
     RDKit          3D

 45 48  0  0  0  0  0  0  0  0999 V2000
   -4.9511   -3.4148   -0.7267 C   0  0  0  0  0  0  0  0  0  0  0  0
   -3.7165   -3.9810   -0.3932 O   0  0  0  0  0  0  0  0  0  0  0  0
   -2.5573   -3.2659   -0.1887 C   0  0  0  0  0  0  0  0  0  0  0  0
   -1.3763   -3.8800    0.1366 C   0  0  0  0  0  0  0  0  0  0  0  0
   -0.1901   -3.1747    0.3482 C   0  0  0  0  0  0  0  0  0  0  0  0
   -0.2031   -1.8175    0.2270 C   0  0  0  0  0  0  0  0  0  0  0  0
   -1.3841   -1.2042   -0.0983 C   0  0  0  0  0  0  0  0  0  0  0  0
   -2.5710   -1.8939   -0.3114 C   0  0  0  0  0  0  0  0  0  0  0  0
   -1.1349    0.1279   -0.1569 C   0  0  0  0  0  0  0  0  0  0  0  0
    0.1968    0.2963    0.1371 C   0  0  0  0  0  0  0  0  0  0  0  0
    0.8019   -0.8791    0.3746 N   0  0  0  0  0  0  0  0  0  0  0  0
    2.1580   -1.2166    0.6092 C   0  0  0  0  0  0  0  0  0  0  0  0
    2.4532   -2.3928    1.0320 O   0  0  0  0  0  0  0  0  0  0  0  0
    3.2573   -0.3273    0.4030 C   0  0  0  0  0  0  0  0  0  0  0  0
    4.2884   -0.3865    1.3415 C   0  0  0  0  0  0  0  0  0  0  0  0
    5.4168    0.3713    1.1706 C   0  0  0  0  0  0  0  0  0  0  0  0
    5.5544    1.1937    0.0864 C   0  0  0  0  0  0  0  0  0  0  0  0
    7.0032    2.1453   -0.1005 Cl  0  0  0  0  0  0  0  0  0  0  0  0
    4.5411    1.2562   -0.8436 C   0  0  0  0  0  0  0  0  0  0  0  0
    3.4001    0.5124   -0.7046 C   0  0  0  0  0  0  0  0  0  0  0  0
    0.6711    1.7037    0.2175 C   0  0  0  0  0  0  0  0  0  0  0  0
   -0.3218    2.6305    0.8830 C   0  0  0  0  0  0  0  0  0  0  0  0
   -1.7517    2.3099    0.6391 C   0  0  0  0  0  0  0  0  0  0  0  0
   -2.4709    3.5897    0.3973 C   0  0  0  0  0  0  0  0  0  0  0  0
   -3.0663    3.8028   -0.6713 O   0  0  0  0  0  0  0  0  0  0  0  0
   -2.4556    4.5403    1.4059 O   0  0  0  0  0  0  0  0  0  0  0  0
   -1.9666    1.3390   -0.4769 C   0  0  0  0  0  0  0  0  0  0  0  0
   -4.8009   -2.6374   -1.5058 H   0  0  0  0  0  0  0  0  0  0  0  0
   -5.6313   -4.2210   -1.0683 H   0  0  0  0  0  0  0  0  0  0  0  0
   -5.4315   -2.9830    0.1909 H   0  0  0  0  0  0  0  0  0  0  0  0
   -1.3144   -4.9574    0.2448 H   0  0  0  0  0  0  0  0  0  0  0  0
    0.6998   -3.7090    0.5983 H   0  0  0  0  0  0  0  0  0  0  0  0
   -3.4857   -1.3762   -0.5670 H   0  0  0  0  0  0  0  0  0  0  0  0
    4.1648   -1.0518    2.2088 H   0  0  0  0  0  0  0  0  0  0  0  0
    6.2300    0.3340    1.8971 H   0  0  0  0  0  0  0  0  0  0  0  0
    4.6532    1.9181   -1.7151 H   0  0  0  0  0  0  0  0  0  0  0  0
    2.6017    0.5181   -1.4236 H   0  0  0  0  0  0  0  0  0  0  0  0
    1.5695    1.6885    0.9090 H   0  0  0  0  0  0  0  0  0  0  0  0
    0.9503    2.0735   -0.7677 H   0  0  0  0  0  0  0  0  0  0  0  0
   -0.1174    2.6133    1.9740 H   0  0  0  0  0  0  0  0  0  0  0  0
   -0.0456    3.6657    0.5226 H   0  0  0  0  0  0  0  0  0  0  0  0
   -2.1945    1.8271    1.5609 H   0  0  0  0  0  0  0  0  0  0  0  0
   -2.7297    5.5040    1.2127 H   0  0  0  0  0  0  0  0  0  0  0  0
   -1.6998    1.7390   -1.4696 H   0  0  0  0  0  0  0  0  0  0  0  0
   -3.0431    1.0697   -0.4899 H   0  0  0  0  0  0  0  0  0  0  0  0
  1  2  1  0
  2  3  1  0
  3  4  2  0
  4  5  1  0
  5  6  2  0
  6  7  1  0
  7  8  2  0
  7  9  1  0
  9 10  2  0
 10 11  1  0
 11 12  1  0
 12 13  2  0
 12 14  1  0
 14 15  2  0
 15 16  1  0
 16 17  2  0
 17 18  1  0
 17 19  1  0
 19 20  2  0
 10 21  1  0
 21 22  1  0
 22 23  1  0
 23 24  1  0
 24 25  2  0
 24 26  1  0
 23 27  1  0
  8  3  1  0
 27  9  1  0
 11  6  1  0
 20 14  1  0
  1 28  1  0
  1 29  1  0
  1 30  1  0
  4 31  1  0
  5 32  1  0
  8 33  1  0
 15 34  1  0
 16 35  1  0
 19 36  1  0
 20 37  1  0
 21 38  1  0
 21 39  1  0
 22 40  1  0
 22 41  1  0
 23 42  1  0
 26 43  1  0
 27 44  1  0
 27 45  1  0
M  END
$$$$
