@<TRIPOS>MOLECULE
*****
 53 56 0 0 0
SMALL
GASTEIGER

@<TRIPOS>ATOM
      1 O           6.8545    0.5558    0.6003 O.3     1  UNL1       -0.3937
      2 C           6.1662    0.8999   -0.5735 C.3     1  UNL1        0.0569
      3 C           4.7260    1.2979   -0.2632 C.3     1  UNL1        0.0222
      4 N           4.0386    0.1969    0.3654 N.3     1  UNL1       -0.2977
      5 C           3.8533   -0.8639   -0.5773 C.3     1  UNL1        0.0118
      6 C           2.9768   -1.9620   -0.0858 C.3     1  UNL1        0.0117
      7 N           1.7190   -1.4592    0.4694 N.3     1  UNL1       -0.2999
      8 C           0.8714   -0.9484   -0.5830 C.3     1  UNL1        0.0004
      9 C          -0.4781   -0.6510   -0.0161 C.3     1  UNL1       -0.0240
     10 C          -1.4372   -0.1235   -1.0762 C.3     1  UNL1        0.0185
     11 N          -2.7327    0.0694   -0.4736 N.pl3   1  UNL1       -0.2982
     12 C          -3.5705   -1.0862   -0.2917 C.ar    1  UNL1        0.0479
     13 C          -3.0421   -2.2999   -0.6740 C.ar    1  UNL1       -0.0393
     14 C          -3.8306   -3.4397   -0.4902 C.ar    1  UNL1       -0.0599
     15 C          -5.0783   -3.3668    0.0453 C.ar    1  UNL1       -0.0606
     16 C          -5.5969   -2.1369    0.4255 C.ar    1  UNL1       -0.0462
     17 C          -4.8396   -1.0337    0.2508 C.ar    1  UNL1        0.0341
     18 S          -5.5552    0.5128    0.7348 S.3     1  UNL1       -0.0857
     19 C          -4.3161    1.7599    0.4452 C.ar    1  UNL1        0.0342
     20 C          -4.6086    3.0468    0.7982 C.ar    1  UNL1       -0.0448
     21 C          -3.7244    4.0765    0.6226 C.ar    1  UNL1       -0.0422
     22 C          -2.5108    3.7404    0.0661 C.ar    1  UNL1        0.0428
     23 CL         -1.3562    5.0568   -0.1653 Cl      1  UNL1       -0.0835
     24 C          -2.2185    2.4352   -0.2900 C.ar    1  UNL1       -0.0209
     25 C          -3.1055    1.3933   -0.1173 C.ar    1  UNL1        0.0493
     26 C           2.0108   -0.5057    1.5158 C.3     1  UNL1        0.0117
     27 C           2.8192    0.6600    0.9863 C.3     1  UNL1        0.0118
     28 H           6.3290   -0.1090    1.1117 H       1  UNL1        0.2095
     29 H           6.2330    0.0800   -1.3105 H       1  UNL1        0.0570
     30 H           6.6960    1.7890   -1.0010 H       1  UNL1        0.0570
     31 H           4.2713    1.5531   -1.2610 H       1  UNL1        0.0449
     32 H           4.7222    2.2284    0.3245 H       1  UNL1        0.0449
     33 H           4.8739   -1.3202   -0.7441 H       1  UNL1        0.0439
     34 H           3.5188   -0.4139   -1.5379 H       1  UNL1        0.0439
     35 H           3.4863   -2.5360    0.6879 H       1  UNL1        0.0439
     36 H           2.6929   -2.5881   -0.9557 H       1  UNL1        0.0439
     37 H           0.7401   -1.7250   -1.3924 H       1  UNL1        0.0427
     38 H           1.3851   -0.0711   -1.0271 H       1  UNL1        0.0427
     39 H          -0.8362   -1.4839    0.5718 H       1  UNL1        0.0293
     40 H          -0.3091    0.1781    0.7573 H       1  UNL1        0.0293
     41 H          -1.4230   -0.9074   -1.8805 H       1  UNL1        0.0468
     42 H          -1.0304    0.7547   -1.6179 H       1  UNL1        0.0468
     43 H          -2.0632   -2.4142   -1.1053 H       1  UNL1        0.0636
     44 H          -3.3988   -4.3820   -0.7980 H       1  UNL1        0.0618
     45 H          -5.6753   -4.2567    0.1784 H       1  UNL1        0.0618
     46 H          -6.5982   -2.1059    0.8516 H       1  UNL1        0.0629
     47 H          -5.5944    3.2749    1.2390 H       1  UNL1        0.0630
     48 H          -3.9690    5.0943    0.9038 H       1  UNL1        0.0632
     49 H          -1.2528    2.2558   -0.7029 H       1  UNL1        0.0651
     50 H           2.6971   -1.0520    2.2221 H       1  UNL1        0.0439
     51 H           1.1428   -0.1619    2.0347 H       1  UNL1        0.0439
     52 H           2.1806    1.2329    0.3031 H       1  UNL1        0.0439
     53 H           3.1465    1.2617    1.8788 H       1  UNL1        0.0439
@<TRIPOS>BOND
     1     1     2    1
     2     2     3    1
     3     3     4    1
     4     4     5    1
     5     5     6    1
     6     6     7    1
     7     7     8    1
     8     8     9    1
     9     9    10    1
    10    10    11    1
    11    11    12    1
    12    12    13   ar
    13    13    14   ar
    14    14    15   ar
    15    15    16   ar
    16    16    17   ar
    17    17    18    1
    18    18    19    1
    19    19    20   ar
    20    20    21   ar
    21    21    22   ar
    22    22    23    1
    23    22    24   ar
    24    24    25   ar
    25     7    26    1
    26    26    27    1
    27    27     4    1
    28    25    11    1
    29    17    12   ar
    30    25    19   ar
    31     1    28    1
    32     2    29    1
    33     2    30    1
    34     3    31    1
    35     3    32    1
    36     5    33    1
    37     5    34    1
    38     6    35    1
    39     6    36    1
    40     8    37    1
    41     8    38    1
    42     9    39    1
    43     9    40    1
    44    10    41    1
    45    10    42    1
    46    13    43    1
    47    14    44    1
    48    15    45    1
    49    16    46    1
    50    20    47    1
    51    21    48    1
    52    24    49    1
    53    26    50    1
    54    26    51    1
    55    27    52    1
    56    27    53    1
