@<TRIPOS>MOLECULE
*****
 44 47 0 0 0
SMALL
GASTEIGER

@<TRIPOS>ATOM
      1 C          -6.3217    2.2056    0.6770 C.3     1  UNL1       -0.0039
      2 C          -5.3892    1.3909   -0.1619 C.ar    1  UNL1        0.1359
      3 N          -5.4529    1.4018   -1.5222 N.ar    1  UNL1       -0.1939
      4 S          -4.1295    0.2697   -2.0338 S.2     1  UNL1        0.0369
      5 C          -3.6822   -0.0504   -0.2120 C.ar    1  UNL1        0.1652
      6 C          -2.5595   -0.9905    0.0252 C.ar    1  UNL1        0.1910
      7 N          -2.7097   -2.3156    0.1117 N.ar    1  UNL1       -0.1269
      8 N          -1.5290   -2.8308    0.3207 N.ar    1  UNL1       -0.1320
      9 C          -0.6001   -1.8666    0.3733 C.ar    1  UNL1        0.1545
     10 N          -1.2591   -0.6947    0.1852 N.ar    1  UNL1       -0.3062
     11 C          -0.6037    0.5817    0.1810 C.3     1  UNL1        0.0423
     12 C           0.6459    0.4825    1.0675 C.3     1  UNL1        0.0338
     13 N           1.4325   -0.6017    0.3996 N.am    1  UNL1       -0.2856
     14 C           2.5694   -0.2879   -0.3253 C.2     1  UNL1        0.2472
     15 O           3.2808   -1.1023   -0.9166 O.2     1  UNL1       -0.2700
     16 C           2.9782    1.1364   -0.4068 C.ar    1  UNL1        0.0371
     17 C           2.7155    1.8971   -1.5241 C.ar    1  UNL1       -0.0469
     18 C           3.1155    3.2205   -1.5612 C.ar    1  UNL1       -0.0257
     19 C           3.7800    3.7647   -0.4633 C.ar    1  UNL1        0.1234
     20 F           4.1681    5.0649   -0.5061 F       1  UNL1       -0.2055
     21 C           4.0338    2.9924    0.6418 C.ar    1  UNL1       -0.0257
     22 C           3.6300    1.6699    0.6696 C.ar    1  UNL1       -0.0469
     23 C           0.8656   -1.9425    0.5978 C.3     1  UNL1        0.0883
     24 C           1.6174   -2.9255   -0.1918 C.3     1  UNL1       -0.0039
     25 C           1.2537   -4.3670   -0.0588 C.3     1  UNL1        0.0463
     26 O          -0.0206   -4.7171   -0.4283 O.3     1  UNL1       -0.3949
     27 N          -4.4520    0.6155    0.3159 N.ar    1  UNL1       -0.2199
     28 H          -6.6999    1.5767    1.5124 H       1  UNL1        0.0308
     29 H          -5.8262    3.1237    1.0760 H       1  UNL1        0.0308
     30 H          -7.1784    2.5804    0.0666 H       1  UNL1        0.0308
     31 H          -0.2167    0.8306   -0.8454 H       1  UNL1        0.0508
     32 H          -1.2337    1.3994    0.5838 H       1  UNL1        0.0508
     33 H           0.4000    0.1785    2.0909 H       1  UNL1        0.0482
     34 H           1.2179    1.4063    0.9838 H       1  UNL1        0.0482
     35 H           2.1940    1.4596   -2.3830 H       1  UNL1        0.0626
     36 H           2.9256    3.8564   -2.4294 H       1  UNL1        0.0646
     37 H           4.5580    3.4291    1.5007 H       1  UNL1        0.0646
     38 H           3.8589    1.1064    1.5725 H       1  UNL1        0.0626
     39 H           1.0351   -2.2000    1.6986 H       1  UNL1        0.0582
     40 H           1.6830   -2.7002   -1.2807 H       1  UNL1        0.0309
     41 H           2.6945   -2.8837    0.1995 H       1  UNL1        0.0309
     42 H           1.4981   -4.7261    0.9853 H       1  UNL1        0.0558
     43 H           2.0079   -4.9309   -0.6891 H       1  UNL1        0.0558
     44 H          -0.2952   -5.5070    0.1033 H       1  UNL1        0.2094
@<TRIPOS>BOND
     1     1     2    1
     2     2     3   ar
     3     3     4   ar
     4     4     5   ar
     5     5     6    1
     6     6     7   ar
     7     7     8   ar
     8     8     9   ar
     9     9    10   ar
    10    10    11    1
    11    11    12    1
    12    12    13    1
    13    13    14   am
    14    14    15    2
    15    14    16    1
    16    16    17   ar
    17    17    18   ar
    18    18    19   ar
    19    19    20    1
    20    19    21   ar
    21    21    22   ar
    22    13    23    1
    23    23    24    1
    24    24    25    1
    25    25    26    1
    26     5    27   ar
    27    27     2   ar
    28    10     6   ar
    29    22    16   ar
    30    23     9    1
    31     1    28    1
    32     1    29    1
    33     1    30    1
    34    11    31    1
    35    11    32    1
    36    12    33    1
    37    12    34    1
    38    17    35    1
    39    18    36    1
    40    21    37    1
    41    22    38    1
    42    23    39    1
    43    24    40    1
    44    24    41    1
    45    25    42    1
    46    25    43    1
    47    26    44    1
