@<TRIPOS>MOLECULE
*****
 30 32 0 0 0
SMALL
GASTEIGER

@<TRIPOS>ATOM
      1 O           0.0542   -0.3686    1.6317 O.2     1  UNL1       -0.2863
      2 C           0.4603   -0.1512    0.4697 C.ar    1  UNL1        0.2037
      3 C          -0.4678    0.2238   -0.4827 C.ar    1  UNL1        0.0644
      4 C          -1.8642    0.3594   -0.1413 C.ar    1  UNL1       -0.0110
      5 C          -2.3299    0.9946    0.9857 C.ar    1  UNL1       -0.0504
      6 C          -3.7008    1.0866    1.2503 C.ar    1  UNL1       -0.0196
      7 C          -4.6158    0.5401    0.3833 C.ar    1  UNL1        0.1169
      8 O          -5.9864    0.6388    0.6595 O.3     1  UNL1       -0.5068
      9 C          -4.1645   -0.0891   -0.7323 C.ar    1  UNL1       -0.0196
     10 C          -2.8094   -0.1791   -0.9922 C.ar    1  UNL1       -0.0504
     11 C           0.0305    0.4547   -1.7599 C.ar    1  UNL1        0.1038
     12 O           1.3060    0.3232   -2.0400 O.2     1  UNL1       -0.4618
     13 C           2.1963   -0.0336   -1.1391 C.ar    1  UNL1        0.1454
     14 C           3.5430   -0.1666   -1.4587 C.ar    1  UNL1        0.0231
     15 C           4.4939   -0.5385   -0.5345 C.ar    1  UNL1        0.1239
     16 O           5.8429   -0.6660   -0.8784 O.3     1  UNL1       -0.5065
     17 C           4.0889   -0.7881    0.7604 C.ar    1  UNL1        0.0223
     18 C           2.7432   -0.6580    1.0918 C.ar    1  UNL1        0.1347
     19 O           2.2947   -0.9009    2.3868 O.3     1  UNL1       -0.5058
     20 C           1.7984   -0.2857    0.1614 C.ar    1  UNL1        0.1060
     21 H          -1.6296    1.4246    1.6694 H       1  UNL1        0.0625
     22 H          -4.0847    1.5824    2.1316 H       1  UNL1        0.0654
     23 H          -6.3549    0.3598    1.5770 H       1  UNL1        0.2921
     24 H          -4.8660   -0.5263   -1.4282 H       1  UNL1        0.0654
     25 H          -2.4789   -0.6841   -1.8851 H       1  UNL1        0.0625
     26 H          -0.6981    0.7521   -2.5200 H       1  UNL1        0.1037
     27 H           3.8819    0.0234   -2.4641 H       1  UNL1        0.0691
     28 H           6.3730    0.2146   -0.9352 H       1  UNL1        0.2921
     29 H           4.8082   -1.0823    1.5132 H       1  UNL1        0.0691
     30 H           2.1357   -1.8598    2.7202 H       1  UNL1        0.2922
@<TRIPOS>BOND
     1     1     2    2
     2     2     3   ar
     3     3     4    1
     4     4     5   ar
     5     5     6   ar
     6     6     7   ar
     7     7     8    1
     8     7     9   ar
     9     9    10   ar
    10     3    11   ar
    11    11    12   ar
    12    12    13   ar
    13    13    14   ar
    14    14    15   ar
    15    15    16    1
    16    15    17   ar
    17    17    18   ar
    18    18    19    1
    19    18    20   ar
    20    20     2   ar
    21    10     4   ar
    22    20    13   ar
    23     5    21    1
    24     6    22    1
    25     8    23    1
    26     9    24    1
    27    10    25    1
    28    11    26    1
    29    14    27    1
    30    16    28    1
    31    17    29    1
    32    19    30    1
