
     RDKit          3D

 30 32  0  0  0  0  0  0  0  0999 V2000
    0.0542   -0.3686    1.6317 O   0  0  0  0  0  0  0  0  0  0  0  0
    0.4603   -0.1512    0.4697 C   0  0  0  0  0  0  0  0  0  0  0  0
   -0.4678    0.2238   -0.4827 C   0  0  0  0  0  0  0  0  0  0  0  0
   -1.8642    0.3594   -0.1413 C   0  0  0  0  0  0  0  0  0  0  0  0
   -2.3299    0.9946    0.9857 C   0  0  0  0  0  0  0  0  0  0  0  0
   -3.7008    1.0866    1.2503 C   0  0  0  0  0  0  0  0  0  0  0  0
   -4.6158    0.5401    0.3833 C   0  0  0  0  0  0  0  0  0  0  0  0
   -5.9864    0.6388    0.6595 O   0  0  0  0  0  0  0  0  0  0  0  0
   -4.1645   -0.0891   -0.7323 C   0  0  0  0  0  0  0  0  0  0  0  0
   -2.8094   -0.1791   -0.9922 C   0  0  0  0  0  0  0  0  0  0  0  0
    0.0305    0.4547   -1.7599 C   0  0  0  0  0  0  0  0  0  0  0  0
    1.3060    0.3232   -2.0400 O   0  0  0  0  0  0  0  0  0  0  0  0
    2.1963   -0.0336   -1.1391 C   0  0  0  0  0  0  0  0  0  0  0  0
    3.5430   -0.1666   -1.4587 C   0  0  0  0  0  0  0  0  0  0  0  0
    4.4939   -0.5385   -0.5345 C   0  0  0  0  0  0  0  0  0  0  0  0
    5.8429   -0.6660   -0.8784 O   0  0  0  0  0  0  0  0  0  0  0  0
    4.0889   -0.7881    0.7604 C   0  0  0  0  0  0  0  0  0  0  0  0
    2.7432   -0.6580    1.0918 C   0  0  0  0  0  0  0  0  0  0  0  0
    2.2947   -0.9009    2.3868 O   0  0  0  0  0  0  0  0  0  0  0  0
    1.7984   -0.2857    0.1614 C   0  0  0  0  0  0  0  0  0  0  0  0
   -1.6296    1.4246    1.6694 H   0  0  0  0  0  0  0  0  0  0  0  0
   -4.0847    1.5824    2.1316 H   0  0  0  0  0  0  0  0  0  0  0  0
   -6.3549    0.3598    1.5770 H   0  0  0  0  0  0  0  0  0  0  0  0
   -4.8660   -0.5263   -1.4282 H   0  0  0  0  0  0  0  0  0  0  0  0
   -2.4789   -0.6841   -1.8851 H   0  0  0  0  0  0  0  0  0  0  0  0
   -0.6981    0.7521   -2.5200 H   0  0  0  0  0  0  0  0  0  0  0  0
    3.8819    0.0234   -2.4641 H   0  0  0  0  0  0  0  0  0  0  0  0
    6.3730    0.2146   -0.9352 H   0  0  0  0  0  0  0  0  0  0  0  0
    4.8082   -1.0823    1.5132 H   0  0  0  0  0  0  0  0  0  0  0  0
    2.1357   -1.8598    2.7202 H   0  0  0  0  0  0  0  0  0  0  0  0
  1  2  2  0
  2  3  1  0
  3  4  1  0
  4  5  2  0
  5  6  1  0
  6  7  2  0
  7  8  1  0
  7  9  1  0
  9 10  2  0
  3 11  2  0
 11 12  1  0
 12 13  1  0
 13 14  2  0
 14 15  1  0
 15 16  1  0
 15 17  2  0
 17 18  1  0
 18 19  1  0
 18 20  2  0
 20  2  1  0
 10  4  1  0
 20 13  1  0
  5 21  1  0
  6 22  1  0
  8 23  1  0
  9 24  1  0
 10 25  1  0
 11 26  1  0
 14 27  1  0
 16 28  1  0
 17 29  1  0
 19 30  1  0
M  END
$$$$
