
     RDKit          3D

 33 34  0  0  0  0  0  0  0  0999 V2000
   -6.6353    0.9959    0.4965 C   0  0  0  0  0  0  0  0  0  0  0  0
   -5.8475   -0.1471    0.8011 O   0  0  0  0  0  0  0  0  0  0  0  0
   -4.5561   -0.2856    0.3124 C   0  0  0  0  0  0  0  0  0  0  0  0
   -3.9204    0.6552   -0.5027 C   0  0  0  0  0  0  0  0  0  0  0  0
   -2.6283    0.4487   -0.9529 C   0  0  0  0  0  0  0  0  0  0  0  0
   -2.0041   -0.7184   -0.5628 C   0  0  0  0  0  0  0  0  0  0  0  0
   -0.6296   -0.9268   -1.0482 C   0  0  0  0  0  0  0  0  0  0  0  0
    0.2972   -0.3569   -0.0849 N   0  0  0  0  0  0  0  0  0  0  0  0
    1.6973   -0.4383   -0.3419 C   0  0  0  0  0  0  0  0  0  0  0  0
    2.2023   -0.9678   -1.3434 O   0  0  0  0  0  0  0  0  0  0  0  0
    2.5699    0.1299    0.6225 N   0  0  0  0  0  0  0  0  0  0  0  0
    3.9928    0.1439    0.5371 C   0  0  0  0  0  0  0  0  0  0  0  0
    4.8415   -0.5555    0.8774 N   0  0  0  0  0  0  0  0  0  0  0  0
    6.1448   -0.4061    0.7238 C   0  0  0  0  0  0  0  0  0  0  0  0
    6.5727    0.7103    0.0834 C   0  0  0  0  0  0  0  0  0  0  0  0
    5.0011    1.5529   -0.2965 S   0  0  0  0  0  0  0  0  0  0  0  0
    7.8091    1.2398   -0.2766 N   0  0  0  0  0  4  0  0  0  0  0  0
    7.9404    2.4449   -0.9498 O   0  0  0  0  0  1  0  0  0  0  0  0
    8.7637    0.5193    0.0695 O   0  0  0  0  0  0  0  0  0  0  0  0
   -2.5997   -1.6734    0.2428 C   0  0  0  0  0  0  0  0  0  0  0  0
   -3.8908   -1.4390    0.6767 C   0  0  0  0  0  0  0  0  0  0  0  0
   -7.4190    1.1618    1.2677 H   0  0  0  0  0  0  0  0  0  0  0  0
   -7.0411    0.8426   -0.5237 H   0  0  0  0  0  0  0  0  0  0  0  0
   -5.9947    1.9240    0.5376 H   0  0  0  0  0  0  0  0  0  0  0  0
   -4.4723    1.5465   -0.7676 H   0  0  0  0  0  0  0  0  0  0  0  0
   -2.1505    1.1888   -1.5844 H   0  0  0  0  0  0  0  0  0  0  0  0
   -0.4056   -2.0026   -1.1952 H   0  0  0  0  0  0  0  0  0  0  0  0
   -0.4074   -0.4170   -2.0155 H   0  0  0  0  0  0  0  0  0  0  0  0
   -0.0423    0.1119    0.7932 H   0  0  0  0  0  0  0  0  0  0  0  0
    2.2899    0.6054    1.5083 H   0  0  0  0  0  0  0  0  0  0  0  0
    6.9167   -1.1087    1.0700 H   0  0  0  0  0  0  0  0  0  0  0  0
   -2.0532   -2.5826    0.5202 H   0  0  0  0  0  0  0  0  0  0  0  0
   -4.3417   -2.1957    1.3057 H   0  0  0  0  0  0  0  0  0  0  0  0
  1  2  1  0
  2  3  1  0
  3  4  2  0
  4  5  1  0
  5  6  2  0
  6  7  1  0
  7  8  1  0
  8  9  1  0
  9 10  2  0
  9 11  1  0
 11 12  1  0
 12 13  2  0
 13 14  1  0
 14 15  2  0
 15 16  1  0
 15 17  1  0
 17 18  1  0
 17 19  2  0
  6 20  1  0
 20 21  2  0
 21  3  1  0
 16 12  1  0
  1 22  1  0
  1 23  1  0
  1 24  1  0
  4 25  1  0
  5 26  1  0
  7 27  1  0
  7 28  1  0
  8 29  1  0
 11 30  1  0
 14 31  1  0
 20 32  1  0
 21 33  1  0
M  CHG  2  17   1  18  -1
M  END
$$$$
