@<TRIPOS>MOLECULE
*****
 47 49 0 0 0
SMALL
GASTEIGER

@<TRIPOS>ATOM
      1 C           8.3598   -0.9104    2.0426 C.3     1  UNL1        0.0805
      2 O           7.3023   -1.7539    1.6258 O.3     1  UNL1       -0.4786
      3 C           6.1310   -1.2003    1.1245 C.ar    1  UNL1        0.2332
      4 C           5.0948   -2.0133    0.7159 C.ar    1  UNL1        0.0899
      5 N           3.9555   -1.4897    0.2286 N.ar    1  UNL1       -0.2435
      6 C           3.7605   -0.1647    0.1121 C.ar    1  UNL1        0.1439
      7 C           2.5193    0.3972   -0.4184 C.2     1  UNL1        0.2681
      8 O           2.3352    1.6350   -0.5285 O.2     1  UNL1       -0.2681
      9 N           1.4649   -0.4605   -0.8329 N.am    1  UNL1       -0.2801
     10 C           0.2362    0.0402   -1.3567 C.ar    1  UNL1        0.0369
     11 C           0.1692    0.2284   -2.7211 C.ar    1  UNL1       -0.0023
     12 C          -0.9601    0.7045   -3.3399 C.ar    1  UNL1        0.1605
     13 F          -1.0331    0.8919   -4.6780 F       1  UNL1       -0.2024
     14 C          -2.0669    1.0015   -2.5380 C.ar    1  UNL1        0.1640
     15 F          -3.1820    1.4419   -3.2102 F       1  UNL1       -0.2021
     16 C          -2.0040    0.8167   -1.1782 C.ar    1  UNL1        0.0224
     17 C          -3.1693    1.1758   -0.3625 C.3     1  UNL1        0.1259
     18 C          -3.3969    2.6620   -0.4134 C.3     1  UNL1        0.1196
     19 F          -3.6398    3.1975   -1.6436 F       1  UNL1       -0.2462
     20 C          -3.0181    0.8375    1.1106 C.3     1  UNL1        0.0251
     21 C          -3.2377   -0.6094    1.4338 C.3     1  UNL1        0.1998
     22 C          -4.2802   -0.7978    2.5442 C.3     1  UNL1        0.4266
     23 F          -3.8822   -0.1767    3.6916 F       1  UNL1       -0.1669
     24 F          -4.3529   -2.1560    2.7714 F       1  UNL1       -0.1669
     25 F          -5.5166   -0.3682    2.1433 F       1  UNL1       -0.1669
     26 O          -3.6292   -1.3995    0.3227 O.2     1  UNL1       -0.4534
     27 C          -4.5283   -0.8135   -0.5777 C.2     1  UNL1        0.2766
     28 N          -5.6212   -1.5537   -1.0948 N.pl3   1  UNL1       -0.3134
     29 N          -4.2795    0.3993   -0.8759 N.2     1  UNL1       -0.2228
     30 C          -0.8477    0.3317   -0.5710 C.ar    1  UNL1       -0.0320
     31 C           4.8002    0.6428    0.5224 C.ar    1  UNL1        0.0619
     32 N           5.9434    0.1271    1.0110 N.ar    1  UNL1       -0.2178
     33 H           9.0453   -1.4096    2.7374 H       1  UNL1        0.0660
     34 H           7.9041   -0.0522    2.5961 H       1  UNL1        0.0660
     35 H           8.8777   -0.4549    1.1682 H       1  UNL1        0.0660
     36 H           5.2295   -3.0922    0.8007 H       1  UNL1        0.0884
     37 H           1.6418   -1.4970   -0.7313 H       1  UNL1        0.1552
     38 H           1.0182    0.0011   -3.3411 H       1  UNL1        0.0666
     39 H          -4.2452    2.8957    0.3047 H       1  UNL1        0.0643
     40 H          -2.4695    3.2009   -0.0448 H       1  UNL1        0.0643
     41 H          -3.8476    1.3885    1.6646 H       1  UNL1        0.0331
     42 H          -2.1100    1.1896    1.5806 H       1  UNL1        0.0331
     43 H          -2.2878   -1.0398    1.8437 H       1  UNL1        0.0826
     44 H          -6.5014   -1.1177   -1.4144 H       1  UNL1        0.1466
     45 H          -5.5304   -2.5855   -1.1547 H       1  UNL1        0.1466
     46 H          -0.7965    0.1865    0.5020 H       1  UNL1        0.0640
     47 H           4.6453    1.7231    0.4293 H       1  UNL1        0.0854
@<TRIPOS>BOND
     1     1     2    1
     2     2     3    1
     3     3     4   ar
     4     4     5   ar
     5     5     6   ar
     6     6     7    1
     7     7     8    2
     8     7     9   am
     9     9    10    1
    10    10    11   ar
    11    11    12   ar
    12    12    13    1
    13    12    14   ar
    14    14    15    1
    15    14    16   ar
    16    16    17    1
    17    17    18    1
    18    18    19    1
    19    17    20    1
    20    20    21    1
    21    21    22    1
    22    22    23    1
    23    22    24    1
    24    22    25    1
    25    21    26    1
    26    26    27    1
    27    27    28    1
    28    27    29    2
    29    16    30   ar
    30     6    31   ar
    31    31    32   ar
    32    32     3   ar
    33    30    10   ar
    34    29    17    1
    35     1    33    1
    36     1    34    1
    37     1    35    1
    38     4    36    1
    39     9    37    1
    40    11    38    1
    41    18    39    1
    42    18    40    1
    43    20    41    1
    44    20    42    1
    45    21    43    1
    46    28    44    1
    47    28    45    1
    48    30    46    1
    49    31    47    1
