
     RDKit          3D

 47 49  0  0  0  0  0  0  0  0999 V2000
    8.3598   -0.9104    2.0426 C   0  0  0  0  0  0  0  0  0  0  0  0
    7.3023   -1.7539    1.6258 O   0  0  0  0  0  0  0  0  0  0  0  0
    6.1310   -1.2003    1.1245 C   0  0  0  0  0  0  0  0  0  0  0  0
    5.0948   -2.0133    0.7159 C   0  0  0  0  0  0  0  0  0  0  0  0
    3.9555   -1.4897    0.2286 N   0  0  0  0  0  0  0  0  0  0  0  0
    3.7605   -0.1647    0.1121 C   0  0  0  0  0  0  0  0  0  0  0  0
    2.5193    0.3972   -0.4184 C   0  0  0  0  0  0  0  0  0  0  0  0
    2.3352    1.6350   -0.5285 O   0  0  0  0  0  0  0  0  0  0  0  0
    1.4649   -0.4605   -0.8329 N   0  0  0  0  0  0  0  0  0  0  0  0
    0.2362    0.0402   -1.3567 C   0  0  0  0  0  0  0  0  0  0  0  0
    0.1692    0.2284   -2.7211 C   0  0  0  0  0  0  0  0  0  0  0  0
   -0.9601    0.7045   -3.3399 C   0  0  0  0  0  0  0  0  0  0  0  0
   -1.0331    0.8919   -4.6780 F   0  0  0  0  0  0  0  0  0  0  0  0
   -2.0669    1.0015   -2.5380 C   0  0  0  0  0  0  0  0  0  0  0  0
   -3.1820    1.4419   -3.2102 F   0  0  0  0  0  0  0  0  0  0  0  0
   -2.0040    0.8167   -1.1782 C   0  0  0  0  0  0  0  0  0  0  0  0
   -3.1693    1.1758   -0.3625 C   0  0  2  0  0  0  0  0  0  0  0  0
   -3.3969    2.6620   -0.4134 C   0  0  0  0  0  0  0  0  0  0  0  0
   -3.6398    3.1975   -1.6436 F   0  0  0  0  0  0  0  0  0  0  0  0
   -3.0181    0.8375    1.1106 C   0  0  0  0  0  0  0  0  0  0  0  0
   -3.2377   -0.6094    1.4338 C   0  0  1  0  0  0  0  0  0  0  0  0
   -4.2802   -0.7978    2.5442 C   0  0  0  0  0  0  0  0  0  0  0  0
   -3.8822   -0.1767    3.6916 F   0  0  0  0  0  0  0  0  0  0  0  0
   -4.3529   -2.1560    2.7714 F   0  0  0  0  0  0  0  0  0  0  0  0
   -5.5166   -0.3682    2.1433 F   0  0  0  0  0  0  0  0  0  0  0  0
   -3.6292   -1.3995    0.3227 O   0  0  0  0  0  0  0  0  0  0  0  0
   -4.5283   -0.8135   -0.5777 C   0  0  0  0  0  0  0  0  0  0  0  0
   -5.6212   -1.5537   -1.0948 N   0  0  0  0  0  0  0  0  0  0  0  0
   -4.2795    0.3993   -0.8759 N   0  0  0  0  0  0  0  0  0  0  0  0
   -0.8477    0.3317   -0.5710 C   0  0  0  0  0  0  0  0  0  0  0  0
    4.8002    0.6428    0.5224 C   0  0  0  0  0  0  0  0  0  0  0  0
    5.9434    0.1271    1.0110 N   0  0  0  0  0  0  0  0  0  0  0  0
    9.0453   -1.4096    2.7374 H   0  0  0  0  0  0  0  0  0  0  0  0
    7.9041   -0.0522    2.5961 H   0  0  0  0  0  0  0  0  0  0  0  0
    8.8777   -0.4549    1.1682 H   0  0  0  0  0  0  0  0  0  0  0  0
    5.2295   -3.0922    0.8007 H   0  0  0  0  0  0  0  0  0  0  0  0
    1.6418   -1.4970   -0.7313 H   0  0  0  0  0  0  0  0  0  0  0  0
    1.0182    0.0011   -3.3411 H   0  0  0  0  0  0  0  0  0  0  0  0
   -4.2452    2.8957    0.3047 H   0  0  0  0  0  0  0  0  0  0  0  0
   -2.4695    3.2009   -0.0448 H   0  0  0  0  0  0  0  0  0  0  0  0
   -3.8476    1.3885    1.6646 H   0  0  0  0  0  0  0  0  0  0  0  0
   -2.1100    1.1896    1.5806 H   0  0  0  0  0  0  0  0  0  0  0  0
   -2.2878   -1.0398    1.8437 H   0  0  0  0  0  0  0  0  0  0  0  0
   -6.5014   -1.1177   -1.4144 H   0  0  0  0  0  0  0  0  0  0  0  0
   -5.5304   -2.5855   -1.1547 H   0  0  0  0  0  0  0  0  0  0  0  0
   -0.7965    0.1865    0.5020 H   0  0  0  0  0  0  0  0  0  0  0  0
    4.6453    1.7231    0.4293 H   0  0  0  0  0  0  0  0  0  0  0  0
  1  2  1  0
  2  3  1  0
  3  4  2  0
  4  5  1  0
  5  6  2  0
  6  7  1  0
  7  8  2  0
  7  9  1  0
  9 10  1  0
 10 11  2  0
 11 12  1  0
 12 13  1  0
 12 14  2  0
 14 15  1  0
 14 16  1  0
 16 17  1  0
 17 18  1  1
 18 19  1  0
 17 20  1  0
 20 21  1  0
 21 22  1  0
 22 23  1  0
 22 24  1  0
 22 25  1  0
 21 26  1  0
 26 27  1  0
 27 28  1  0
 27 29  2  0
 16 30  2  0
  6 31  1  0
 31 32  2  0
 32  3  1  0
 30 10  1  0
 29 17  1  0
  1 33  1  0
  1 34  1  0
  1 35  1  0
  4 36  1  0
  9 37  1  0
 11 38  1  0
 18 39  1  0
 18 40  1  0
 20 41  1  0
 20 42  1  0
 21 43  1  1
 28 44  1  0
 28 45  1  0
 30 46  1  0
 31 47  1  0
M  END
$$$$
