@<TRIPOS>MOLECULE
*****
 58 61 0 0 0
SMALL
GASTEIGER

@<TRIPOS>ATOM
      1 C          -5.9740   -2.6755    2.2055 C.3     1  UNL1        0.0121
      2 C          -5.2909   -2.5988    0.8655 C.2     1  UNL1        0.2100
      3 O          -5.4804   -3.5002    0.0172 O.2     1  UNL1       -0.2761
      4 N          -4.4279   -1.5188    0.5353 N.am    1  UNL1       -0.3134
      5 C          -3.8085   -1.5039   -0.7557 C.3     1  UNL1        0.0341
      6 C          -2.9211   -0.3199   -0.9931 C.3     1  UNL1        0.0639
      7 N          -1.8291   -0.2410   -0.0427 N.am    1  UNL1       -0.3055
      8 C          -0.4687   -0.2966   -0.4152 C.2     1  UNL1        0.2336
      9 O          -0.1723   -0.4193   -1.6141 O.2     1  UNL1       -0.2738
     10 C           0.6562   -0.2132    0.5839 C.3     1  UNL1        0.0965
     11 N           0.1397   -0.0673    1.9334 N.3     1  UNL1       -0.3173
     12 C           1.5061    0.9481    0.1680 C.3     1  UNL1       -0.0104
     13 C           2.5899    0.5504   -0.8339 C.3     1  UNL1        0.0156
     14 N           3.4606   -0.3957   -0.1730 N.pl3   1  UNL1       -0.3144
     15 C           4.8058   -0.6469   -0.5401 C.ar    1  UNL1        0.1337
     16 N           5.2228   -1.8695   -0.9559 N.ar    1  UNL1       -0.2200
     17 C           6.4836   -2.1474   -1.3142 C.ar    1  UNL1        0.1204
     18 N           7.3936   -1.1599   -1.2605 N.ar    1  UNL1       -0.2178
     19 C           7.0601    0.0747   -0.8605 C.ar    1  UNL1        0.1432
     20 N           7.8109    1.1915   -0.7358 N.ar    1  UNL1       -0.3457
     21 C           7.0372    2.1932   -0.2965 C.ar    1  UNL1        0.0042
     22 C           5.7472    1.6775   -0.1407 C.ar    1  UNL1       -0.0318
     23 C           5.7604    0.3475   -0.4946 C.ar    1  UNL1        0.0585
     24 C           2.8881   -1.1228    0.9406 C.3     1  UNL1        0.0156
     25 C           1.4705   -1.4667    0.5314 C.3     1  UNL1       -0.0104
     26 C          -3.6515    0.9654   -0.9527 C.ar    1  UNL1       -0.0256
     27 C          -5.0272    1.0428   -0.9205 C.ar    1  UNL1       -0.0554
     28 C          -5.6520    2.2741   -0.8832 C.ar    1  UNL1       -0.0431
     29 C          -4.9236    3.4470   -0.8772 C.ar    1  UNL1        0.0410
     30 CL         -5.7959    4.9582   -0.8289 Cl      1  UNL1       -0.0835
     31 C          -3.5613    3.3802   -0.9088 C.ar    1  UNL1       -0.0431
     32 C          -2.9363    2.1407   -0.9464 C.ar    1  UNL1       -0.0554
     33 H          -5.9779   -1.6884    2.6897 H       1  UNL1        0.0322
     34 H          -6.9964   -3.0199    2.0044 H       1  UNL1        0.0322
     35 H          -5.4626   -3.3958    2.8522 H       1  UNL1        0.0322
     36 H          -4.2443   -0.7592    1.1986 H       1  UNL1        0.1487
     37 H          -3.1696   -2.4132   -0.8271 H       1  UNL1        0.0483
     38 H          -4.5308   -1.5530   -1.5929 H       1  UNL1        0.0483
     39 H          -2.5362   -0.4269   -2.0422 H       1  UNL1        0.0564
     40 H          -2.0507   -0.1377    0.9702 H       1  UNL1        0.1494
     41 H          -0.3107   -0.9444    2.2320 H       1  UNL1        0.1192
     42 H          -0.4367    0.7784    2.0644 H       1  UNL1        0.1192
     43 H           0.9105    1.7460   -0.3223 H       1  UNL1        0.0303
     44 H           2.0588    1.3408    1.0570 H       1  UNL1        0.0303
     45 H           2.1172    0.1075   -1.7341 H       1  UNL1        0.0465
     46 H           3.0780    1.4764   -1.1610 H       1  UNL1        0.0465
     47 H           6.8227   -3.1186   -1.6462 H       1  UNL1        0.1048
     48 H           8.8479    1.2239   -0.9621 H       1  UNL1        0.1668
     49 H           7.3660    3.2087   -0.1029 H       1  UNL1        0.0807
     50 H           4.8987    2.2204    0.1954 H       1  UNL1        0.0640
     51 H           2.8359   -0.4674    1.8409 H       1  UNL1        0.0465
     52 H           3.4067   -2.0765    1.1443 H       1  UNL1        0.0465
     53 H           1.0390   -2.2408    1.1989 H       1  UNL1        0.0303
     54 H           1.4539   -1.8353   -0.5309 H       1  UNL1        0.0303
     55 H          -5.6574    0.1626   -0.9232 H       1  UNL1        0.0621
     56 H          -6.7274    2.3142   -0.8582 H       1  UNL1        0.0632
     57 H          -2.9982    4.3020   -0.9040 H       1  UNL1        0.0632
     58 H          -1.8485    2.1684   -0.9702 H       1  UNL1        0.0621
@<TRIPOS>BOND
     1     1     2    1
     2     2     3    2
     3     2     4   am
     4     4     5    1
     5     5     6    1
     6     6     7    1
     7     7     8   am
     8     8     9    2
     9     8    10    1
    10    10    11    1
    11    10    12    1
    12    12    13    1
    13    13    14    1
    14    14    15    1
    15    15    16   ar
    16    16    17   ar
    17    17    18   ar
    18    18    19   ar
    19    19    20   ar
    20    20    21   ar
    21    21    22   ar
    22    22    23   ar
    23    14    24    1
    24    24    25    1
    25     6    26    1
    26    26    27   ar
    27    27    28   ar
    28    28    29   ar
    29    29    30    1
    30    29    31   ar
    31    31    32   ar
    32    25    10    1
    33    32    26   ar
    34    23    15   ar
    35    23    19   ar
    36     1    33    1
    37     1    34    1
    38     1    35    1
    39     4    36    1
    40     5    37    1
    41     5    38    1
    42     6    39    1
    43     7    40    1
    44    11    41    1
    45    11    42    1
    46    12    43    1
    47    12    44    1
    48    13    45    1
    49    13    46    1
    50    17    47    1
    51    20    48    1
    52    21    49    1
    53    22    50    1
    54    24    51    1
    55    24    52    1
    56    25    53    1
    57    25    54    1
    58    27    55    1
    59    28    56    1
    60    31    57    1
    61    32    58    1
