
     RDKit          3D

 47 50  0  0  0  0  0  0  0  0999 V2000
    7.3523   -0.4714    0.6345 C   0  0  0  0  0  0  0  0  0  0  0  0
    7.6974   -0.6319   -0.6833 C   0  0  0  0  0  0  0  0  0  0  0  0
    7.9857   -0.7566   -1.7849 C   0  0  0  0  0  0  0  0  0  0  0  0
    7.1501   -2.2033   -1.9499 O   0  0  0  0  0  0  0  0  0  0  0  0
    5.8531   -1.9591   -1.5685 C   0  0  0  0  0  0  0  0  0  0  0  0
    4.8411   -2.7600   -1.2559 C   0  0  0  0  0  0  0  0  0  0  0  0
    3.5550   -2.5838   -0.9032 N   0  0  0  0  0  0  0  0  0  0  0  0
    3.1781   -1.1781   -0.8515 C   0  0  0  0  0  0  0  0  0  0  0  0
    2.0209   -0.6150   -0.3883 C   0  0  0  0  0  0  0  0  0  0  0  0
    1.5300    0.3390   -1.1612 O   0  0  0  0  0  0  0  0  0  0  0  0
    1.2154   -0.8276    0.7938 N   0  0  0  0  0  0  0  0  0  0  0  0
    0.0866    0.1231    0.9098 C   0  0  0  0  0  0  0  0  0  0  0  0
    0.4210    1.4956    0.7777 C   0  0  0  0  0  0  0  0  0  0  0  0
   -0.5060    2.5110    0.6156 C   0  0  0  0  0  0  0  0  0  0  0  0
   -1.8824    2.1366    0.5847 C   0  0  0  0  0  0  0  0  0  0  0  0
   -2.8760    3.0045    0.3701 F   0  0  0  0  0  0  0  0  0  0  0  0
   -2.1592    0.7901    0.7257 C   0  0  0  0  0  0  0  0  0  0  0  0
   -3.6694    0.5323    0.5860 C   0  0  1  0  0  0  0  0  0  0  0  0
   -3.9803   -0.8370    1.0700 C   0  0  0  0  0  0  0  0  0  0  0  0
   -5.3648   -1.1163    1.0016 F   0  0  0  0  0  0  0  0  0  0  0  0
   -3.8338   -0.7358    2.5122 F   0  0  0  0  0  0  0  0  0  0  0  0
   -4.1514    1.4306    1.6669 N   0  0  0  0  0  0  0  0  0  0  0  0
   -5.3457    1.9824    1.5707 C   0  0  0  0  0  0  0  0  0  0  0  0
   -5.8104    2.8496    2.5974 N   0  0  0  0  0  0  0  0  0  0  0  0
   -6.0701    1.6446    0.3946 O   0  0  0  0  0  0  0  0  0  0  0  0
   -5.3457    1.5909   -0.8515 C   0  0  2  0  0  0  0  0  0  0  0  0
   -5.2025    0.2293   -1.4548 C   0  0  0  0  0  0  0  0  0  0  0  0
   -4.0723    0.8976   -0.7788 C   0  0  2  0  0  0  0  0  0  0  0  0
   -1.1744   -0.2015    0.8862 C   0  0  0  0  0  0  0  0  0  0  0  0
    4.2397   -0.4740   -1.1811 C   0  0  0  0  0  0  0  0  0  0  0  0
    5.4501   -0.4578   -1.5147 N   0  0  0  0  0  0  0  0  0  0  0  0
    7.0582   -0.3426    1.7626 H   0  0  0  0  0  0  0  0  0  0  0  0
    8.9288   -1.2584   -2.2568 H   0  0  0  0  0  0  0  0  0  0  0  0
    7.5169   -0.2791   -2.7047 H   0  0  0  0  0  0  0  0  0  0  0  0
    5.1727   -3.8774   -1.1617 H   0  0  0  0  0  0  0  0  0  0  0  0
    1.4543   -1.5269    1.4853 H   0  0  0  0  0  0  0  0  0  0  0  0
    1.4872    1.7354    0.8216 H   0  0  0  0  0  0  0  0  0  0  0  0
   -0.2715    3.5236    0.5237 H   0  0  0  0  0  0  0  0  0  0  0  0
   -3.4018   -1.6665    0.6837 H   0  0  0  0  0  0  0  0  0  0  0  0
   -5.3001    2.6423    3.5402 H   0  0  0  0  0  0  0  0  0  0  0  0
   -6.4694    3.6084    2.5981 H   0  0  0  0  0  0  0  0  0  0  0  0
   -5.5691    2.4561   -1.4868 H   0  0  0  0  0  0  0  0  0  0  0  0
   -5.5740   -0.7129   -1.0420 H   0  0  0  0  0  0  0  0  0  0  0  0
   -5.2691    0.3070   -2.5725 H   0  0  0  0  0  0  0  0  0  0  0  0
   -3.2492    1.5128   -1.3370 H   0  0  0  0  0  0  0  0  0  0  0  0
   -1.5163   -1.2369    1.0561 H   0  0  0  0  0  0  0  0  0  0  0  0
    3.8703    0.7343   -1.2797 H   0  0  0  0  0  0  0  0  0  0  0  0
  1  2  3  0
  2  3  1  0
  3  4  1  0
  4  5  1  0
  5  6  2  0
  6  7  1  0
  7  8  2  0
  8  9  1  0
  9 10  2  0
  9 11  1  0
 11 12  1  0
 12 13  2  0
 13 14  1  0
 14 15  2  0
 15 16  1  0
 15 17  1  0
 17 18  1  0
 18 19  1  1
 19 20  1  0
 19 21  1  0
 18 22  1  0
 22 23  2  0
 23 24  1  0
 23 25  1  0
 25 26  1  0
 26 27  1  0
 27 28  1  0
 17 29  2  0
  8 30  1  0
 30 31  2  0
 31  5  1  0
 29 12  1  0
 28 18  1  0
 28 26  1  0
  1 32  1  0
  3 33  1  0
  3 34  1  0
  6 35  1  0
 11 36  1  0
 13 37  1  0
 14 38  1  0
 19 39  1  0
 24 40  1  0
 24 41  1  0
 26 42  1  6
 27 43  1  0
 27 44  1  0
 28 45  1  6
 29 46  1  0
 30 47  1  0
M  END
$$$$
