@<TRIPOS>MOLECULE
*****
 47 50 0 0 0
SMALL
GASTEIGER

@<TRIPOS>ATOM
      1 C           7.3523   -0.4714    0.6345 C.1     1  UNL1       -0.1158
      2 C           7.6974   -0.6319   -0.6833 C.1     1  UNL1       -0.0647
      3 C           7.9857   -0.7566   -1.7849 C.3     1  UNL1        0.1513
      4 O           7.1501   -2.2033   -1.9499 O.3     1  UNL1       -0.4624
      5 C           5.8531   -1.9591   -1.5685 C.ar    1  UNL1        0.2344
      6 C           4.8411   -2.7600   -1.2559 C.ar    1  UNL1        0.0899
      7 N           3.5550   -2.5838   -0.9032 N.ar    1  UNL1       -0.2435
      8 C           3.1781   -1.1781   -0.8515 C.ar    1  UNL1        0.1439
      9 C           2.0209   -0.6150   -0.3883 C.2     1  UNL1        0.2681
     10 O           1.5300    0.3390   -1.1612 O.2     1  UNL1       -0.2681
     11 N           1.2154   -0.8276    0.7938 N.am    1  UNL1       -0.2802
     12 C           0.0866    0.1231    0.9098 C.ar    1  UNL1        0.0342
     13 C           0.4210    1.4956    0.7777 C.ar    1  UNL1       -0.0377
     14 C          -0.5060    2.5110    0.6156 C.ar    1  UNL1       -0.0243
     15 C          -1.8824    2.1366    0.5847 C.ar    1  UNL1        0.1292
     16 F          -2.8760    3.0045    0.3701 F       1  UNL1       -0.2051
     17 C          -2.1592    0.7901    0.7257 C.ar    1  UNL1        0.0228
     18 C          -3.6694    0.5323    0.5860 C.3     1  UNL1        0.1603
     19 C          -3.9803   -0.8370    1.0700 C.3     1  UNL1        0.2686
     20 F          -5.3648   -1.1163    1.0016 F       1  UNL1       -0.2062
     21 F          -3.8338   -0.7358    2.5122 F       1  UNL1       -0.2062
     22 N          -4.1514    1.4306    1.6669 N.2     1  UNL1       -0.2194
     23 C          -5.3457    1.9824    1.5707 C.2     1  UNL1        0.2764
     24 N          -5.8104    2.8496    2.5974 N.pl3   1  UNL1       -0.3134
     25 O          -6.0701    1.6446    0.3946 O.2     1  UNL1       -0.4622
     26 C          -5.3457    1.5909   -0.8515 C.3     1  UNL1        0.1091
     27 C          -5.2025    0.2293   -1.4548 C.3     1  UNL1       -0.0064
     28 C          -4.0723    0.8976   -0.7788 C.3     1  UNL1        0.0344
     29 C          -1.1744   -0.2015    0.8862 C.ar    1  UNL1       -0.0321
     30 C           4.2397   -0.4740   -1.1811 C.ar    1  UNL1        0.0619
     31 N           5.4501   -0.4578   -1.5147 N.ar    1  UNL1       -0.2177
     32 H           7.0582   -0.3426    1.7626 H       1  UNL1        0.1229
     33 H           8.9288   -1.2584   -2.2568 H       1  UNL1        0.0837
     34 H           7.5169   -0.2791   -2.7047 H       1  UNL1        0.0837
     35 H           5.1727   -3.8774   -1.1617 H       1  UNL1        0.0884
     36 H           1.4543   -1.5269    1.4853 H       1  UNL1        0.1552
     37 H           1.4872    1.7354    0.8216 H       1  UNL1        0.0637
     38 H          -0.2715    3.5236    0.5237 H       1  UNL1        0.0647
     39 H          -3.4018   -1.6665    0.6837 H       1  UNL1        0.1047
     40 H          -5.3001    2.6423    3.5402 H       1  UNL1        0.1466
     41 H          -6.4694    3.6084    2.5981 H       1  UNL1        0.1466
     42 H          -5.5691    2.4561   -1.4868 H       1  UNL1        0.0737
     43 H          -5.5740   -0.7129   -1.0420 H       1  UNL1        0.0306
     44 H          -5.2691    0.3070   -2.5725 H       1  UNL1        0.0306
     45 H          -3.2492    1.5128   -1.3370 H       1  UNL1        0.0366
     46 H          -1.5163   -1.2369    1.0561 H       1  UNL1        0.0640
     47 H           3.8703    0.7343   -1.2797 H       1  UNL1        0.0854
@<TRIPOS>BOND
     1     1     2    3
     2     2     3    1
     3     3     4    1
     4     4     5    1
     5     5     6   ar
     6     6     7   ar
     7     7     8   ar
     8     8     9    1
     9     9    10    2
    10     9    11   am
    11    11    12    1
    12    12    13   ar
    13    13    14   ar
    14    14    15   ar
    15    15    16    1
    16    15    17   ar
    17    17    18    1
    18    18    19    1
    19    19    20    1
    20    19    21    1
    21    18    22    1
    22    22    23    2
    23    23    24    1
    24    23    25    1
    25    25    26    1
    26    26    27    1
    27    27    28    1
    28    17    29   ar
    29     8    30   ar
    30    30    31   ar
    31    31     5   ar
    32    29    12   ar
    33    28    18    1
    34    28    26    1
    35     1    32    1
    36     3    33    1
    37     3    34    1
    38     6    35    1
    39    11    36    1
    40    13    37    1
    41    14    38    1
    42    19    39    1
    43    24    40    1
    44    24    41    1
    45    26    42    1
    46    27    43    1
    47    27    44    1
    48    28    45    1
    49    29    46    1
    50    30    47    1
