
     RDKit          3D

 58 61  0  0  0  0  0  0  0  0999 V2000
   -0.7477    0.5259    0.8395 C   0  0  2  0  0  0  0  0  0  0  0  0
   -1.5887    0.6228    2.0361 C   0  0  0  0  0  0  0  0  0  0  0  0
   -2.9282    1.0383    1.4428 C   0  0  0  0  0  0  0  0  0  0  0  0
   -2.8932    0.6113   -0.0222 C   0  0  1  0  0  0  0  0  0  0  0  0
   -3.9627   -0.2985   -0.3228 O   0  0  0  0  0  0  0  0  0  0  0  0
   -5.2779    0.0287   -0.1721 C   0  0  0  0  0  0  0  0  0  0  0  0
   -6.4079   -0.8865   -0.4731 C   0  0  0  0  0  0  0  0  0  0  0  0
   -5.6217    1.1799    0.2508 O   0  0  0  0  0  0  0  0  0  0  0  0
   -3.0261    1.7603   -0.9257 C   0  0  0  0  0  0  0  0  0  0  0  0
   -3.1504    2.6965   -1.6756 C   0  0  0  0  0  0  0  0  0  0  0  0
   -1.5716   -0.0103   -0.2712 C   0  0  2  0  0  0  0  0  0  0  0  0
   -1.6809   -1.4918   -0.3865 C   0  0  0  0  0  0  0  0  0  0  0  0
   -2.2674   -2.2076    0.7763 C   0  0  0  0  0  0  0  0  0  0  0  0
   -0.8981    0.4743   -1.5529 C   0  0  0  0  0  0  0  0  0  0  0  0
    0.5044   -0.0235   -1.6082 C   0  0  0  0  0  0  0  0  0  0  0  0
    1.2871    0.1958   -0.3527 C   0  0  2  0  0  0  0  0  0  0  0  0
    2.6365   -0.4324   -0.4541 C   0  0  1  0  0  0  0  0  0  0  0  0
    3.3831    0.2947   -1.5607 C   0  0  0  0  0  0  0  0  0  0  0  0
    4.8465   -0.0682   -1.5915 C   0  0  0  0  0  0  0  0  0  0  0  0
    5.4334    0.2390   -0.2612 C   0  0  0  0  0  0  0  0  0  0  0  0
    4.6803   -0.1635    0.9284 C   0  0  0  0  0  0  0  0  0  0  0  0
    3.3807   -0.4705    0.8110 C   0  0  0  0  0  0  0  0  0  0  0  0
    2.5846   -0.8832    1.9974 C   0  0  0  0  0  0  0  0  0  0  0  0
    1.4235    0.1182    2.0633 C   0  0  0  0  0  0  0  0  0  0  0  0
    0.5340   -0.2159    0.9067 C   0  0  1  0  0  0  0  0  0  0  0  0
    6.5446    0.8271   -0.0167 N   0  0  0  0  0  0  0  0  0  0  0  0
    7.3027    1.2319   -1.1127 O   0  0  0  0  0  0  0  0  0  0  0  0
   -0.4735    1.5856    0.5554 H   0  0  0  0  0  0  0  0  0  0  0  0
   -1.6480   -0.2463    2.7037 H   0  0  0  0  0  0  0  0  0  0  0  0
   -1.2078    1.4611    2.6846 H   0  0  0  0  0  0  0  0  0  0  0  0
   -2.9623    2.1649    1.4466 H   0  0  0  0  0  0  0  0  0  0  0  0
   -3.7929    0.6097    1.9912 H   0  0  0  0  0  0  0  0  0  0  0  0
   -6.8387   -1.1908    0.5185 H   0  0  0  0  0  0  0  0  0  0  0  0
   -7.2442   -0.3814   -1.0114 H   0  0  0  0  0  0  0  0  0  0  0  0
   -6.0986   -1.8081   -0.9925 H   0  0  0  0  0  0  0  0  0  0  0  0
   -3.2789    3.5289   -2.3410 H   0  0  0  0  0  0  0  0  0  0  0  0
   -2.3514   -1.6654   -1.2703 H   0  0  0  0  0  0  0  0  0  0  0  0
   -0.7281   -1.9805   -0.6504 H   0  0  0  0  0  0  0  0  0  0  0  0
   -1.4868   -2.6310    1.4729 H   0  0  0  0  0  0  0  0  0  0  0  0
   -3.0401   -1.6528    1.3443 H   0  0  0  0  0  0  0  0  0  0  0  0
   -2.7806   -3.1289    0.3935 H   0  0  0  0  0  0  0  0  0  0  0  0
   -1.4631   -0.0031   -2.3922 H   0  0  0  0  0  0  0  0  0  0  0  0
   -0.9463    1.5642   -1.6608 H   0  0  0  0  0  0  0  0  0  0  0  0
    1.0242    0.5796   -2.4018 H   0  0  0  0  0  0  0  0  0  0  0  0
    0.5532   -1.0688   -1.9784 H   0  0  0  0  0  0  0  0  0  0  0  0
    1.4542    1.2978   -0.2529 H   0  0  0  0  0  0  0  0  0  0  0  0
    2.4974   -1.4871   -0.8277 H   0  0  0  0  0  0  0  0  0  0  0  0
    3.2887    1.3830   -1.4839 H   0  0  0  0  0  0  0  0  0  0  0  0
    2.9553   -0.0695   -2.5380 H   0  0  0  0  0  0  0  0  0  0  0  0
    5.3193    0.6222   -2.3131 H   0  0  0  0  0  0  0  0  0  0  0  0
    5.0119   -1.1304   -1.8024 H   0  0  0  0  0  0  0  0  0  0  0  0
    5.1499   -0.2191    1.9033 H   0  0  0  0  0  0  0  0  0  0  0  0
    2.1887   -1.9022    1.7752 H   0  0  0  0  0  0  0  0  0  0  0  0
    3.1621   -0.8647    2.9259 H   0  0  0  0  0  0  0  0  0  0  0  0
    1.8825    1.1182    1.8828 H   0  0  0  0  0  0  0  0  0  0  0  0
    0.9384    0.1336    3.0470 H   0  0  0  0  0  0  0  0  0  0  0  0
    0.4562   -1.3188    0.8736 H   0  0  0  0  0  0  0  0  0  0  0  0
    7.9404    2.0071   -0.8942 H   0  0  0  0  0  0  0  0  0  0  0  0
  1  2  1  0
  2  3  1  0
  3  4  1  0
  4  5  1  0
  5  6  1  0
  6  7  1  0
  6  8  2  0
  4  9  1  6
  9 10  3  0
  4 11  1  0
 11 12  1  6
 12 13  1  0
 11 14  1  0
 14 15  1  0
 15 16  1  0
 16 17  1  0
 17 18  1  0
 18 19  1  0
 19 20  1  0
 20 21  1  0
 21 22  2  0
 22 23  1  0
 23 24  1  0
 24 25  1  0
 20 26  2  0
 26 27  1  0
 11  1  1  0
 25 16  1  0
 25  1  1  0
 22 17  1  0
  1 28  1  6
  2 29  1  0
  2 30  1  0
  3 31  1  0
  3 32  1  0
  7 33  1  0
  7 34  1  0
  7 35  1  0
 10 36  1  0
 12 37  1  0
 12 38  1  0
 13 39  1  0
 13 40  1  0
 13 41  1  0
 14 42  1  0
 14 43  1  0
 15 44  1  0
 15 45  1  0
 16 46  1  1
 17 47  1  6
 18 48  1  0
 18 49  1  0
 19 50  1  0
 19 51  1  0
 21 52  1  0
 23 53  1  0
 23 54  1  0
 24 55  1  0
 24 56  1  0
 25 57  1  6
 27 58  1  0
M  END
$$$$
