@<TRIPOS>MOLECULE
*****
 58 61 0 0 0
SMALL
GASTEIGER

@<TRIPOS>ATOM
      1 C          -0.7477    0.5259    0.8395 C.3     1  UNL1       -0.0275
      2 C          -1.5887    0.6228    2.0361 C.3     1  UNL1       -0.0447
      3 C          -2.9282    1.0383    1.4428 C.3     1  UNL1       -0.0005
      4 C          -2.8932    0.6113   -0.0222 C.3     1  UNL1        0.1787
      5 O          -3.9627   -0.2985   -0.3228 O.3     1  UNL1       -0.4447
      6 C          -5.2779    0.0287   -0.1721 C.2     1  UNL1        0.3054
      7 C          -6.4079   -0.8865   -0.4731 C.3     1  UNL1        0.0333
      8 O          -5.6217    1.1799    0.2508 O.2     1  UNL1       -0.2511
      9 C          -3.0261    1.7603   -0.9257 C.1     1  UNL1       -0.0576
     10 C          -3.1504    2.6965   -1.6756 C.1     1  UNL1       -0.1152
     11 C          -1.5716   -0.0103   -0.2712 C.3     1  UNL1        0.0249
     12 C          -1.6809   -1.4918   -0.3865 C.3     1  UNL1       -0.0454
     13 C          -2.2674   -2.2076    0.7763 C.3     1  UNL1       -0.0646
     14 C          -0.8981    0.4743   -1.5529 C.3     1  UNL1       -0.0423
     15 C           0.5044   -0.0235   -1.6082 C.3     1  UNL1       -0.0487
     16 C           1.2871    0.1958   -0.3527 C.3     1  UNL1       -0.0314
     17 C           2.6365   -0.4324   -0.4541 C.3     1  UNL1       -0.0161
     18 C           3.3831    0.2947   -1.5607 C.3     1  UNL1       -0.0407
     19 C           4.8465   -0.0682   -1.5915 C.3     1  UNL1       -0.0067
     20 C           5.4334    0.2390   -0.2612 C.2     1  UNL1        0.0799
     21 C           4.6803   -0.1635    0.9284 C.2     1  UNL1       -0.0378
     22 C           3.3807   -0.4705    0.8110 C.2     1  UNL1       -0.0644
     23 C           2.5846   -0.8832    1.9974 C.3     1  UNL1       -0.0309
     24 C           1.4235    0.1182    2.0633 C.3     1  UNL1       -0.0460
     25 C           0.5340   -0.2159    0.9067 C.3     1  UNL1       -0.0339
     26 N           6.5446    0.8271   -0.0167 N.2     1  UNL1       -0.0921
     27 O           7.3027    1.2319   -1.1127 O.2     1  UNL1       -0.4090
     28 H          -0.4735    1.5856    0.5554 H       1  UNL1        0.0310
     29 H          -1.6480   -0.2463    2.7037 H       1  UNL1        0.0270
     30 H          -1.2078    1.4611    2.6846 H       1  UNL1        0.0270
     31 H          -2.9623    2.1649    1.4466 H       1  UNL1        0.0314
     32 H          -3.7929    0.6097    1.9912 H       1  UNL1        0.0314
     33 H          -6.8387   -1.1908    0.5185 H       1  UNL1        0.0342
     34 H          -7.2442   -0.3814   -1.0114 H       1  UNL1        0.0342
     35 H          -6.0986   -1.8081   -0.9925 H       1  UNL1        0.0342
     36 H          -3.2789    3.5289   -2.3410 H       1  UNL1        0.1229
     37 H          -2.3514   -1.6654   -1.2703 H       1  UNL1        0.0270
     38 H          -0.7281   -1.9805   -0.6504 H       1  UNL1        0.0270
     39 H          -1.4868   -2.6310    1.4729 H       1  UNL1        0.0230
     40 H          -3.0401   -1.6528    1.3443 H       1  UNL1        0.0230
     41 H          -2.7806   -3.1289    0.3935 H       1  UNL1        0.0230
     42 H          -1.4631   -0.0031   -2.3922 H       1  UNL1        0.0272
     43 H          -0.9463    1.5642   -1.6608 H       1  UNL1        0.0272
     44 H           1.0242    0.5796   -2.4018 H       1  UNL1        0.0268
     45 H           0.5532   -1.0688   -1.9784 H       1  UNL1        0.0268
     46 H           1.4542    1.2978   -0.2529 H       1  UNL1        0.0309
     47 H           2.4974   -1.4871   -0.8277 H       1  UNL1        0.0349
     48 H           3.2887    1.3830   -1.4839 H       1  UNL1        0.0275
     49 H           2.9553   -0.0695   -2.5380 H       1  UNL1        0.0275
     50 H           5.3193    0.6222   -2.3131 H       1  UNL1        0.0329
     51 H           5.0119   -1.1304   -1.8024 H       1  UNL1        0.0329
     52 H           5.1499   -0.2191    1.9033 H       1  UNL1        0.0636
     53 H           2.1887   -1.9022    1.7752 H       1  UNL1        0.0310
     54 H           3.1621   -0.8647    2.9259 H       1  UNL1        0.0310
     55 H           1.8825    1.1182    1.8828 H       1  UNL1        0.0271
     56 H           0.9384    0.1336    3.0470 H       1  UNL1        0.0271
     57 H           0.4562   -1.3188    0.8736 H       1  UNL1        0.0307
     58 H           7.9404    2.0071   -0.8942 H       1  UNL1        0.3278
@<TRIPOS>BOND
     1     1     2    1
     2     2     3    1
     3     3     4    1
     4     4     5    1
     5     5     6    1
     6     6     7    1
     7     6     8    2
     8     4     9    1
     9     9    10    3
    10     4    11    1
    11    11    12    1
    12    12    13    1
    13    11    14    1
    14    14    15    1
    15    15    16    1
    16    16    17    1
    17    17    18    1
    18    18    19    1
    19    19    20    1
    20    20    21    1
    21    21    22    2
    22    22    23    1
    23    23    24    1
    24    24    25    1
    25    20    26    2
    26    26    27    1
    27    11     1    1
    28    25    16    1
    29    25     1    1
    30    22    17    1
    31     1    28    1
    32     2    29    1
    33     2    30    1
    34     3    31    1
    35     3    32    1
    36     7    33    1
    37     7    34    1
    38     7    35    1
    39    10    36    1
    40    12    37    1
    41    12    38    1
    42    13    39    1
    43    13    40    1
    44    13    41    1
    45    14    42    1
    46    14    43    1
    47    15    44    1
    48    15    45    1
    49    16    46    1
    50    17    47    1
    51    18    48    1
    52    18    49    1
    53    19    50    1
    54    19    51    1
    55    21    52    1
    56    23    53    1
    57    23    54    1
    58    24    55    1
    59    24    56    1
    60    25    57    1
    61    27    58    1
