@<TRIPOS>MOLECULE
*****
 28 27 0 0 0
SMALL
GASTEIGER

@<TRIPOS>ATOM
      1 C          -1.8406    0.3127   -0.5274 C.3     1  UNL1        0.0030
      2 S          -1.9445   -0.9346   -1.8164 S.3     1  UNL1       -0.1748
      3 C          -2.2949   -0.1878    0.8092 C.3     1  UNL1       -0.0326
      4 C          -3.7431   -0.6450    0.7555 C.3     1  UNL1       -0.0083
      5 S          -4.8374    0.7010    0.2722 S.3     1  UNL1       -0.1782
      6 C          -0.4333    0.8109   -0.4226 C.3     1  UNL1       -0.0413
      7 C           0.5441   -0.2901   -0.0847 C.3     1  UNL1       -0.0516
      8 C           1.9226    0.3289   -0.0070 C.3     1  UNL1       -0.0430
      9 C           2.9790   -0.6909    0.3280 C.3     1  UNL1        0.0448
     10 C           4.2943   -0.0048    0.3840 C.2     1  UNL1        0.3047
     11 O           5.3335    0.5502    1.1086 O.3     1  UNL1       -0.4806
     12 O           4.9011    0.2902   -0.7027 O.2     1  UNL1       -0.2510
     13 H          -2.4963    1.1797   -0.8298 H       1  UNL1        0.0410
     14 H          -2.0365   -2.2083   -1.2240 H       1  UNL1        0.1019
     15 H          -1.7036   -1.0812    1.1115 H       1  UNL1        0.0284
     16 H          -2.1866    0.6182    1.5611 H       1  UNL1        0.0284
     17 H          -3.8321   -1.4708    0.0284 H       1  UNL1        0.0374
     18 H          -4.0160   -0.9931    1.7726 H       1  UNL1        0.0374
     19 H          -4.2713    1.9710    0.5629 H       1  UNL1        0.1016
     20 H          -0.1071    1.2588   -1.3855 H       1  UNL1        0.0276
     21 H          -0.3232    1.5780    0.3703 H       1  UNL1        0.0276
     22 H           0.5432   -0.9839   -0.9591 H       1  UNL1        0.0266
     23 H           0.2924   -0.8681    0.8080 H       1  UNL1        0.0266
     24 H           1.9840    1.1315    0.7414 H       1  UNL1        0.0270
     25 H           2.1918    0.7496   -1.0013 H       1  UNL1        0.0270
     26 H           2.7844   -1.1688    1.3238 H       1  UNL1        0.0377
     27 H           3.0608   -1.4706   -0.4490 H       1  UNL1        0.0377
     28 H           5.2353    1.5176    1.4495 H       1  UNL1        0.2951
@<TRIPOS>BOND
     1     1     2    1
     2     1     3    1
     3     3     4    1
     4     4     5    1
     5     1     6    1
     6     6     7    1
     7     7     8    1
     8     8     9    1
     9     9    10    1
    10    10    11    1
    11    10    12    2
    12     1    13    1
    13     2    14    1
    14     3    15    1
    15     3    16    1
    16     4    17    1
    17     4    18    1
    18     5    19    1
    19     6    20    1
    20     6    21    1
    21     7    22    1
    22     7    23    1
    23     8    24    1
    24     8    25    1
    25     9    26    1
    26     9    27    1
    27    11    28    1
