@<TRIPOS>MOLECULE
*****
 42 44 0 0 0
SMALL
GASTEIGER

@<TRIPOS>ATOM
      1 C          -2.5182    2.6938   -0.5357 C.3     1  UNL1       -0.0388
      2 C          -2.3034    1.2425   -0.3091 C.2     1  UNL1       -0.0384
      3 C          -3.1885    0.2687   -0.2085 C.2     1  UNL1       -0.0255
      4 C          -4.6558    0.4771   -0.3128 C.3     1  UNL1        0.0707
      5 C          -5.2530    0.0242    0.9853 C.2     1  UNL1        0.3091
      6 O          -6.1362   -0.2800    1.9919 O.3     1  UNL1       -0.4804
      7 O          -4.6357   -0.4471    1.9902 O.2     1  UNL1       -0.2507
      8 C          -2.5311   -1.0060    0.0127 C.ar    1  UNL1       -0.0106
      9 C          -3.0369   -2.2601    0.1580 C.ar    1  UNL1       -0.0184
     10 C          -2.1771   -3.3203    0.3399 C.ar    1  UNL1        0.1240
     11 F          -2.7536   -4.5345    0.4770 F       1  UNL1       -0.2055
     12 C          -0.7929   -3.1028    0.3735 C.ar    1  UNL1       -0.0258
     13 C          -0.3431   -1.8123    0.2213 C.ar    1  UNL1       -0.0507
     14 C          -1.1770   -0.7732    0.0454 C.ar    1  UNL1       -0.0100
     15 C          -0.9952    0.6300   -0.1518 C.2     1  UNL1       -0.0136
     16 C           0.1911    1.1738   -0.2099 C.2     1  UNL1       -0.0466
     17 C           1.5306    0.6609   -0.0605 C.ar    1  UNL1       -0.0244
     18 C           2.2944    0.8860   -1.2210 C.ar    1  UNL1       -0.0535
     19 C           3.6356    0.5587   -1.3392 C.ar    1  UNL1       -0.0454
     20 C           4.2599   -0.0137   -0.2785 C.ar    1  UNL1        0.0386
     21 C           3.5845   -0.2643    0.8849 C.ar    1  UNL1       -0.0454
     22 C           2.2608    0.0675    0.9783 C.ar    1  UNL1       -0.0535
     23 S           5.9654   -0.4716   -0.3181 S.O     1  UNL1        0.0507
     24 C           7.0357    0.8515    0.2375 C.3     1  UNL1        0.0163
     25 O           6.4130   -0.8693   -1.7156 O.2     1  UNL1       -0.2524
     26 H          -1.6590    3.1139   -1.1327 H       1  UNL1        0.0278
     27 H          -2.5058    3.2513    0.4219 H       1  UNL1        0.0278
     28 H          -3.4284    2.8868   -1.1476 H       1  UNL1        0.0278
     29 H          -4.9085    1.5353   -0.5045 H       1  UNL1        0.0427
     30 H          -5.0409   -0.1932   -1.1043 H       1  UNL1        0.0427
     31 H          -7.0030    0.2372    2.1753 H       1  UNL1        0.2951
     32 H          -4.1072   -2.3955    0.1268 H       1  UNL1        0.0652
     33 H          -0.2548   -4.0416    0.5235 H       1  UNL1        0.0646
     34 H           0.7003   -1.8571    0.2524 H       1  UNL1        0.0625
     35 H           0.1646    2.2609   -0.4115 H       1  UNL1        0.0630
     36 H           1.9063    1.3421   -2.1469 H       1  UNL1        0.0624
     37 H           4.2168    0.7333   -2.2315 H       1  UNL1        0.0629
     38 H           3.9610   -0.7119    1.7966 H       1  UNL1        0.0629
     39 H           1.5793   -0.0599    1.8191 H       1  UNL1        0.0624
     40 H           7.0898    0.9205    1.3488 H       1  UNL1        0.0368
     41 H           6.5697    1.8062   -0.0813 H       1  UNL1        0.0368
     42 H           8.0465    0.7924   -0.1915 H       1  UNL1        0.0368
@<TRIPOS>BOND
     1     1     2    1
     2     2     3    2
     3     3     4    1
     4     4     5    1
     5     5     6    1
     6     5     7    2
     7     3     8    1
     8     8     9   ar
     9     9    10   ar
    10    10    11    1
    11    10    12   ar
    12    12    13   ar
    13    13    14   ar
    14    14    15    1
    15    15    16    2
    16    16    17    1
    17    17    18   ar
    18    18    19   ar
    19    19    20   ar
    20    20    21   ar
    21    21    22   ar
    22    20    23    1
    23    23    24    1
    24    23    25    2
    25    15     2    1
    26    22    17   ar
    27    14     8   ar
    28     1    26    1
    29     1    27    1
    30     1    28    1
    31     4    29    1
    32     4    30    1
    33     6    31    1
    34     9    32    1
    35    12    33    1
    36    13    34    1
    37    16    35    1
    38    18    36    1
    39    19    37    1
    40    21    38    1
    41    22    39    1
    42    24    40    1
    43    24    41    1
    44    24    42    1
