@<TRIPOS>MOLECULE
*****
 46 49 0 0 0
SMALL
GASTEIGER

@<TRIPOS>ATOM
      1 N          -5.8705   -1.2082   -2.5463 N.pl3   1  UNL1       -0.3134
      2 C          -5.1591   -0.3641   -1.6247 C.2     1  UNL1        0.2764
      3 N          -3.9869   -0.6499   -1.2047 N.2     1  UNL1       -0.2194
      4 C          -3.2725    0.2236   -0.2624 C.3     1  UNL1        0.1603
      5 C          -2.2958   -0.6665    0.4038 C.ar    1  UNL1        0.0228
      6 C          -0.9356   -0.4556    0.3254 C.ar    1  UNL1       -0.0321
      7 C          -0.0092   -1.2780    0.9335 C.ar    1  UNL1        0.0342
      8 N           1.3910   -1.0706    0.8604 N.am    1  UNL1       -0.2802
      9 C           2.0723   -0.0451    0.1951 C.2     1  UNL1        0.2666
     10 O           1.4436    0.8326   -0.4330 O.2     1  UNL1       -0.2682
     11 C           3.5300    0.0021    0.2337 C.ar    1  UNL1        0.1259
     12 C           4.2501    0.9824   -0.3988 C.ar    1  UNL1       -0.0277
     13 C           5.6467    1.0157   -0.3537 C.ar    1  UNL1       -0.0160
     14 C           6.2992    0.0444    0.3393 C.ar    1  UNL1        0.1449
     15 O           7.6592   -0.0393    0.4623 O.3     1  UNL1       -0.4327
     16 C           8.5562    0.8386   -0.0919 C.3     1  UNL1        0.3893
     17 F           9.3311    1.3816    0.9537 F       1  UNL1       -0.1663
     18 F           9.4468    0.2127   -0.9755 F       1  UNL1       -0.1663
     19 C           5.5334   -0.9409    0.9730 C.ar    1  UNL1        0.0703
     20 N           4.2032   -0.9313    0.9020 N.ar    1  UNL1       -0.2467
     21 C          -0.5032   -2.3709    1.6577 C.ar    1  UNL1       -0.0377
     22 C          -1.8504   -2.6036    1.7514 C.ar    1  UNL1       -0.0243
     23 C          -2.7401   -1.7557    1.1278 C.ar    1  UNL1        0.1292
     24 F          -4.0903   -1.9707    1.2093 F       1  UNL1       -0.2051
     25 C          -2.6408    1.2981   -1.0743 C.3     1  UNL1        0.2686
     26 F          -1.9432    2.2158   -0.3412 F       1  UNL1       -0.2062
     27 F          -1.8922    0.7991   -2.1332 F       1  UNL1       -0.2062
     28 C          -4.2163    0.8245    0.7436 C.3     1  UNL1        0.0344
     29 C          -4.6328    2.2230    0.6501 C.3     1  UNL1       -0.0064
     30 C          -5.5483    1.1596    0.2133 C.3     1  UNL1        0.1091
     31 O          -5.7272    0.8158   -1.1461 O.2     1  UNL1       -0.4622
     32 H          -5.8856   -0.9278   -3.5349 H       1  UNL1        0.1466
     33 H          -6.3584   -2.0722   -2.2522 H       1  UNL1        0.1466
     34 H          -0.6474    0.4065   -0.2578 H       1  UNL1        0.0640
     35 H           2.0057   -1.7819    1.3746 H       1  UNL1        0.1552
     36 H           3.7538    1.7535   -0.9480 H       1  UNL1        0.0641
     37 H           6.1939    1.7900   -0.8544 H       1  UNL1        0.0655
     38 H           8.1191    1.6618   -0.6736 H       1  UNL1        0.1520
     39 H           6.0457   -1.7173    1.5266 H       1  UNL1        0.0867
     40 H           0.2269   -3.0339    2.1472 H       1  UNL1        0.0637
     41 H          -2.1881   -3.4534    2.3167 H       1  UNL1        0.0647
     42 H          -3.4861    1.8490   -1.5847 H       1  UNL1        0.1047
     43 H          -4.1853    0.3463    1.7435 H       1  UNL1        0.0366
     44 H          -4.3137    2.9454   -0.1026 H       1  UNL1        0.0306
     45 H          -4.8770    2.7301    1.6318 H       1  UNL1        0.0306
     46 H          -6.4519    0.9845    0.8296 H       1  UNL1        0.0737
@<TRIPOS>BOND
     1     1     2    1
     2     2     3    2
     3     3     4    1
     4     4     5    1
     5     5     6   ar
     6     6     7   ar
     7     7     8    1
     8     8     9   am
     9     9    10    2
    10     9    11    1
    11    11    12   ar
    12    12    13   ar
    13    13    14   ar
    14    14    15    1
    15    15    16    1
    16    16    17    1
    17    16    18    1
    18    14    19   ar
    19    19    20   ar
    20     7    21   ar
    21    21    22   ar
    22    22    23   ar
    23    23    24    1
    24     4    25    1
    25    25    26    1
    26    25    27    1
    27     4    28    1
    28    28    29    1
    29    29    30    1
    30    30    31    1
    31    31     2    1
    32    23     5   ar
    33    30    28    1
    34    20    11   ar
    35     1    32    1
    36     1    33    1
    37     6    34    1
    38     8    35    1
    39    12    36    1
    40    13    37    1
    41    16    38    1
    42    19    39    1
    43    21    40    1
    44    22    41    1
    45    25    42    1
    46    28    43    1
    47    29    44    1
    48    29    45    1
    49    30    46    1
