
     RDKit          3D

 46 49  0  0  0  0  0  0  0  0999 V2000
   -5.8705   -1.2082   -2.5463 N   0  0  0  0  0  0  0  0  0  0  0  0
   -5.1591   -0.3641   -1.6247 C   0  0  0  0  0  0  0  0  0  0  0  0
   -3.9869   -0.6499   -1.2047 N   0  0  0  0  0  0  0  0  0  0  0  0
   -3.2725    0.2236   -0.2624 C   0  0  1  0  0  0  0  0  0  0  0  0
   -2.2958   -0.6665    0.4038 C   0  0  0  0  0  0  0  0  0  0  0  0
   -0.9356   -0.4556    0.3254 C   0  0  0  0  0  0  0  0  0  0  0  0
   -0.0092   -1.2780    0.9335 C   0  0  0  0  0  0  0  0  0  0  0  0
    1.3910   -1.0706    0.8604 N   0  0  0  0  0  0  0  0  0  0  0  0
    2.0723   -0.0451    0.1951 C   0  0  0  0  0  0  0  0  0  0  0  0
    1.4436    0.8326   -0.4330 O   0  0  0  0  0  0  0  0  0  0  0  0
    3.5300    0.0021    0.2337 C   0  0  0  0  0  0  0  0  0  0  0  0
    4.2501    0.9824   -0.3988 C   0  0  0  0  0  0  0  0  0  0  0  0
    5.6467    1.0157   -0.3537 C   0  0  0  0  0  0  0  0  0  0  0  0
    6.2992    0.0444    0.3393 C   0  0  0  0  0  0  0  0  0  0  0  0
    7.6592   -0.0393    0.4623 O   0  0  0  0  0  0  0  0  0  0  0  0
    8.5562    0.8386   -0.0919 C   0  0  0  0  0  0  0  0  0  0  0  0
    9.3311    1.3816    0.9537 F   0  0  0  0  0  0  0  0  0  0  0  0
    9.4468    0.2127   -0.9755 F   0  0  0  0  0  0  0  0  0  0  0  0
    5.5334   -0.9409    0.9730 C   0  0  0  0  0  0  0  0  0  0  0  0
    4.2032   -0.9313    0.9020 N   0  0  0  0  0  0  0  0  0  0  0  0
   -0.5032   -2.3709    1.6577 C   0  0  0  0  0  0  0  0  0  0  0  0
   -1.8504   -2.6036    1.7514 C   0  0  0  0  0  0  0  0  0  0  0  0
   -2.7401   -1.7557    1.1278 C   0  0  0  0  0  0  0  0  0  0  0  0
   -4.0903   -1.9707    1.2093 F   0  0  0  0  0  0  0  0  0  0  0  0
   -2.6408    1.2981   -1.0743 C   0  0  0  0  0  0  0  0  0  0  0  0
   -1.9432    2.2158   -0.3412 F   0  0  0  0  0  0  0  0  0  0  0  0
   -1.8922    0.7991   -2.1332 F   0  0  0  0  0  0  0  0  0  0  0  0
   -4.2163    0.8245    0.7436 C   0  0  1  0  0  0  0  0  0  0  0  0
   -4.6328    2.2230    0.6501 C   0  0  0  0  0  0  0  0  0  0  0  0
   -5.5483    1.1596    0.2133 C   0  0  1  0  0  0  0  0  0  0  0  0
   -5.7272    0.8158   -1.1461 O   0  0  0  0  0  0  0  0  0  0  0  0
   -5.8856   -0.9278   -3.5349 H   0  0  0  0  0  0  0  0  0  0  0  0
   -6.3584   -2.0722   -2.2522 H   0  0  0  0  0  0  0  0  0  0  0  0
   -0.6474    0.4065   -0.2578 H   0  0  0  0  0  0  0  0  0  0  0  0
    2.0057   -1.7819    1.3746 H   0  0  0  0  0  0  0  0  0  0  0  0
    3.7538    1.7535   -0.9480 H   0  0  0  0  0  0  0  0  0  0  0  0
    6.1939    1.7900   -0.8544 H   0  0  0  0  0  0  0  0  0  0  0  0
    8.1191    1.6618   -0.6736 H   0  0  0  0  0  0  0  0  0  0  0  0
    6.0457   -1.7173    1.5266 H   0  0  0  0  0  0  0  0  0  0  0  0
    0.2269   -3.0339    2.1472 H   0  0  0  0  0  0  0  0  0  0  0  0
   -2.1881   -3.4534    2.3167 H   0  0  0  0  0  0  0  0  0  0  0  0
   -3.4861    1.8490   -1.5847 H   0  0  0  0  0  0  0  0  0  0  0  0
   -4.1853    0.3463    1.7435 H   0  0  0  0  0  0  0  0  0  0  0  0
   -4.3137    2.9454   -0.1026 H   0  0  0  0  0  0  0  0  0  0  0  0
   -4.8770    2.7301    1.6318 H   0  0  0  0  0  0  0  0  0  0  0  0
   -6.4519    0.9845    0.8296 H   0  0  0  0  0  0  0  0  0  0  0  0
  1  2  1  0
  2  3  2  0
  3  4  1  0
  4  5  1  0
  5  6  2  0
  6  7  1  0
  7  8  1  0
  8  9  1  0
  9 10  2  0
  9 11  1  0
 11 12  2  0
 12 13  1  0
 13 14  2  0
 14 15  1  0
 15 16  1  0
 16 17  1  0
 16 18  1  0
 14 19  1  0
 19 20  2  0
  7 21  2  0
 21 22  1  0
 22 23  2  0
 23 24  1  0
  4 25  1  6
 25 26  1  0
 25 27  1  0
  4 28  1  0
 28 29  1  0
 29 30  1  0
 30 31  1  0
 31  2  1  0
 23  5  1  0
 30 28  1  0
 20 11  1  0
  1 32  1  0
  1 33  1  0
  6 34  1  0
  8 35  1  0
 12 36  1  0
 13 37  1  0
 16 38  1  0
 19 39  1  0
 21 40  1  0
 22 41  1  0
 25 42  1  0
 28 43  1  1
 29 44  1  0
 29 45  1  0
 30 46  1  1
M  END
$$$$
