@<TRIPOS>MOLECULE
*****
 82 85 0 0 0
SMALL
GASTEIGER

@<TRIPOS>ATOM
      1 C          -6.6384    2.5200   -1.1365 C.3     1  UNL1        0.0788
      2 O          -6.6442    1.3377   -1.9061 O.3     1  UNL1       -0.4950
      3 C          -5.4667    0.6426   -2.1384 C.ar    1  UNL1        0.1241
      4 C          -5.4984   -0.5160   -2.8972 C.ar    1  UNL1        0.0218
      5 C          -4.3591   -1.2475   -3.1603 C.ar    1  UNL1        0.1241
      6 O          -4.5113   -2.3891   -3.9307 O.3     1  UNL1       -0.4950
      7 C          -3.4743   -3.2568   -4.3010 C.3     1  UNL1        0.0788
      8 C          -3.1710   -0.7976   -2.6463 C.ar    1  UNL1       -0.0119
      9 C          -3.0648    0.3458   -1.8833 C.ar    1  UNL1       -0.0077
     10 C          -1.7886    0.8139   -1.3568 C.ar    1  UNL1        0.0232
     11 C          -0.7079    0.9319   -2.2383 C.ar    1  UNL1       -0.0401
     12 C           0.5251    1.3815   -1.7861 C.ar    1  UNL1        0.0193
     13 C           1.6146    1.5117   -2.6221 C.ar    1  UNL1        0.0389
     14 N           2.7571    1.9501   -2.1025 N.ar    1  UNL1       -0.2392
     15 C           2.9271    2.2780   -0.8104 C.ar    1  UNL1        0.1295
     16 N           4.1669    2.7208   -0.3451 N.am    1  UNL1       -0.2562
     17 C           4.2865    3.1359    1.0598 C.3     1  UNL1        0.0232
     18 C           4.6223    2.0174    1.9837 C.3     1  UNL1       -0.0132
     19 C           5.9250    1.3253    1.6656 C.3     1  UNL1        0.0495
     20 O           6.1904    0.3054    2.5449 O.3     1  UNL1       -0.3751
     21 C           5.2919   -0.7266    2.5610 C.3     1  UNL1        0.0727
     22 C           5.1740   -1.4693    1.2833 C.ar    1  UNL1       -0.0219
     23 C           4.2785   -1.1404    0.2926 C.ar    1  UNL1       -0.0564
     24 C           4.2028   -1.8725   -0.8999 C.ar    1  UNL1       -0.0614
     25 C           5.0228   -2.9459   -1.1195 C.ar    1  UNL1       -0.0617
     26 C           5.9286   -3.2972   -0.1443 C.ar    1  UNL1       -0.0614
     27 C           5.9955   -2.5734    1.0217 C.ar    1  UNL1       -0.0564
     28 C           5.2959    2.7653   -1.2023 C.2     1  UNL1        0.2177
     29 C           5.2054    2.3197   -2.5973 C.3     1  UNL1        0.0127
     30 O           6.3788    3.1998   -0.7260 O.2     1  UNL1       -0.2755
     31 C           1.8437    2.1509    0.0332 C.ar    1  UNL1        0.0047
     32 C           0.6061    1.6935   -0.4489 C.ar    1  UNL1        0.0778
     33 N          -0.4406    1.5729    0.3762 N.ar    1  UNL1       -0.2310
     34 C          -1.6658    1.1341   -0.0351 C.ar    1  UNL1        0.1345
     35 N          -2.7253    1.0127    0.8983 N.am    1  UNL1       -0.2537
     36 C          -2.9827   -0.2054    1.5954 C.2     1  UNL1        0.3053
     37 O          -2.2501   -1.1743    1.3537 O.2     1  UNL1       -0.2525
     38 N          -4.0274   -0.3651    2.5455 N.am    1  UNL1       -0.2944
     39 C          -4.2577   -1.6064    3.2262 C.3     1  UNL1        0.0276
     40 C          -4.5763   -2.7403    2.2793 C.3     1  UNL1       -0.0442
     41 C          -5.4511   -1.4334    4.1396 C.3     1  UNL1       -0.0442
     42 C          -3.0899   -2.0104    4.1001 C.3     1  UNL1       -0.0442
     43 C          -4.2403    1.0427   -1.6499 C.ar    1  UNL1       -0.0119
     44 H          -6.5895    2.3076   -0.0482 H       1  UNL1        0.0660
     45 H          -7.5833    3.1004   -1.2823 H       1  UNL1        0.0660
     46 H          -5.7734    3.1808   -1.3806 H       1  UNL1        0.0660
     47 H          -6.4616   -0.8268   -3.2788 H       1  UNL1        0.0691
     48 H          -3.1541   -3.1038   -5.3690 H       1  UNL1        0.0660
     49 H          -3.7910   -4.3353   -4.2419 H       1  UNL1        0.0660
     50 H          -2.5673   -3.1865   -3.6780 H       1  UNL1        0.0660
     51 H          -2.2697   -1.3552   -2.8407 H       1  UNL1        0.0660
     52 H          -0.8012    0.6820   -3.2708 H       1  UNL1        0.0632
     53 H           1.4745    1.2459   -3.6668 H       1  UNL1        0.0837
     54 H           5.0630    3.9485    1.1383 H       1  UNL1        0.0470
     55 H           3.3426    3.6046    1.3630 H       1  UNL1        0.0470
     56 H           3.7694    1.3461    2.0883 H       1  UNL1        0.0303
     57 H           4.8012    2.4989    2.9994 H       1  UNL1        0.0303
     58 H           5.9072    0.8929    0.6373 H       1  UNL1        0.0560
     59 H           6.7371    2.0686    1.7491 H       1  UNL1        0.0560
     60 H           4.2750   -0.4488    2.9008 H       1  UNL1        0.0610
     61 H           5.6553   -1.4555    3.3442 H       1  UNL1        0.0610
     62 H           3.6105   -0.3068    0.4154 H       1  UNL1        0.0621
     63 H           3.4829   -1.5796   -1.6546 H       1  UNL1        0.0618
     64 H           4.9842   -3.5319   -2.0383 H       1  UNL1        0.0618
     65 H           6.5723   -4.1484   -0.3282 H       1  UNL1        0.0618
     66 H           6.6960   -2.8218    1.8110 H       1  UNL1        0.0621
     67 H           4.8940    1.2568   -2.7244 H       1  UNL1        0.0323
     68 H           4.5445    2.9944   -3.1748 H       1  UNL1        0.0323
     69 H           6.2257    2.4723   -3.0604 H       1  UNL1        0.0323
     70 H           1.8582    2.3772    1.0907 H       1  UNL1        0.0673
     71 H          -3.3616    1.8048    1.1279 H       1  UNL1        0.1578
     72 H          -4.6199    0.4619    2.7263 H       1  UNL1        0.1508
     73 H          -4.8723   -3.6604    2.8186 H       1  UNL1        0.0250
     74 H          -3.8082   -2.8928    1.5253 H       1  UNL1        0.0250
     75 H          -5.5024   -2.4120    1.7219 H       1  UNL1        0.0250
     76 H          -5.9231   -2.4183    4.2703 H       1  UNL1        0.0250
     77 H          -5.1467   -1.0687    5.1554 H       1  UNL1        0.0250
     78 H          -6.2008   -0.7267    3.6887 H       1  UNL1        0.0250
     79 H          -2.1403   -1.6434    3.6827 H       1  UNL1        0.0250
     80 H          -3.1227   -3.0895    4.2690 H       1  UNL1        0.0250
     81 H          -3.2230   -1.5093    5.0823 H       1  UNL1        0.0250
     82 H          -4.1886    1.9356   -1.0694 H       1  UNL1        0.0660
@<TRIPOS>BOND
     1     1     2    1
     2     2     3    1
     3     3     4   ar
     4     4     5   ar
     5     5     6    1
     6     6     7    1
     7     5     8   ar
     8     8     9   ar
     9     9    10    1
    10    10    11   ar
    11    11    12   ar
    12    12    13   ar
    13    13    14   ar
    14    14    15   ar
    15    15    16    1
    16    16    17    1
    17    17    18    1
    18    18    19    1
    19    19    20    1
    20    20    21    1
    21    21    22    1
    22    22    23   ar
    23    23    24   ar
    24    24    25   ar
    25    25    26   ar
    26    26    27   ar
    27    16    28   am
    28    28    29    1
    29    28    30    2
    30    15    31   ar
    31    31    32   ar
    32    32    33   ar
    33    33    34   ar
    34    34    35    1
    35    35    36   am
    36    36    37    2
    37    36    38   am
    38    38    39    1
    39    39    40    1
    40    39    41    1
    41    39    42    1
    42     9    43   ar
    43    43     3   ar
    44    34    10   ar
    45    32    12   ar
    46    27    22   ar
    47     1    44    1
    48     1    45    1
    49     1    46    1
    50     4    47    1
    51     7    48    1
    52     7    49    1
    53     7    50    1
    54     8    51    1
    55    11    52    1
    56    13    53    1
    57    17    54    1
    58    17    55    1
    59    18    56    1
    60    18    57    1
    61    19    58    1
    62    19    59    1
    63    21    60    1
    64    21    61    1
    65    23    62    1
    66    24    63    1
    67    25    64    1
    68    26    65    1
    69    27    66    1
    70    29    67    1
    71    29    68    1
    72    29    69    1
    73    31    70    1
    74    35    71    1
    75    38    72    1
    76    40    73    1
    77    40    74    1
    78    40    75    1
    79    41    76    1
    80    41    77    1
    81    41    78    1
    82    42    79    1
    83    42    80    1
    84    42    81    1
    85    43    82    1
