
     RDKit          3D

 82 85  0  0  0  0  0  0  0  0999 V2000
   -6.6384    2.5200   -1.1365 C   0  0  0  0  0  0  0  0  0  0  0  0
   -6.6442    1.3377   -1.9061 O   0  0  0  0  0  0  0  0  0  0  0  0
   -5.4667    0.6426   -2.1384 C   0  0  0  0  0  0  0  0  0  0  0  0
   -5.4984   -0.5160   -2.8972 C   0  0  0  0  0  0  0  0  0  0  0  0
   -4.3591   -1.2475   -3.1603 C   0  0  0  0  0  0  0  0  0  0  0  0
   -4.5113   -2.3891   -3.9307 O   0  0  0  0  0  0  0  0  0  0  0  0
   -3.4743   -3.2568   -4.3010 C   0  0  0  0  0  0  0  0  0  0  0  0
   -3.1710   -0.7976   -2.6463 C   0  0  0  0  0  0  0  0  0  0  0  0
   -3.0648    0.3458   -1.8833 C   0  0  0  0  0  0  0  0  0  0  0  0
   -1.7886    0.8139   -1.3568 C   0  0  0  0  0  0  0  0  0  0  0  0
   -0.7079    0.9319   -2.2383 C   0  0  0  0  0  0  0  0  0  0  0  0
    0.5251    1.3815   -1.7861 C   0  0  0  0  0  0  0  0  0  0  0  0
    1.6146    1.5117   -2.6221 C   0  0  0  0  0  0  0  0  0  0  0  0
    2.7571    1.9501   -2.1025 N   0  0  0  0  0  0  0  0  0  0  0  0
    2.9271    2.2780   -0.8104 C   0  0  0  0  0  0  0  0  0  0  0  0
    4.1669    2.7208   -0.3451 N   0  0  0  0  0  0  0  0  0  0  0  0
    4.2865    3.1359    1.0598 C   0  0  0  0  0  0  0  0  0  0  0  0
    4.6223    2.0174    1.9837 C   0  0  0  0  0  0  0  0  0  0  0  0
    5.9250    1.3253    1.6656 C   0  0  0  0  0  0  0  0  0  0  0  0
    6.1904    0.3054    2.5449 O   0  0  0  0  0  0  0  0  0  0  0  0
    5.2919   -0.7266    2.5610 C   0  0  0  0  0  0  0  0  0  0  0  0
    5.1740   -1.4693    1.2833 C   0  0  0  0  0  0  0  0  0  0  0  0
    4.2785   -1.1404    0.2926 C   0  0  0  0  0  0  0  0  0  0  0  0
    4.2028   -1.8725   -0.8999 C   0  0  0  0  0  0  0  0  0  0  0  0
    5.0228   -2.9459   -1.1195 C   0  0  0  0  0  0  0  0  0  0  0  0
    5.9286   -3.2972   -0.1443 C   0  0  0  0  0  0  0  0  0  0  0  0
    5.9955   -2.5734    1.0217 C   0  0  0  0  0  0  0  0  0  0  0  0
    5.2959    2.7653   -1.2023 C   0  0  0  0  0  0  0  0  0  0  0  0
    5.2054    2.3197   -2.5973 C   0  0  0  0  0  0  0  0  0  0  0  0
    6.3788    3.1998   -0.7260 O   0  0  0  0  0  0  0  0  0  0  0  0
    1.8437    2.1509    0.0332 C   0  0  0  0  0  0  0  0  0  0  0  0
    0.6061    1.6935   -0.4489 C   0  0  0  0  0  0  0  0  0  0  0  0
   -0.4406    1.5729    0.3762 N   0  0  0  0  0  0  0  0  0  0  0  0
   -1.6658    1.1341   -0.0351 C   0  0  0  0  0  0  0  0  0  0  0  0
   -2.7253    1.0127    0.8983 N   0  0  0  0  0  0  0  0  0  0  0  0
   -2.9827   -0.2054    1.5954 C   0  0  0  0  0  0  0  0  0  0  0  0
   -2.2501   -1.1743    1.3537 O   0  0  0  0  0  0  0  0  0  0  0  0
   -4.0274   -0.3651    2.5455 N   0  0  0  0  0  0  0  0  0  0  0  0
   -4.2577   -1.6064    3.2262 C   0  0  0  0  0  0  0  0  0  0  0  0
   -4.5763   -2.7403    2.2793 C   0  0  0  0  0  0  0  0  0  0  0  0
   -5.4511   -1.4334    4.1396 C   0  0  0  0  0  0  0  0  0  0  0  0
   -3.0899   -2.0104    4.1001 C   0  0  0  0  0  0  0  0  0  0  0  0
   -4.2403    1.0427   -1.6499 C   0  0  0  0  0  0  0  0  0  0  0  0
   -6.5895    2.3076   -0.0482 H   0  0  0  0  0  0  0  0  0  0  0  0
   -7.5833    3.1004   -1.2823 H   0  0  0  0  0  0  0  0  0  0  0  0
   -5.7734    3.1808   -1.3806 H   0  0  0  0  0  0  0  0  0  0  0  0
   -6.4616   -0.8268   -3.2788 H   0  0  0  0  0  0  0  0  0  0  0  0
   -3.1541   -3.1038   -5.3690 H   0  0  0  0  0  0  0  0  0  0  0  0
   -3.7910   -4.3353   -4.2419 H   0  0  0  0  0  0  0  0  0  0  0  0
   -2.5673   -3.1865   -3.6780 H   0  0  0  0  0  0  0  0  0  0  0  0
   -2.2697   -1.3552   -2.8407 H   0  0  0  0  0  0  0  0  0  0  0  0
   -0.8012    0.6820   -3.2708 H   0  0  0  0  0  0  0  0  0  0  0  0
    1.4745    1.2459   -3.6668 H   0  0  0  0  0  0  0  0  0  0  0  0
    5.0630    3.9485    1.1383 H   0  0  0  0  0  0  0  0  0  0  0  0
    3.3426    3.6046    1.3630 H   0  0  0  0  0  0  0  0  0  0  0  0
    3.7694    1.3461    2.0883 H   0  0  0  0  0  0  0  0  0  0  0  0
    4.8012    2.4989    2.9994 H   0  0  0  0  0  0  0  0  0  0  0  0
    5.9072    0.8929    0.6373 H   0  0  0  0  0  0  0  0  0  0  0  0
    6.7371    2.0686    1.7491 H   0  0  0  0  0  0  0  0  0  0  0  0
    4.2750   -0.4488    2.9008 H   0  0  0  0  0  0  0  0  0  0  0  0
    5.6553   -1.4555    3.3442 H   0  0  0  0  0  0  0  0  0  0  0  0
    3.6105   -0.3068    0.4154 H   0  0  0  0  0  0  0  0  0  0  0  0
    3.4829   -1.5796   -1.6546 H   0  0  0  0  0  0  0  0  0  0  0  0
    4.9842   -3.5319   -2.0383 H   0  0  0  0  0  0  0  0  0  0  0  0
    6.5723   -4.1484   -0.3282 H   0  0  0  0  0  0  0  0  0  0  0  0
    6.6960   -2.8218    1.8110 H   0  0  0  0  0  0  0  0  0  0  0  0
    4.8940    1.2568   -2.7244 H   0  0  0  0  0  0  0  0  0  0  0  0
    4.5445    2.9944   -3.1748 H   0  0  0  0  0  0  0  0  0  0  0  0
    6.2257    2.4723   -3.0604 H   0  0  0  0  0  0  0  0  0  0  0  0
    1.8582    2.3772    1.0907 H   0  0  0  0  0  0  0  0  0  0  0  0
   -3.3616    1.8048    1.1279 H   0  0  0  0  0  0  0  0  0  0  0  0
   -4.6199    0.4619    2.7263 H   0  0  0  0  0  0  0  0  0  0  0  0
   -4.8723   -3.6604    2.8186 H   0  0  0  0  0  0  0  0  0  0  0  0
   -3.8082   -2.8928    1.5253 H   0  0  0  0  0  0  0  0  0  0  0  0
   -5.5024   -2.4120    1.7219 H   0  0  0  0  0  0  0  0  0  0  0  0
   -5.9231   -2.4183    4.2703 H   0  0  0  0  0  0  0  0  0  0  0  0
   -5.1467   -1.0687    5.1554 H   0  0  0  0  0  0  0  0  0  0  0  0
   -6.2008   -0.7267    3.6887 H   0  0  0  0  0  0  0  0  0  0  0  0
   -2.1403   -1.6434    3.6827 H   0  0  0  0  0  0  0  0  0  0  0  0
   -3.1227   -3.0895    4.2690 H   0  0  0  0  0  0  0  0  0  0  0  0
   -3.2230   -1.5093    5.0823 H   0  0  0  0  0  0  0  0  0  0  0  0
   -4.1886    1.9356   -1.0694 H   0  0  0  0  0  0  0  0  0  0  0  0
  1  2  1  0
  2  3  1  0
  3  4  2  0
  4  5  1  0
  5  6  1  0
  6  7  1  0
  5  8  2  0
  8  9  1  0
  9 10  1  0
 10 11  2  0
 11 12  1  0
 12 13  2  0
 13 14  1  0
 14 15  2  0
 15 16  1  0
 16 17  1  0
 17 18  1  0
 18 19  1  0
 19 20  1  0
 20 21  1  0
 21 22  1  0
 22 23  2  0
 23 24  1  0
 24 25  2  0
 25 26  1  0
 26 27  2  0
 16 28  1  0
 28 29  1  0
 28 30  2  0
 15 31  1  0
 31 32  2  0
 32 33  1  0
 33 34  2  0
 34 35  1  0
 35 36  1  0
 36 37  2  0
 36 38  1  0
 38 39  1  0
 39 40  1  0
 39 41  1  0
 39 42  1  0
  9 43  2  0
 43  3  1  0
 34 10  1  0
 32 12  1  0
 27 22  1  0
  1 44  1  0
  1 45  1  0
  1 46  1  0
  4 47  1  0
  7 48  1  0
  7 49  1  0
  7 50  1  0
  8 51  1  0
 11 52  1  0
 13 53  1  0
 17 54  1  0
 17 55  1  0
 18 56  1  0
 18 57  1  0
 19 58  1  0
 19 59  1  0
 21 60  1  0
 21 61  1  0
 23 62  1  0
 24 63  1  0
 25 64  1  0
 26 65  1  0
 27 66  1  0
 29 67  1  0
 29 68  1  0
 29 69  1  0
 31 70  1  0
 35 71  1  0
 38 72  1  0
 40 73  1  0
 40 74  1  0
 40 75  1  0
 41 76  1  0
 41 77  1  0
 41 78  1  0
 42 79  1  0
 42 80  1  0
 42 81  1  0
 43 82  1  0
M  END
$$$$
