@<TRIPOS>MOLECULE
*****
 45 47 0 0 0
SMALL
GASTEIGER

@<TRIPOS>ATOM
      1 C           2.7094    0.4796   -2.7357 C.3     1  UNL1       -0.0131
      2 N           3.0185   -0.7817   -2.1189 N.3     1  UNL1       -0.3083
      3 C           4.4005   -0.8421   -1.6812 C.3     1  UNL1       -0.0131
      4 C           2.1221   -1.0777   -0.9886 C.3     1  UNL1       -0.0016
      5 C           0.7317   -1.3299   -1.4632 C.3     1  UNL1       -0.0370
      6 C          -0.2825   -1.6792   -0.4316 C.3     1  UNL1       -0.0142
      7 C          -0.5179   -0.5962    0.5747 C.3     1  UNL1        0.1201
      8 O           0.6485   -0.3387    1.2483 O.3     1  UNL1       -0.3595
      9 C           0.6807    0.9892    1.6472 C.3     1  UNL1        0.0747
     10 C          -0.1668    1.6294    0.6368 C.ar    1  UNL1       -0.0144
     11 C          -0.9253    0.6849   -0.0651 C.ar    1  UNL1       -0.0060
     12 C          -1.7500    1.1525   -1.0385 C.ar    1  UNL1       -0.0540
     13 C          -1.8632    2.4911   -1.3513 C.ar    1  UNL1       -0.0440
     14 C          -1.1154    3.4426   -0.6617 C.ar    1  UNL1        0.0521
     15 C          -0.2713    2.9624    0.3347 C.ar    1  UNL1       -0.0386
     16 C          -1.1972    4.8405   -0.9484 C.1     1  UNL1        0.0992
     17 N          -1.2578    5.9643   -1.1945 N.1     1  UNL1       -0.1909
     18 C          -1.5476   -1.0244    1.5787 C.ar    1  UNL1       -0.0113
     19 C          -2.1299   -0.2460    2.5315 C.ar    1  UNL1       -0.0528
     20 C          -3.0596   -0.7427    3.4108 C.ar    1  UNL1       -0.0261
     21 C          -3.4724   -2.0534    3.3986 C.ar    1  UNL1        0.1234
     22 F          -4.3837   -2.4801    4.2829 F       1  UNL1       -0.2055
     23 C          -2.8928   -2.8756    2.4318 C.ar    1  UNL1       -0.0261
     24 C          -1.9616   -2.3607    1.5576 C.ar    1  UNL1       -0.0528
     25 H           1.8909    0.3973   -3.4829 H       1  UNL1        0.0391
     26 H           3.6088    0.7825   -3.3260 H       1  UNL1        0.0391
     27 H           2.4579    1.2287   -1.9685 H       1  UNL1        0.0391
     28 H           4.5297   -1.8062   -1.1573 H       1  UNL1        0.0391
     29 H           4.5842    0.0244   -1.0390 H       1  UNL1        0.0391
     30 H           5.0717   -0.7903   -2.5582 H       1  UNL1        0.0391
     31 H           2.2709   -0.2477   -0.3009 H       1  UNL1        0.0426
     32 H           2.5389   -1.9980   -0.5025 H       1  UNL1        0.0426
     33 H           0.7107   -2.0363   -2.3334 H       1  UNL1        0.0279
     34 H           0.4161   -0.3489   -1.9623 H       1  UNL1        0.0279
     35 H           0.1773   -2.5393    0.1592 H       1  UNL1        0.0300
     36 H          -1.2328   -2.0599   -0.8784 H       1  UNL1        0.0300
     37 H           1.7348    1.3282    1.4215 H       1  UNL1        0.0610
     38 H           0.4481    1.1842    2.6859 H       1  UNL1        0.0610
     39 H          -2.3246    0.4105   -1.5669 H       1  UNL1        0.0622
     40 H          -2.5081    2.8589   -2.1124 H       1  UNL1        0.0630
     41 H           0.3036    3.7269    0.8598 H       1  UNL1        0.0634
     42 H          -1.8511    0.7728    2.5746 H       1  UNL1        0.0622
     43 H          -3.4920   -0.0817    4.1489 H       1  UNL1        0.0646
     44 H          -3.2380   -3.8997    2.4473 H       1  UNL1        0.0646
     45 H          -1.6134   -3.1145    0.8774 H       1  UNL1        0.0622
@<TRIPOS>BOND
     1     1     2    1
     2     2     3    1
     3     2     4    1
     4     4     5    1
     5     5     6    1
     6     7     6    1
     7     7     8    1
     8     8     9    1
     9     9    10    1
    10    10    11   ar
    11    11    12   ar
    12    12    13   ar
    13    13    14   ar
    14    14    15   ar
    15    14    16    1
    16    16    17    3
    17     7    18    1
    18    18    19   ar
    19    19    20   ar
    20    20    21   ar
    21    21    22    1
    22    21    23   ar
    23    23    24   ar
    24    11     7    1
    25    24    18   ar
    26    15    10   ar
    27     1    25    1
    28     1    26    1
    29     1    27    1
    30     3    28    1
    31     3    29    1
    32     3    30    1
    33     4    31    1
    34     4    32    1
    35     5    33    1
    36     5    34    1
    37     6    35    1
    38     6    36    1
    39     9    37    1
    40     9    38    1
    41    12    39    1
    42    13    40    1
    43    15    41    1
    44    19    42    1
    45    20    43    1
    46    23    44    1
    47    24    45    1
