
     RDKit          3D

 51 54  0  0  0  0  0  0  0  0999 V2000
   -1.8361    0.3205    0.7835 C   0  0  2  0  0  0  0  0  0  0  0  0
   -2.8467   -0.6021    1.4060 C   0  0  0  0  0  0  0  0  0  0  0  0
   -4.1518   -0.0912    0.8060 C   0  0  0  0  0  0  0  0  0  0  0  0
   -3.7608    0.7699   -0.3904 C   0  0  2  0  0  0  0  0  0  0  0  0
   -4.5801    0.5522   -1.4810 O   0  0  0  0  0  0  0  0  0  0  0  0
   -2.3599    0.2881   -0.6455 C   0  0  2  0  0  0  0  0  0  0  0  0
   -2.4473   -1.0938   -1.2013 C   0  0  0  0  0  0  0  0  0  0  0  0
   -1.5260    1.1953   -1.4871 C   0  0  0  0  0  0  0  0  0  0  0  0
   -0.1720    0.4917   -1.5692 C   0  0  0  0  0  0  0  0  0  0  0  0
    0.4177    0.5280   -0.1997 C   0  0  1  0  0  0  0  0  0  0  0  0
   -0.4193   -0.1551    0.8445 C   0  0  1  0  0  0  0  0  0  0  0  0
    0.1756    0.0387    2.1879 C   0  0  0  0  0  0  0  0  0  0  0  0
    1.4681    0.7853    2.2386 C   0  0  0  0  0  0  0  0  0  0  0  0
    2.4064    0.5757    1.1177 C   0  0  1  0  0  0  0  0  0  0  0  0
    3.6339   -0.2138    1.4496 C   0  0  0  0  0  0  0  0  0  0  0  0
    4.5007   -0.2085    0.2559 C   0  0  0  0  0  0  0  0  0  0  0  0
    5.7032   -0.3173    0.4295 O   0  0  0  0  0  0  0  0  0  0  0  0
    4.0534   -0.0838   -1.1330 C   0  0  0  0  0  0  0  0  0  0  0  0
    2.6186    0.2496   -1.3145 C   0  0  0  0  0  0  0  0  0  0  0  0
    1.7845   -0.0788   -0.0988 C   0  0  2  0  0  0  0  0  0  0  0  0
    1.7487   -1.5831    0.0107 C   0  0  0  0  0  0  0  0  0  0  0  0
   -2.0013    1.3162    1.2095 H   0  0  0  0  0  0  0  0  0  0  0  0
   -2.6678   -1.6172    0.9744 H   0  0  0  0  0  0  0  0  0  0  0  0
   -2.8516   -0.5903    2.5040 H   0  0  0  0  0  0  0  0  0  0  0  0
   -4.7585    0.4681    1.5315 H   0  0  0  0  0  0  0  0  0  0  0  0
   -4.7576   -0.9278    0.3770 H   0  0  0  0  0  0  0  0  0  0  0  0
   -3.7430    1.8232   -0.0502 H   0  0  0  0  0  0  0  0  0  0  0  0
   -5.5142    0.7564   -1.2485 H   0  0  0  0  0  0  0  0  0  0  0  0
   -3.4216   -1.5904   -1.0160 H   0  0  0  0  0  0  0  0  0  0  0  0
   -2.3427   -1.0466   -2.3184 H   0  0  0  0  0  0  0  0  0  0  0  0
   -1.6759   -1.7908   -0.8697 H   0  0  0  0  0  0  0  0  0  0  0  0
   -1.3279    2.1306   -0.9045 H   0  0  0  0  0  0  0  0  0  0  0  0
   -1.9454    1.4106   -2.4752 H   0  0  0  0  0  0  0  0  0  0  0  0
    0.4678    1.0845   -2.2316 H   0  0  0  0  0  0  0  0  0  0  0  0
   -0.3093   -0.5588   -1.9043 H   0  0  0  0  0  0  0  0  0  0  0  0
    0.4675    1.6068    0.0994 H   0  0  0  0  0  0  0  0  0  0  0  0
   -0.4166   -1.2576    0.6446 H   0  0  0  0  0  0  0  0  0  0  0  0
   -0.5692    0.5837    2.8284 H   0  0  0  0  0  0  0  0  0  0  0  0
    0.3156   -0.9292    2.7521 H   0  0  0  0  0  0  0  0  0  0  0  0
    1.9971    0.5102    3.1817 H   0  0  0  0  0  0  0  0  0  0  0  0
    1.2225    1.8789    2.3793 H   0  0  0  0  0  0  0  0  0  0  0  0
    2.7675    1.5780    0.7596 H   0  0  0  0  0  0  0  0  0  0  0  0
    3.4158   -1.2222    1.8390 H   0  0  0  0  0  0  0  0  0  0  0  0
    4.1850    0.3263    2.2674 H   0  0  0  0  0  0  0  0  0  0  0  0
    4.6763    0.7272   -1.5997 H   0  0  0  0  0  0  0  0  0  0  0  0
    4.3538   -1.0123   -1.6807 H   0  0  0  0  0  0  0  0  0  0  0  0
    2.2249   -0.4168   -2.1304 H   0  0  0  0  0  0  0  0  0  0  0  0
    2.4400    1.2836   -1.6900 H   0  0  0  0  0  0  0  0  0  0  0  0
    0.9729   -1.9526   -0.6774 H   0  0  0  0  0  0  0  0  0  0  0  0
    1.6686   -1.9548    1.0378 H   0  0  0  0  0  0  0  0  0  0  0  0
    2.7166   -1.9843   -0.3858 H   0  0  0  0  0  0  0  0  0  0  0  0
  1  2  1  0
  2  3  1  0
  3  4  1  0
  4  5  1  0
  4  6  1  0
  6  7  1  6
  6  8  1  0
  8  9  1  0
  9 10  1  0
 10 11  1  0
 11 12  1  0
 12 13  1  0
 13 14  1  0
 14 15  1  0
 15 16  1  0
 16 17  2  0
 16 18  1  0
 18 19  1  0
 19 20  1  0
 20 21  1  1
  6  1  1  0
 20 10  1  0
 11  1  1  0
 20 14  1  0
  1 22  1  1
  2 23  1  0
  2 24  1  0
  3 25  1  0
  3 26  1  0
  4 27  1  1
  5 28  1  0
  7 29  1  0
  7 30  1  0
  7 31  1  0
  8 32  1  0
  8 33  1  0
  9 34  1  0
  9 35  1  0
 10 36  1  1
 11 37  1  6
 12 38  1  0
 12 39  1  0
 13 40  1  0
 13 41  1  0
 14 42  1  6
 15 43  1  0
 15 44  1  0
 18 45  1  0
 18 46  1  0
 19 47  1  0
 19 48  1  0
 21 49  1  0
 21 50  1  0
 21 51  1  0
M  END
$$$$
