@<TRIPOS>MOLECULE
*****
 51 54 0 0 0
SMALL
GASTEIGER

@<TRIPOS>ATOM
      1 C          -1.8361    0.3205    0.7835 C.3     1  UNL1       -0.0301
      2 C          -2.8467   -0.6021    1.4060 C.3     1  UNL1       -0.0470
      3 C          -4.1518   -0.0912    0.8060 C.3     1  UNL1       -0.0261
      4 C          -3.7608    0.7699   -0.3904 C.3     1  UNL1        0.0609
      5 O          -4.5801    0.5522   -1.4810 O.3     1  UNL1       -0.3912
      6 C          -2.3599    0.2881   -0.6455 C.3     1  UNL1       -0.0030
      7 C          -2.4473   -1.0938   -1.2013 C.3     1  UNL1       -0.0569
      8 C          -1.5260    1.1953   -1.4871 C.3     1  UNL1       -0.0447
      9 C          -0.1720    0.4917   -1.5692 C.3     1  UNL1       -0.0489
     10 C           0.4177    0.5280   -0.1997 C.3     1  UNL1       -0.0322
     11 C          -0.4193   -0.1551    0.8445 C.3     1  UNL1       -0.0343
     12 C           0.1756    0.0387    2.1879 C.3     1  UNL1       -0.0494
     13 C           1.4681    0.7853    2.2386 C.3     1  UNL1       -0.0491
     14 C           2.4064    0.5757    1.1177 C.3     1  UNL1       -0.0287
     15 C           3.6339   -0.2138    1.4496 C.3     1  UNL1        0.0092
     16 C           4.5007   -0.2085    0.2559 C.2     1  UNL1        0.1337
     17 O           5.7032   -0.3173    0.4295 O.2     1  UNL1       -0.2974
     18 C           4.0534   -0.0838   -1.1330 C.3     1  UNL1        0.0063
     19 C           2.6186    0.2496   -1.3145 C.3     1  UNL1       -0.0404
     20 C           1.7845   -0.0788   -0.0988 C.3     1  UNL1       -0.0254
     21 C           1.7487   -1.5831    0.0107 C.3     1  UNL1       -0.0590
     22 H          -2.0013    1.3162    1.2095 H       1  UNL1        0.0310
     23 H          -2.6678   -1.6172    0.9744 H       1  UNL1        0.0269
     24 H          -2.8516   -0.5903    2.5040 H       1  UNL1        0.0269
     25 H          -4.7585    0.4681    1.5315 H       1  UNL1        0.0290
     26 H          -4.7576   -0.9278    0.3770 H       1  UNL1        0.0290
     27 H          -3.7430    1.8232   -0.0502 H       1  UNL1        0.0599
     28 H          -5.5142    0.7564   -1.2485 H       1  UNL1        0.2098
     29 H          -3.4216   -1.5904   -1.0160 H       1  UNL1        0.0236
     30 H          -2.3427   -1.0466   -2.3184 H       1  UNL1        0.0236
     31 H          -1.6759   -1.7908   -0.8697 H       1  UNL1        0.0236
     32 H          -1.3279    2.1306   -0.9045 H       1  UNL1        0.0271
     33 H          -1.9454    1.4106   -2.4752 H       1  UNL1        0.0271
     34 H           0.4678    1.0845   -2.2316 H       1  UNL1        0.0268
     35 H          -0.3093   -0.5588   -1.9043 H       1  UNL1        0.0268
     36 H           0.4675    1.6068    0.0994 H       1  UNL1        0.0309
     37 H          -0.4166   -1.2576    0.6446 H       1  UNL1        0.0306
     38 H          -0.5692    0.5837    2.8284 H       1  UNL1        0.0268
     39 H           0.3156   -0.9292    2.7521 H       1  UNL1        0.0268
     40 H           1.9971    0.5102    3.1817 H       1  UNL1        0.0268
     41 H           1.2225    1.8789    2.3793 H       1  UNL1        0.0268
     42 H           2.7675    1.5780    0.7596 H       1  UNL1        0.0310
     43 H           3.4158   -1.2222    1.8390 H       1  UNL1        0.0344
     44 H           4.1850    0.3263    2.2674 H       1  UNL1        0.0344
     45 H           4.6763    0.7272   -1.5997 H       1  UNL1        0.0342
     46 H           4.3538   -1.0123   -1.6807 H       1  UNL1        0.0342
     47 H           2.2249   -0.4168   -2.1304 H       1  UNL1        0.0275
     48 H           2.4400    1.2836   -1.6900 H       1  UNL1        0.0275
     49 H           0.9729   -1.9526   -0.6774 H       1  UNL1        0.0235
     50 H           1.6686   -1.9548    1.0378 H       1  UNL1        0.0235
     51 H           2.7166   -1.9843   -0.3858 H       1  UNL1        0.0235
@<TRIPOS>BOND
     1     1     2    1
     2     2     3    1
     3     3     4    1
     4     4     5    1
     5     4     6    1
     6     6     7    1
     7     6     8    1
     8     8     9    1
     9     9    10    1
    10    10    11    1
    11    11    12    1
    12    12    13    1
    13    13    14    1
    14    14    15    1
    15    15    16    1
    16    16    17    2
    17    16    18    1
    18    18    19    1
    19    19    20    1
    20    20    21    1
    21     6     1    1
    22    20    10    1
    23    11     1    1
    24    20    14    1
    25     1    22    1
    26     2    23    1
    27     2    24    1
    28     3    25    1
    29     3    26    1
    30     4    27    1
    31     5    28    1
    32     7    29    1
    33     7    30    1
    34     7    31    1
    35     8    32    1
    36     8    33    1
    37     9    34    1
    38     9    35    1
    39    10    36    1
    40    11    37    1
    41    12    38    1
    42    12    39    1
    43    13    40    1
    44    13    41    1
    45    14    42    1
    46    15    43    1
    47    15    44    1
    48    18    45    1
    49    18    46    1
    50    19    47    1
    51    19    48    1
    52    21    49    1
    53    21    50    1
    54    21    51    1
