@<TRIPOS>MOLECULE
*****
 62 66 0 0 0
SMALL
GASTEIGER

@<TRIPOS>ATOM
      1 C           3.3561    2.3373   -1.3501 C.3     1  UNL1       -0.0653
      2 C           2.9706    3.4490   -0.4692 C.3     1  UNL1       -0.0556
      3 C           1.9778    3.2021    0.6090 C.3     1  UNL1       -0.0478
      4 C           2.4022    2.2528    1.6440 C.3     1  UNL1       -0.0084
      5 C           2.4999    0.8402    1.3237 C.ar    1  UNL1        0.0677
      6 N           3.4772    0.2496    0.6282 N.ar    1  UNL1       -0.1703
      7 N           3.3275   -1.0067    0.4399 N.ar    1  UNL1       -0.2252
      8 C           4.1464   -1.8828   -0.3211 C.ar    1  UNL1        0.0664
      9 C           3.7505   -2.1310   -1.6465 C.ar    1  UNL1       -0.0349
     10 C           4.4859   -2.9792   -2.4761 C.ar    1  UNL1       -0.0414
     11 C           5.6083   -3.5730   -1.9817 C.ar    1  UNL1        0.0411
     12 CL          6.5690   -4.6609   -2.9958 Cl      1  UNL1       -0.0835
     13 C           6.0220   -3.3521   -0.7026 C.ar    1  UNL1       -0.0414
     14 C           5.2766   -2.5014    0.1207 C.ar    1  UNL1       -0.0349
     15 C           2.1462   -1.3295    1.0612 C.ar    1  UNL1        0.1547
     16 C           1.6581   -2.6824    1.0889 C.2     1  UNL1        0.3557
     17 O           2.2925   -3.6271    0.5143 O.2     1  UNL1       -0.2434
     18 O           0.4775   -3.0207    1.7439 O.3     1  UNL1       -0.4761
     19 C           1.5809   -0.1998    1.6340 C.ar    1  UNL1        0.0123
     20 C           0.3491   -0.0939    2.4155 C.3     1  UNL1        0.0016
     21 C          -0.9308    0.2381    1.7797 C.ar    1  UNL1       -0.0429
     22 C          -1.3035    1.4558    1.2736 C.ar    1  UNL1       -0.0577
     23 C          -2.5567    1.6893    0.7181 C.ar    1  UNL1       -0.0537
     24 C          -3.5289    0.7080    0.6312 C.ar    1  UNL1       -0.0172
     25 C          -4.8488    0.9152    0.0798 C.ar    1  UNL1       -0.0072
     26 C          -5.7100    1.8532    0.6880 C.ar    1  UNL1       -0.0534
     27 C          -7.0084    2.0167    0.2281 C.ar    1  UNL1       -0.0611
     28 C          -7.4770    1.2651   -0.8299 C.ar    1  UNL1       -0.0611
     29 C          -6.6074    0.3689   -1.3917 C.ar    1  UNL1       -0.0504
     30 C          -5.3106    0.1758   -0.9696 C.ar    1  UNL1        0.0282
     31 C          -4.4546   -0.7403   -1.7065 C.ar    1  UNL1        0.1799
     32 N          -5.0299   -1.7744   -2.4227 N.ar    1  UNL1       -0.1084
     33 N          -4.0677   -2.5044   -2.9354 N.ar    1  UNL1       -0.0229
     34 N          -2.9270   -1.9697   -2.5688 N.ar    1  UNL1       -0.0464
     35 N          -3.1516   -0.8904   -1.8190 N.ar    1  UNL1       -0.2388
     36 C          -3.1738   -0.5245    1.1384 C.ar    1  UNL1       -0.0537
     37 C          -1.9361   -0.7564    1.6870 C.ar    1  UNL1       -0.0577
     38 H           3.5722    2.7923   -2.4079 H       1  UNL1        0.0230
     39 H           2.5784    1.5893   -1.5096 H       1  UNL1        0.0230
     40 H           4.3602    1.8895   -1.1197 H       1  UNL1        0.0230
     41 H           3.9304    3.8878   -0.0449 H       1  UNL1        0.0263
     42 H           2.5886    4.3340   -1.0946 H       1  UNL1        0.0263
     43 H           1.5948    4.1762    1.0410 H       1  UNL1        0.0269
     44 H           1.0293    2.8286    0.0687 H       1  UNL1        0.0269
     45 H           1.7378    2.3575    2.5744 H       1  UNL1        0.0329
     46 H           3.4077    2.6231    2.0917 H       1  UNL1        0.0329
     47 H           2.8638   -1.6498   -2.0115 H       1  UNL1        0.0639
     48 H           4.1988   -3.1817   -3.4975 H       1  UNL1        0.0633
     49 H           6.9086   -3.8345   -0.3289 H       1  UNL1        0.0633
     50 H           5.6061   -2.3381    1.1264 H       1  UNL1        0.0639
     51 H           0.4485   -3.8921    2.2736 H       1  UNL1        0.2955
     52 H           0.1750   -1.0417    3.0300 H       1  UNL1        0.0363
     53 H           0.5609    0.6530    3.2647 H       1  UNL1        0.0363
     54 H          -0.6354    2.2796    1.3325 H       1  UNL1        0.0621
     55 H          -2.8282    2.6645    0.3243 H       1  UNL1        0.0624
     56 H          -5.3401    2.4398    1.5144 H       1  UNL1        0.0624
     57 H          -7.6426    2.7530    0.7275 H       1  UNL1        0.0618
     58 H          -8.4919    1.4024   -1.1753 H       1  UNL1        0.0618
     59 H          -6.9895   -0.2185   -2.2310 H       1  UNL1        0.0625
     60 H          -2.3996   -0.2871   -1.4386 H       1  UNL1        0.1923
     61 H          -3.9085   -1.3154    1.0926 H       1  UNL1        0.0624
     62 H          -1.6770   -1.7287    2.1014 H       1  UNL1        0.0621
@<TRIPOS>BOND
     1     1     2    1
     2     2     3    1
     3     3     4    1
     4     4     5    1
     5     5     6   ar
     6     6     7   ar
     7     7     8    1
     8     8     9   ar
     9     9    10   ar
    10    10    11   ar
    11    11    12    1
    12    11    13   ar
    13    13    14   ar
    14     7    15   ar
    15    15    16    1
    16    16    17    2
    17    16    18    1
    18    15    19   ar
    19    19    20    1
    20    20    21    1
    21    21    22   ar
    22    22    23   ar
    23    23    24   ar
    24    24    25    1
    25    25    26   ar
    26    26    27   ar
    27    27    28   ar
    28    28    29   ar
    29    29    30   ar
    30    30    31    1
    31    31    32   ar
    32    32    33   ar
    33    33    34   ar
    34    34    35   ar
    35    24    36   ar
    36    36    37   ar
    37    19     5   ar
    38    37    21   ar
    39    14     8   ar
    40    30    25   ar
    41    35    31   ar
    42     1    38    1
    43     1    39    1
    44     1    40    1
    45     2    41    1
    46     2    42    1
    47     3    43    1
    48     3    44    1
    49     4    45    1
    50     4    46    1
    51     9    47    1
    52    10    48    1
    53    13    49    1
    54    14    50    1
    55    18    51    1
    56    20    52    1
    57    20    53    1
    58    22    54    1
    59    23    55    1
    60    26    56    1
    61    27    57    1
    62    28    58    1
    63    29    59    1
    64    35    60    1
    65    36    61    1
    66    37    62    1
