
     RDKit          3D

 62 66  0  0  0  0  0  0  0  0999 V2000
    3.3561    2.3373   -1.3501 C   0  0  0  0  0  0  0  0  0  0  0  0
    2.9706    3.4490   -0.4692 C   0  0  0  0  0  0  0  0  0  0  0  0
    1.9778    3.2021    0.6090 C   0  0  0  0  0  0  0  0  0  0  0  0
    2.4022    2.2528    1.6440 C   0  0  0  0  0  0  0  0  0  0  0  0
    2.4999    0.8402    1.3237 C   0  0  0  0  0  0  0  0  0  0  0  0
    3.4772    0.2496    0.6282 N   0  0  0  0  0  0  0  0  0  0  0  0
    3.3275   -1.0067    0.4399 N   0  0  0  0  0  0  0  0  0  0  0  0
    4.1464   -1.8828   -0.3211 C   0  0  0  0  0  0  0  0  0  0  0  0
    3.7505   -2.1310   -1.6465 C   0  0  0  0  0  0  0  0  0  0  0  0
    4.4859   -2.9792   -2.4761 C   0  0  0  0  0  0  0  0  0  0  0  0
    5.6083   -3.5730   -1.9817 C   0  0  0  0  0  0  0  0  0  0  0  0
    6.5690   -4.6609   -2.9958 Cl  0  0  0  0  0  0  0  0  0  0  0  0
    6.0220   -3.3521   -0.7026 C   0  0  0  0  0  0  0  0  0  0  0  0
    5.2766   -2.5014    0.1207 C   0  0  0  0  0  0  0  0  0  0  0  0
    2.1462   -1.3295    1.0612 C   0  0  0  0  0  0  0  0  0  0  0  0
    1.6581   -2.6824    1.0889 C   0  0  0  0  0  0  0  0  0  0  0  0
    2.2925   -3.6271    0.5143 O   0  0  0  0  0  0  0  0  0  0  0  0
    0.4775   -3.0207    1.7439 O   0  0  0  0  0  0  0  0  0  0  0  0
    1.5809   -0.1998    1.6340 C   0  0  0  0  0  0  0  0  0  0  0  0
    0.3491   -0.0939    2.4155 C   0  0  0  0  0  0  0  0  0  0  0  0
   -0.9308    0.2381    1.7797 C   0  0  0  0  0  0  0  0  0  0  0  0
   -1.3035    1.4558    1.2736 C   0  0  0  0  0  0  0  0  0  0  0  0
   -2.5567    1.6893    0.7181 C   0  0  0  0  0  0  0  0  0  0  0  0
   -3.5289    0.7080    0.6312 C   0  0  0  0  0  0  0  0  0  0  0  0
   -4.8488    0.9152    0.0798 C   0  0  0  0  0  0  0  0  0  0  0  0
   -5.7100    1.8532    0.6880 C   0  0  0  0  0  0  0  0  0  0  0  0
   -7.0084    2.0167    0.2281 C   0  0  0  0  0  0  0  0  0  0  0  0
   -7.4770    1.2651   -0.8299 C   0  0  0  0  0  0  0  0  0  0  0  0
   -6.6074    0.3689   -1.3917 C   0  0  0  0  0  0  0  0  0  0  0  0
   -5.3106    0.1758   -0.9696 C   0  0  0  0  0  0  0  0  0  0  0  0
   -4.4546   -0.7403   -1.7065 C   0  0  0  0  0  0  0  0  0  0  0  0
   -5.0299   -1.7744   -2.4227 N   0  0  0  0  0  0  0  0  0  0  0  0
   -4.0677   -2.5044   -2.9354 N   0  0  0  0  0  0  0  0  0  0  0  0
   -2.9270   -1.9697   -2.5688 N   0  0  0  0  0  0  0  0  0  0  0  0
   -3.1516   -0.8904   -1.8190 N   0  0  0  0  0  0  0  0  0  0  0  0
   -3.1738   -0.5245    1.1384 C   0  0  0  0  0  0  0  0  0  0  0  0
   -1.9361   -0.7564    1.6870 C   0  0  0  0  0  0  0  0  0  0  0  0
    3.5722    2.7923   -2.4079 H   0  0  0  0  0  0  0  0  0  0  0  0
    2.5784    1.5893   -1.5096 H   0  0  0  0  0  0  0  0  0  0  0  0
    4.3602    1.8895   -1.1197 H   0  0  0  0  0  0  0  0  0  0  0  0
    3.9304    3.8878   -0.0449 H   0  0  0  0  0  0  0  0  0  0  0  0
    2.5886    4.3340   -1.0946 H   0  0  0  0  0  0  0  0  0  0  0  0
    1.5948    4.1762    1.0410 H   0  0  0  0  0  0  0  0  0  0  0  0
    1.0293    2.8286    0.0687 H   0  0  0  0  0  0  0  0  0  0  0  0
    1.7378    2.3575    2.5744 H   0  0  0  0  0  0  0  0  0  0  0  0
    3.4077    2.6231    2.0917 H   0  0  0  0  0  0  0  0  0  0  0  0
    2.8638   -1.6498   -2.0115 H   0  0  0  0  0  0  0  0  0  0  0  0
    4.1988   -3.1817   -3.4975 H   0  0  0  0  0  0  0  0  0  0  0  0
    6.9086   -3.8345   -0.3289 H   0  0  0  0  0  0  0  0  0  0  0  0
    5.6061   -2.3381    1.1264 H   0  0  0  0  0  0  0  0  0  0  0  0
    0.4485   -3.8921    2.2736 H   0  0  0  0  0  0  0  0  0  0  0  0
    0.1750   -1.0417    3.0300 H   0  0  0  0  0  0  0  0  0  0  0  0
    0.5609    0.6530    3.2647 H   0  0  0  0  0  0  0  0  0  0  0  0
   -0.6354    2.2796    1.3325 H   0  0  0  0  0  0  0  0  0  0  0  0
   -2.8282    2.6645    0.3243 H   0  0  0  0  0  0  0  0  0  0  0  0
   -5.3401    2.4398    1.5144 H   0  0  0  0  0  0  0  0  0  0  0  0
   -7.6426    2.7530    0.7275 H   0  0  0  0  0  0  0  0  0  0  0  0
   -8.4919    1.4024   -1.1753 H   0  0  0  0  0  0  0  0  0  0  0  0
   -6.9895   -0.2185   -2.2310 H   0  0  0  0  0  0  0  0  0  0  0  0
   -2.3996   -0.2871   -1.4386 H   0  0  0  0  0  0  0  0  0  0  0  0
   -3.9085   -1.3154    1.0926 H   0  0  0  0  0  0  0  0  0  0  0  0
   -1.6770   -1.7287    2.1014 H   0  0  0  0  0  0  0  0  0  0  0  0
  1  2  1  0
  2  3  1  0
  3  4  1  0
  4  5  1  0
  5  6  2  0
  6  7  1  0
  7  8  1  0
  8  9  2  0
  9 10  1  0
 10 11  2  0
 11 12  1  0
 11 13  1  0
 13 14  2  0
  7 15  1  0
 15 16  1  0
 16 17  2  0
 16 18  1  0
 15 19  2  0
 19 20  1  0
 20 21  1  0
 21 22  2  0
 22 23  1  0
 23 24  2  0
 24 25  1  0
 25 26  2  0
 26 27  1  0
 27 28  2  0
 28 29  1  0
 29 30  2  0
 30 31  1  0
 31 32  2  0
 32 33  1  0
 33 34  2  0
 34 35  1  0
 24 36  1  0
 36 37  2  0
 19  5  1  0
 37 21  1  0
 14  8  1  0
 30 25  1  0
 35 31  1  0
  1 38  1  0
  1 39  1  0
  1 40  1  0
  2 41  1  0
  2 42  1  0
  3 43  1  0
  3 44  1  0
  4 45  1  0
  4 46  1  0
  9 47  1  0
 10 48  1  0
 13 49  1  0
 14 50  1  0
 18 51  1  0
 20 52  1  0
 20 53  1  0
 22 54  1  0
 23 55  1  0
 26 56  1  0
 27 57  1  0
 28 58  1  0
 29 59  1  0
 35 60  1  0
 36 61  1  0
 37 62  1  0
M  END
$$$$
