@<TRIPOS>MOLECULE
*****
 27 27 0 0 0
SMALL
GASTEIGER

@<TRIPOS>ATOM
      1 C          -2.6428   -0.2608    1.5685 C.3     1  UNL1       -0.0155
      2 N          -1.4696    0.2717    0.8825 N.3     1  UNL1       -0.3138
      3 C          -1.2525   -0.4637   -0.3515 C.3     1  UNL1        0.0347
      4 C          -2.4868   -0.2934   -1.2119 C.3     1  UNL1       -0.0470
      5 C          -0.1089    0.1443   -1.1120 C.3     1  UNL1        0.0952
      6 O           0.0575   -0.6012   -2.2908 O.3     1  UNL1       -0.3856
      7 C           1.1524    0.1733   -0.3275 C.ar    1  UNL1       -0.0177
      8 C           1.8358   -1.0245   -0.1782 C.ar    1  UNL1       -0.0561
      9 C           3.0121   -1.1023    0.5296 C.ar    1  UNL1       -0.0614
     10 C           3.5270    0.0394    1.1067 C.ar    1  UNL1       -0.0617
     11 C           2.8410    1.2196    0.9518 C.ar    1  UNL1       -0.0614
     12 C           1.6730    1.3332    0.2572 C.ar    1  UNL1       -0.0561
     13 H          -2.6582    0.0312    2.6246 H       1  UNL1        0.0388
     14 H          -3.5466    0.0305    1.0213 H       1  UNL1        0.0388
     15 H          -2.5303   -1.3820    1.5451 H       1  UNL1        0.0388
     16 H          -1.6669    1.2736    0.6876 H       1  UNL1        0.1220
     17 H          -1.1000   -1.5286   -0.1002 H       1  UNL1        0.0486
     18 H          -3.2910   -0.9934   -0.9421 H       1  UNL1        0.0246
     19 H          -2.8036    0.7746   -1.1228 H       1  UNL1        0.0246
     20 H          -2.1685   -0.4228   -2.2645 H       1  UNL1        0.0246
     21 H          -0.4029    1.1696   -1.4002 H       1  UNL1        0.0659
     22 H           0.2656    0.0115   -3.0632 H       1  UNL1        0.2103
     23 H           1.4715   -1.9502   -0.6133 H       1  UNL1        0.0621
     24 H           3.5258   -2.0483    0.6315 H       1  UNL1        0.0618
     25 H           4.4423   -0.0279    1.6559 H       1  UNL1        0.0618
     26 H           3.2079    2.1511    1.3898 H       1  UNL1        0.0618
     27 H           1.1168    2.2651    0.1260 H       1  UNL1        0.0621
@<TRIPOS>BOND
     1     1     2    1
     2     2     3    1
     3     3     4    1
     4     3     5    1
     5     5     6    1
     6     5     7    1
     7     7     8   ar
     8     8     9   ar
     9     9    10   ar
    10    10    11   ar
    11    11    12   ar
    12    12     7   ar
    13     1    13    1
    14     1    14    1
    15     1    15    1
    16     2    16    1
    17     3    17    1
    18     4    18    1
    19     4    19    1
    20     4    20    1
    21     5    21    1
    22     6    22    1
    23     8    23    1
    24     9    24    1
    25    10    25    1
    26    11    26    1
    27    12    27    1
