@<TRIPOS>MOLECULE
*****
 69 73 0 0 0
SMALL
GASTEIGER

@<TRIPOS>ATOM
      1 O           1.0147   -1.8075   -3.5217 O.2     1  UNL1       -0.2817
      2 C           1.1411   -0.8395   -2.7322 C.2     1  UNL1        0.2496
      3 C           2.2947    0.0436   -2.6524 C.2     1  UNL1        0.2915
      4 O           3.3325   -0.0215   -3.3511 O.2     1  UNL1       -0.2661
      5 N           2.0699    1.0138   -1.6442 N.am    1  UNL1       -0.2598
      6 C           2.9698    2.0778   -1.2452 C.3     1  UNL1        0.0452
      7 C           3.8776    1.6000   -0.1758 C.ar    1  UNL1       -0.0295
      8 C           3.6071    1.6905    1.1720 C.ar    1  UNL1       -0.0536
      9 C           4.4698    1.2360    2.1291 C.ar    1  UNL1       -0.0196
     10 C           5.7115    0.6372    1.7629 C.ar    1  UNL1        0.1206
     11 O           6.5358    0.2013    2.7138 O.3     1  UNL1       -0.4897
     12 C           7.6679   -0.3636    3.0597 C.3     1  UNL1        0.1128
     13 C           8.9913    0.2344    2.7024 C.3     1  UNL1        0.0818
     14 O           9.3044    0.3759    1.3919 O.3     1  UNL1       -0.3739
     15 C           9.4328   -0.8427    0.7172 C.3     1  UNL1        0.0760
     16 C           9.7751   -0.5753   -0.7316 C.3     1  UNL1        0.1134
     17 F          10.9755    0.1273   -0.8252 F       1  UNL1       -0.2467
     18 C           5.9648    0.5552    0.4162 C.ar    1  UNL1       -0.0196
     19 C           5.0704    1.0244   -0.5171 C.ar    1  UNL1       -0.0536
     20 C           0.7777    0.7557   -1.0786 C.ar    1  UNL1        0.0481
     21 C           0.0659    1.3852   -0.0765 C.ar    1  UNL1       -0.0377
     22 C          -1.1872    0.9072    0.2675 C.ar    1  UNL1       -0.0335
     23 C          -1.7560   -0.1805   -0.3559 C.ar    1  UNL1        0.1063
     24 S          -3.3462   -0.7239    0.1442 S.O2    1  UNL1        0.0612
     25 O          -3.4487   -0.5132    1.6060 O.2     1  UNL1       -0.1528
     26 O          -3.4385   -2.2061   -0.1728 O.2     1  UNL1       -0.1528
     27 N          -4.5156    0.1079   -0.7606 N.3     1  UNL1       -0.1702
     28 C          -4.4317   -0.1368   -2.2073 C.3     1  UNL1        0.0225
     29 C          -5.5955   -1.1205   -2.0102 C.3     1  UNL1       -0.0180
     30 C          -5.8806   -0.3662   -0.7079 C.3     1  UNL1        0.0671
     31 C          -6.2612   -1.2774    0.4007 C.3     1  UNL1        0.1067
     32 O          -7.5942   -1.6381    0.3277 O.3     1  UNL1       -0.4904
     33 C          -8.7493   -0.9485    0.4086 C.ar    1  UNL1        0.1206
     34 C          -9.9443   -1.6797    0.2571 C.ar    1  UNL1       -0.0199
     35 C         -11.1719   -1.1010    0.3201 C.ar    1  UNL1       -0.0583
     36 C         -11.2926    0.2544    0.5397 C.ar    1  UNL1       -0.0615
     37 C         -10.1678    1.0153    0.6946 C.ar    1  UNL1       -0.0583
     38 C          -8.9294    0.3916    0.6248 C.ar    1  UNL1       -0.0199
     39 C          -1.0451   -0.8058   -1.3538 C.ar    1  UNL1       -0.0226
     40 C           0.2114   -0.3519   -1.7217 C.ar    1  UNL1        0.0502
     41 H           2.4017    2.9361   -0.8146 H       1  UNL1        0.0518
     42 H           3.5454    2.4863   -2.0958 H       1  UNL1        0.0518
     43 H           2.6591    2.1472    1.4862 H       1  UNL1        0.0622
     44 H           4.2687    1.3015    3.1904 H       1  UNL1        0.0654
     45 H           7.7101   -0.4380    4.2132 H       1  UNL1        0.0720
     46 H           7.6513   -1.4722    2.7926 H       1  UNL1        0.0720
     47 H           9.0014    1.2676    3.1558 H       1  UNL1        0.0594
     48 H           9.8353   -0.2963    3.1984 H       1  UNL1        0.0594
     49 H          10.2924   -1.4366    1.1309 H       1  UNL1        0.0585
     50 H           8.5597   -1.4865    0.7625 H       1  UNL1        0.0585
     51 H           9.8510   -1.4953   -1.3229 H       1  UNL1        0.0638
     52 H           8.9938    0.0583   -1.2236 H       1  UNL1        0.0638
     53 H           6.9093    0.0978    0.0863 H       1  UNL1        0.0654
     54 H           5.3355    0.9277   -1.5742 H       1  UNL1        0.0622
     55 H           0.5289    2.2372    0.3998 H       1  UNL1        0.0637
     56 H          -1.7227    1.4311    1.0665 H       1  UNL1        0.0638
     57 H          -3.4976   -0.5910   -2.5532 H       1  UNL1        0.0444
     58 H          -4.7955    0.7454   -2.7780 H       1  UNL1        0.0444
     59 H          -6.4156   -1.0036   -2.7313 H       1  UNL1        0.0295
     60 H          -5.2098   -2.1264   -1.8214 H       1  UNL1        0.0295
     61 H          -6.5588    0.4750   -0.8377 H       1  UNL1        0.0514
     62 H          -5.6756   -2.2309    0.4085 H       1  UNL1        0.0713
     63 H          -6.1271   -0.7396    1.3817 H       1  UNL1        0.0713
     64 H          -9.8749   -2.7438    0.0840 H       1  UNL1        0.0654
     65 H         -12.0709   -1.6855    0.2004 H       1  UNL1        0.0619
     66 H         -12.2892    0.6965    0.5861 H       1  UNL1        0.0618
     67 H         -10.2463    2.0686    0.8657 H       1  UNL1        0.0619
     68 H          -8.0841    1.0203    0.7680 H       1  UNL1        0.0654
     69 H          -1.4815   -1.6512   -1.8388 H       1  UNL1        0.0645
@<TRIPOS>BOND
     1     1     2    2
     2     2     3    1
     3     3     4    2
     4     3     5   am
     5     5     6    1
     6     6     7    1
     7     7     8   ar
     8     8     9   ar
     9     9    10   ar
    10    10    11    1
    11    11    12    1
    12    12    13    1
    13    13    14    1
    14    14    15    1
    15    15    16    1
    16    16    17    1
    17    10    18   ar
    18    18    19   ar
    19     5    20    1
    20    20    21   ar
    21    21    22   ar
    22    22    23   ar
    23    23    24    1
    24    24    25    2
    25    24    26    2
    26    24    27    1
    27    27    28    1
    28    28    29    1
    29    29    30    1
    30    30    31    1
    31    31    32    1
    32    32    33    1
    33    33    34   ar
    34    34    35   ar
    35    35    36   ar
    36    36    37   ar
    37    37    38   ar
    38    23    39   ar
    39    39    40   ar
    40    40     2    1
    41    19     7   ar
    42    40    20   ar
    43    30    27    1
    44    38    33   ar
    45     6    41    1
    46     6    42    1
    47     8    43    1
    48     9    44    1
    49    12    45    1
    50    12    46    1
    51    13    47    1
    52    13    48    1
    53    15    49    1
    54    15    50    1
    55    16    51    1
    56    16    52    1
    57    18    53    1
    58    19    54    1
    59    21    55    1
    60    22    56    1
    61    28    57    1
    62    28    58    1
    63    29    59    1
    64    29    60    1
    65    30    61    1
    66    31    62    1
    67    31    63    1
    68    34    64    1
    69    35    65    1
    70    36    66    1
    71    37    67    1
    72    38    68    1
    73    39    69    1
