@<TRIPOS>MOLECULE
*****
 50 53 0 0 0
SMALL
GASTEIGER

@<TRIPOS>ATOM
      1 C          -5.8373   -3.1388   -0.5789 C.3     1  UNL1        0.0309
      2 N          -4.4929   -2.5523   -0.4669 N.ar    1  UNL1       -0.2661
      3 N          -3.4103   -2.9722   -1.0972 N.ar    1  UNL1       -0.1687
      4 C          -2.3368   -2.2286   -0.7820 C.ar    1  UNL1        0.1202
      5 C          -0.9757   -2.3882   -1.2763 C.ar    1  UNL1        0.1104
      6 C          -0.6630   -3.4006   -2.1582 C.ar    1  UNL1        0.0575
      7 N           0.5860   -3.5836   -2.6376 N.ar    1  UNL1       -0.2338
      8 C           1.5859   -2.7650   -2.2607 C.ar    1  UNL1        0.1574
      9 N           2.9011   -2.6702   -2.5390 N.ar    1  UNL1       -0.3438
     10 C           3.4135   -1.6268   -1.8547 C.ar    1  UNL1        0.0178
     11 C           2.4271   -1.0160   -1.1076 C.ar    1  UNL1        0.0815
     12 C           2.5085    0.1391   -0.2240 C.2     1  UNL1        0.2480
     13 O           1.8039    0.1839    0.8308 O.2     1  UNL1       -0.2701
     14 N           3.3656    1.2362   -0.5112 N.am    1  UNL1       -0.3065
     15 C           3.4758    2.3989    0.3325 C.3     1  UNL1        0.0265
     16 C           3.9444    2.0416    1.7366 C.3     1  UNL1       -0.0442
     17 C           2.2133    3.2025    0.3926 C.3     1  UNL1       -0.0442
     18 C           4.5521    3.3064   -0.2529 C.3     1  UNL1       -0.0442
     19 C           1.2729   -1.7511   -1.3771 C.ar    1  UNL1        0.1202
     20 N           0.0248   -1.5753   -0.9042 N.ar    1  UNL1       -0.2397
     21 C          -2.8250   -1.2857    0.1150 C.ar    1  UNL1        0.0326
     22 C          -2.1784   -0.2858    0.7552 C.ar    1  UNL1       -0.0084
     23 C          -2.8484    0.5829    1.6410 C.ar    1  UNL1        0.1276
     24 O          -2.2111    1.5372    2.2470 O.3     1  UNL1       -0.4342
     25 C          -1.5182    2.4587    2.8134 C.3     1  UNL1        0.3893
     26 F          -1.6449    2.6256    4.1979 F       1  UNL1       -0.1663
     27 F          -1.8382    3.7371    2.3104 F       1  UNL1       -0.1663
     28 C          -4.2281    0.3435    1.8156 C.ar    1  UNL1       -0.0177
     29 C          -4.8550   -0.6749    1.1557 C.ar    1  UNL1       -0.0326
     30 C          -4.1759   -1.5039    0.2998 C.ar    1  UNL1        0.0695
     31 H          -5.7219   -4.0536   -1.1818 H       1  UNL1        0.0473
     32 H          -6.1756   -3.4740    0.4395 H       1  UNL1        0.0473
     33 H          -6.5273   -2.4323   -1.0328 H       1  UNL1        0.0473
     34 H          -1.4759   -4.0578   -2.4550 H       1  UNL1        0.0853
     35 H           3.3937   -3.3159   -3.1800 H       1  UNL1        0.1668
     36 H           4.4481   -1.3318   -1.8985 H       1  UNL1        0.0816
     37 H           3.9239    1.1361   -1.4068 H       1  UNL1        0.1495
     38 H           3.1362    1.5213    2.3022 H       1  UNL1        0.0250
     39 H           4.1267    2.9937    2.2684 H       1  UNL1        0.0250
     40 H           4.8658    1.4599    1.6615 H       1  UNL1        0.0250
     41 H           1.8930    3.4430   -0.6517 H       1  UNL1        0.0250
     42 H           2.4456    4.1545    0.9142 H       1  UNL1        0.0250
     43 H           1.3871    2.6681    0.8999 H       1  UNL1        0.0250
     44 H           5.2630    2.6727   -0.8377 H       1  UNL1        0.0250
     45 H           4.0597    3.9725   -0.9703 H       1  UNL1        0.0250
     46 H           5.0901    3.8357    0.5641 H       1  UNL1        0.0250
     47 H          -1.1224   -0.1332    0.5963 H       1  UNL1        0.0661
     48 H          -0.4041    2.3631    2.6114 H       1  UNL1        0.1520
     49 H          -4.7292    1.0212    2.5003 H       1  UNL1        0.0655
     50 H          -5.9125   -0.8178    1.3223 H       1  UNL1        0.0640
@<TRIPOS>BOND
     1     1     2    1
     2     2     3   ar
     3     3     4   ar
     4     4     5    1
     5     5     6   ar
     6     6     7   ar
     7     7     8   ar
     8     8     9   ar
     9     9    10   ar
    10    10    11   ar
    11    11    12    1
    12    12    13    2
    13    12    14   am
    14    14    15    1
    15    15    16    1
    16    15    17    1
    17    15    18    1
    18    11    19   ar
    19    19    20   ar
    20     4    21   ar
    21    21    22   ar
    22    22    23   ar
    23    23    24    1
    24    24    25    1
    25    25    26    1
    26    25    27    1
    27    23    28   ar
    28    28    29   ar
    29    29    30   ar
    30    30     2   ar
    31    20     5   ar
    32    30    21   ar
    33    19     8   ar
    34     1    31    1
    35     1    32    1
    36     1    33    1
    37     6    34    1
    38     9    35    1
    39    10    36    1
    40    14    37    1
    41    16    38    1
    42    16    39    1
    43    16    40    1
    44    17    41    1
    45    17    42    1
    46    17    43    1
    47    18    44    1
    48    18    45    1
    49    18    46    1
    50    22    47    1
    51    25    48    1
    52    28    49    1
    53    29    50    1
