@<TRIPOS>MOLECULE
*****
 37 39 0 0 0
SMALL
GASTEIGER

@<TRIPOS>ATOM
      1 C           0.8210    4.1673    0.5508 C.3     1  UNL1       -0.0012
      2 C          -0.1666    3.0702    0.3195 C.2     1  UNL1        0.1669
      3 O          -1.3537    3.4529    0.2539 O.2     1  UNL1       -0.2921
      4 C           0.2426    1.6841    0.1867 C.ar    1  UNL1        0.0990
      5 C          -0.6845    0.6753    0.0835 C.ar    1  UNL1        0.1377
      6 N          -2.0903    0.8656    0.1394 N.pl3   1  UNL1       -0.2988
      7 C          -2.9767   -0.2481   -0.0519 C.ar    1  UNL1        0.0325
      8 C          -4.1919   -0.3162    0.5964 C.ar    1  UNL1       -0.0391
      9 C          -5.0950   -1.3433    0.4514 C.ar    1  UNL1       -0.0416
     10 C          -4.7669   -2.3676   -0.3915 C.ar    1  UNL1        0.0411
     11 CL         -5.8554   -3.7321   -0.6423 Cl      1  UNL1       -0.0835
     12 C          -3.5618   -2.3364   -1.0578 C.ar    1  UNL1       -0.0416
     13 C          -2.6529   -1.2750   -0.8962 C.ar    1  UNL1       -0.0391
     14 N          -0.1960   -0.5989   -0.0570 N.ar    1  UNL1       -0.2295
     15 C           1.1100   -0.8641   -0.0938 C.ar    1  UNL1        0.0953
     16 C           1.6078   -2.1484   -0.2368 C.ar    1  UNL1        0.0734
     17 CL          0.4632   -3.4720   -0.3807 Cl      1  UNL1       -0.0811
     18 C           2.9380   -2.4102   -0.2735 C.ar    1  UNL1        0.0360
     19 C           3.8704   -1.3918   -0.1687 C.ar    1  UNL1        0.2753
     20 N           5.2642   -1.6494   -0.2090 N.pl3   1  UNL1        0.0797
     21 O           5.6810   -2.8170   -0.3343 O.2     1  UNL1        0.0414
     22 O           6.1223   -0.5828   -0.1107 O.co2   1  UNL1       -0.5760
     23 C           3.3857   -0.1158   -0.0271 C.ar    1  UNL1        0.0284
     24 C           2.0436    0.1542    0.0105 C.ar    1  UNL1        0.0505
     25 C           1.6189    1.4567    0.1535 C.ar    1  UNL1        0.1400
     26 O           2.5636    2.4700    0.2563 O.3     1  UNL1       -0.5053
     27 H           1.4640    4.3656   -0.3150 H       1  UNL1        0.0309
     28 H           1.4488    4.0007    1.4552 H       1  UNL1        0.0309
     29 H           0.2190    5.0835    0.8219 H       1  UNL1        0.0309
     30 H          -2.4827    1.8031    0.3220 H       1  UNL1        0.1536
     31 H          -4.4476    0.4933    1.2579 H       1  UNL1        0.0636
     32 H          -6.0445   -1.3747    0.9692 H       1  UNL1        0.0633
     33 H          -3.2958   -3.1297   -1.7191 H       1  UNL1        0.0633
     34 H          -1.7558   -1.3400   -1.4723 H       1  UNL1        0.0636
     35 H           3.3454   -3.4306   -0.3881 H       1  UNL1        0.0701
     36 H           4.1012    0.6962    0.0575 H       1  UNL1        0.0693
     37 H           3.3075    2.5051    0.9402 H       1  UNL1        0.2922
@<TRIPOS>UNITY_ATOM_ATTR
20 1
charge 1
22 1
charge -1
@<TRIPOS>BOND
     1     1     2    1
     2     2     3    2
     3     2     4    1
     4     4     5   ar
     5     5     6    1
     6     6     7    1
     7     7     8   ar
     8     8     9   ar
     9     9    10   ar
    10    10    11    1
    11    10    12   ar
    12    12    13   ar
    13     5    14   ar
    14    14    15   ar
    15    15    16   ar
    16    16    17    1
    17    16    18   ar
    18    18    19   ar
    19    19    20    1
    20    20    21    2
    21    20    22    1
    22    19    23   ar
    23    23    24   ar
    24    24    25   ar
    25    25    26    1
    26    25     4   ar
    27    13     7   ar
    28    24    15   ar
    29     1    27    1
    30     1    28    1
    31     1    29    1
    32     6    30    1
    33     8    31    1
    34     9    32    1
    35    12    33    1
    36    13    34    1
    37    18    35    1
    38    23    36    1
    39    26    37    1
