
     RDKit          3D

 14 15  0  0  0  0  0  0  0  0999 V2000
   -1.0338    2.5746   -0.1566 O   0  0  0  0  0  0  0  0  0  0  0  0
   -1.1018    1.3340   -0.1045 C   0  0  0  0  0  0  0  0  0  0  0  0
   -2.2615    0.6518   -0.1224 N   0  0  0  0  0  0  0  0  0  0  0  0
   -2.3401   -0.6997   -0.0659 C   0  0  0  0  0  0  0  0  0  0  0  0
   -1.2091   -1.4355    0.0134 N   0  0  0  0  0  0  0  0  0  0  0  0
    0.0138   -0.8448    0.0379 C   0  0  0  0  0  0  0  0  0  0  0  0
    1.2782   -1.2676    0.1089 N   0  0  0  0  0  0  0  0  0  0  0  0
    2.0859   -0.2141    0.0958 N   0  0  0  0  0  0  0  0  0  0  0  0
    1.3953    0.9360    0.0164 C   0  0  0  0  0  0  0  0  0  0  0  0
    0.0580    0.6123   -0.0247 C   0  0  0  0  0  0  0  0  0  0  0  0
   -3.3421   -1.1093   -0.0892 H   0  0  0  0  0  0  0  0  0  0  0  0
    1.5707   -2.2715    0.1654 H   0  0  0  0  0  0  0  0  0  0  0  0
    3.1428   -0.2253    0.1400 H   0  0  0  0  0  0  0  0  0  0  0  0
    1.7438    1.9591   -0.0144 H   0  0  0  0  0  0  0  0  0  0  0  0
  1  2  2  0
  2  3  1  0
  3  4  2  0
  4  5  1  0
  5  6  2  0
  6  7  1  0
  7  8  1  0
  8  9  1  0
  9 10  2  0
 10  2  1  0
 10  6  1  0
  4 11  1  0
  7 12  1  0
  8 13  1  0
  9 14  1  0
M  END
$$$$
