@<TRIPOS>MOLECULE
*****
 14 15 0 0 0
SMALL
GASTEIGER

@<TRIPOS>ATOM
      1 O          -1.0338    2.5746   -0.1566 O.2     1  UNL1       -0.2650
      2 C          -1.1018    1.3340   -0.1045 C.ar    1  UNL1        0.2838
      3 N          -2.2615    0.6518   -0.1224 N.ar    1  UNL1       -0.1969
      4 C          -2.3401   -0.6997   -0.0659 C.ar    1  UNL1        0.1223
      5 N          -1.2091   -1.4355    0.0134 N.ar    1  UNL1       -0.2163
      6 C           0.0138   -0.8448    0.0379 C.ar    1  UNL1        0.1609
      7 N           1.2782   -1.2676    0.1089 N.ar    1  UNL1       -0.2830
      8 N           2.0859   -0.2141    0.0958 N.ar    1  UNL1       -0.3048
      9 C           1.3953    0.9360    0.0164 C.ar    1  UNL1        0.0348
     10 C           0.0580    0.6123   -0.0247 C.ar    1  UNL1        0.1020
     11 H          -3.3421   -1.1093   -0.0892 H       1  UNL1        0.1049
     12 H           1.5707   -2.2715    0.1654 H       1  UNL1        0.1883
     13 H           3.1428   -0.2253    0.1400 H       1  UNL1        0.1861
     14 H           1.7438    1.9591   -0.0144 H       1  UNL1        0.0831
@<TRIPOS>BOND
     1     1     2    2
     2     2     3   ar
     3     3     4   ar
     4     4     5   ar
     5     5     6   ar
     6     6     7   ar
     7     7     8   ar
     8     8     9   ar
     9     9    10   ar
    10    10     2   ar
    11    10     6    1
    12     4    11    1
    13     7    12    1
    14     8    13    1
    15     9    14    1
