
     RDKit          3D

 55 57  0  0  0  0  0  0  0  0999 V2000
    2.9853   -0.8504   -0.8003 C   0  0  0  0  0  0  0  0  0  0  0  0
    1.8187    0.0512   -1.0141 C   0  0  0  0  0  0  0  0  0  0  0  0
    0.7135   -0.4652   -0.1637 C   0  0  2  0  0  0  0  0  0  0  0  0
    0.3481   -1.8584   -0.5341 C   0  0  0  0  0  0  0  0  0  0  0  0
    0.9784   -2.8845    0.0505 C   0  0  0  0  0  0  0  0  0  0  0  0
   -0.7257   -2.1234   -1.5600 C   0  0  0  0  0  0  0  0  0  0  0  0
   -1.9595   -1.2696   -1.3035 C   0  0  0  0  0  0  0  0  0  0  0  0
   -1.7107   -0.5084   -0.0020 C   0  0  2  0  0  0  0  0  0  0  0  0
   -2.9464    0.0758    0.5879 C   0  0  2  0  0  0  0  0  0  0  0  0
   -3.5812   -0.9945    1.4933 C   0  0  0  0  0  0  0  0  0  0  0  0
   -4.0299    0.4101   -0.4126 C   0  0  0  0  0  0  0  0  0  0  0  0
   -5.1591    0.9552    0.2263 O   0  0  0  0  0  0  0  0  0  0  0  0
   -2.6837    1.2382    1.4829 C   0  0  2  0  0  0  0  0  0  0  0  0
   -3.8070    1.9507    1.8088 O   0  0  0  0  0  0  0  0  0  0  0  0
   -1.6645    2.2213    0.9494 C   0  0  0  0  0  0  0  0  0  0  0  0
   -0.3719    1.4405    0.8318 C   0  0  0  0  0  0  0  0  0  0  0  0
   -0.5574    0.3981   -0.2224 C   0  0  1  0  0  0  0  0  0  0  0  0
   -0.5635    1.1023   -1.5717 C   0  0  0  0  0  0  0  0  0  0  0  0
    4.1445   -0.3862   -0.3177 C   0  0  0  0  0  0  0  0  0  0  0  0
    5.3867   -1.1106   -0.0433 C   0  0  0  0  0  0  0  0  0  0  0  0
    5.5399   -2.3226   -0.3317 O   0  0  0  0  0  0  0  0  0  0  0  0
    6.3080   -0.2651    0.5571 O   0  0  0  0  0  0  0  0  0  0  0  0
    5.6560    0.9411    0.9033 C   0  0  0  0  0  0  0  0  0  0  0  0
    4.4264    1.0405    0.0606 C   0  0  1  0  0  0  0  0  0  0  0  0
    4.7474    1.7417   -1.1052 O   0  0  0  0  0  0  0  0  0  0  0  0
    2.9692   -1.9087   -1.0168 H   0  0  0  0  0  0  0  0  0  0  0  0
    1.5757   -0.0724   -2.1108 H   0  0  0  0  0  0  0  0  0  0  0  0
    2.1065    1.0814   -0.8114 H   0  0  0  0  0  0  0  0  0  0  0  0
    1.1045   -0.4708    0.8948 H   0  0  0  0  0  0  0  0  0  0  0  0
    0.9628   -3.9609    0.0186 H   0  0  0  0  0  0  0  0  0  0  0  0
    1.5092   -3.6701    0.5441 H   0  0  0  0  0  0  0  0  0  0  0  0
   -0.9739   -3.2164   -1.5137 H   0  0  0  0  0  0  0  0  0  0  0  0
   -0.2834   -1.9670   -2.5589 H   0  0  0  0  0  0  0  0  0  0  0  0
   -2.1014   -0.6226   -2.1695 H   0  0  0  0  0  0  0  0  0  0  0  0
   -2.8198   -1.9780   -1.1500 H   0  0  0  0  0  0  0  0  0  0  0  0
   -1.3474   -1.3170    0.7023 H   0  0  0  0  0  0  0  0  0  0  0  0
   -4.2067   -1.6862    0.8996 H   0  0  0  0  0  0  0  0  0  0  0  0
   -4.1574   -0.4964    2.2994 H   0  0  0  0  0  0  0  0  0  0  0  0
   -2.7799   -1.5815    1.9955 H   0  0  0  0  0  0  0  0  0  0  0  0
   -3.6863    1.0580   -1.2344 H   0  0  0  0  0  0  0  0  0  0  0  0
   -4.4044   -0.5178   -0.9127 H   0  0  0  0  0  0  0  0  0  0  0  0
   -5.4196    0.4579    1.0131 H   0  0  0  0  0  0  0  0  0  0  0  0
   -2.2245    0.8139    2.4204 H   0  0  0  0  0  0  0  0  0  0  0  0
   -3.8239    2.1236    2.8024 H   0  0  0  0  0  0  0  0  0  0  0  0
   -1.9802    2.6174   -0.0333 H   0  0  0  0  0  0  0  0  0  0  0  0
   -1.5771    3.0380    1.6977 H   0  0  0  0  0  0  0  0  0  0  0  0
   -0.1739    0.9482    1.8062 H   0  0  0  0  0  0  0  0  0  0  0  0
    0.4421    2.1139    0.5129 H   0  0  0  0  0  0  0  0  0  0  0  0
   -0.3737    0.4237   -2.4156 H   0  0  0  0  0  0  0  0  0  0  0  0
    0.3103    1.8141   -1.5700 H   0  0  0  0  0  0  0  0  0  0  0  0
   -1.4493    1.7010   -1.7653 H   0  0  0  0  0  0  0  0  0  0  0  0
    5.4134    0.9296    1.9833 H   0  0  0  0  0  0  0  0  0  0  0  0
    6.3550    1.7868    0.6906 H   0  0  0  0  0  0  0  0  0  0  0  0
    3.5651    1.4905    0.5805 H   0  0  0  0  0  0  0  0  0  0  0  0
    4.1765    2.5404   -1.1687 H   0  0  0  0  0  0  0  0  0  0  0  0
  1  2  1  0
  2  3  1  0
  3  4  1  0
  4  5  2  0
  4  6  1  0
  6  7  1  0
  7  8  1  0
  8  9  1  0
  9 10  1  1
  9 11  1  0
 11 12  1  0
  9 13  1  0
 13 14  1  0
 13 15  1  0
 15 16  1  0
 16 17  1  0
 17 18  1  6
  1 19  2  0
 19 20  1  0
 20 21  2  0
 20 22  1  0
 22 23  1  0
 23 24  1  0
 24 25  1  0
 17  3  1  0
 24 19  1  0
 17  8  1  0
  1 26  1  0
  2 27  1  0
  2 28  1  0
  3 29  1  1
  5 30  1  0
  5 31  1  0
  6 32  1  0
  6 33  1  0
  7 34  1  0
  7 35  1  0
  8 36  1  1
 10 37  1  0
 10 38  1  0
 10 39  1  0
 11 40  1  0
 11 41  1  0
 12 42  1  0
 13 43  1  1
 14 44  1  0
 15 45  1  0
 15 46  1  0
 16 47  1  0
 16 48  1  0
 18 49  1  0
 18 50  1  0
 18 51  1  0
 23 52  1  0
 23 53  1  0
 24 54  1  1
 25 55  1  0
M  END
$$$$
