@<TRIPOS>MOLECULE
*****
 55 59 0 0 0
SMALL
GASTEIGER

@<TRIPOS>ATOM
      1 C          -5.0691    0.7265    0.4661 C.3     1  UNL1        0.0730
      2 C          -5.8277    0.3705   -0.7749 C.3     1  UNL1       -0.0319
      3 C          -6.0918   -1.1067   -0.9161 C.3     1  UNL1       -0.0503
      4 C          -6.5251   -1.7700    0.3458 C.3     1  UNL1       -0.0404
      5 C          -6.7325   -0.7653    1.4170 C.3     1  UNL1       -0.0037
      6 N          -5.6936    0.1649    1.6147 N.3     1  UNL1       -0.3082
      7 C          -3.6236    0.3519    0.5051 C.3     1  UNL1        0.2789
      8 F          -3.1109    0.7618    1.7211 F       1  UNL1       -0.2023
      9 F          -3.5302   -1.0347    0.5516 F       1  UNL1       -0.2023
     10 C          -2.7738    0.8747   -0.5741 C.3     1  UNL1        0.0754
     11 N          -1.4025    0.4468   -0.4412 N.pl3   1  UNL1       -0.3215
     12 C          -0.4366    0.7486    0.5690 C.ar    1  UNL1        0.1482
     13 N          -0.6661    1.5416    1.6171 N.ar    1  UNL1       -0.2381
     14 C           0.2123    1.8538    2.5788 C.ar    1  UNL1        0.0333
     15 C           1.4703    1.3412    2.5293 C.ar    1  UNL1        0.0011
     16 C           1.7942    0.5114    1.4802 C.ar    1  UNL1        0.1602
     17 C           0.8587    0.2198    0.5169 C.ar    1  UNL1        0.1490
     18 N           1.4709   -0.5943   -0.3459 N.ar    1  UNL1       -0.2095
     19 C           2.7402   -0.8141    0.0468 C.ar    1  UNL1        0.2012
     20 C           3.7224   -1.6776   -0.6801 C.3     1  UNL1        0.0511
     21 C           4.4737   -0.8530   -1.6395 C.ar    1  UNL1       -0.0131
     22 C           4.2560   -0.8310   -2.9849 C.ar    1  UNL1       -0.0561
     23 C           5.0392   -0.0038   -3.7542 C.ar    1  UNL1       -0.0614
     24 C           6.0371    0.8126   -3.2675 C.ar    1  UNL1       -0.0597
     25 C           6.2333    0.7670   -1.8954 C.ar    1  UNL1       -0.0359
     26 C           5.4631   -0.0571   -1.0713 C.ar    1  UNL1        0.0707
     27 N           5.8359    0.0515    0.3022 N.ar    1  UNL1       -0.2200
     28 C           5.8928    1.0697    1.1764 C.ar    1  UNL1        0.1199
     29 N           6.3245    0.6061    2.3681 N.ar    1  UNL1       -0.2224
     30 C           6.5254   -0.7105    2.1905 C.ar    1  UNL1        0.1384
     31 N           6.2273   -1.0481    0.9310 N.ar    1  UNL1       -0.1535
     32 O           2.8712   -0.1206    1.1515 O.2     1  UNL1       -0.4392
     33 H          -5.1416    1.8335    0.5642 H       1  UNL1        0.0520
     34 H          -5.4015    0.7706   -1.6953 H       1  UNL1        0.0282
     35 H          -6.8276    0.8456   -0.6535 H       1  UNL1        0.0282
     36 H          -6.8441   -1.2473   -1.7208 H       1  UNL1        0.0266
     37 H          -5.1898   -1.6539   -1.3029 H       1  UNL1        0.0266
     38 H          -5.8790   -2.6303    0.6503 H       1  UNL1        0.0277
     39 H          -7.5261   -2.2593    0.1730 H       1  UNL1        0.0277
     40 H          -6.8467   -1.3457    2.3796 H       1  UNL1        0.0424
     41 H          -7.7043   -0.2656    1.2356 H       1  UNL1        0.0424
     42 H          -5.7168    0.7204    2.4682 H       1  UNL1        0.1224
     43 H          -3.1024    0.6553   -1.6004 H       1  UNL1        0.0521
     44 H          -2.7183    2.0084   -0.5461 H       1  UNL1        0.0521
     45 H          -1.0264   -0.1983   -1.2036 H       1  UNL1        0.1477
     46 H          -0.1879    2.5246    3.3497 H       1  UNL1        0.0831
     47 H           2.1555    1.5975    3.2987 H       1  UNL1        0.0670
     48 H           4.3737   -2.2254    0.0152 H       1  UNL1        0.0409
     49 H           3.1457   -2.4297   -1.2608 H       1  UNL1        0.0409
     50 H           3.4873   -1.4544   -3.3916 H       1  UNL1        0.0621
     51 H           4.8455   -0.0039   -4.8221 H       1  UNL1        0.0618
     52 H           6.6202    1.4413   -3.9207 H       1  UNL1        0.0618
     53 H           7.0329    1.4256   -1.5343 H       1  UNL1        0.0639
     54 H           5.6095    2.0653    0.8566 H       1  UNL1        0.1048
     55 H           6.8773   -1.4368    2.9273 H       1  UNL1        0.1066
@<TRIPOS>BOND
     1     1     2    1
     2     2     3    1
     3     3     4    1
     4     4     5    1
     5     5     6    1
     6     1     7    1
     7     7     8    1
     8     7     9    1
     9     7    10    1
    10    10    11    1
    11    11    12    1
    12    12    13   ar
    13    13    14   ar
    14    14    15   ar
    15    15    16   ar
    16    16    17   ar
    17    17    18   ar
    18    18    19   ar
    19    19    20    1
    20    20    21    1
    21    21    22   ar
    22    22    23   ar
    23    23    24   ar
    24    24    25   ar
    25    25    26   ar
    26    26    27    1
    27    27    28   ar
    28    28    29   ar
    29    29    30   ar
    30    30    31   ar
    31    19    32   ar
    32     6     1    1
    33    17    12   ar
    34    26    21   ar
    35    31    27   ar
    36    32    16   ar
    37     1    33    1
    38     2    34    1
    39     2    35    1
    40     3    36    1
    41     3    37    1
    42     4    38    1
    43     4    39    1
    44     5    40    1
    45     5    41    1
    46     6    42    1
    47    10    43    1
    48    10    44    1
    49    11    45    1
    50    14    46    1
    51    15    47    1
    52    20    48    1
    53    20    49    1
    54    22    50    1
    55    23    51    1
    56    24    52    1
    57    25    53    1
    58    28    54    1
    59    30    55    1
