@<TRIPOS>MOLECULE
*****
 28 30 0 0 0
SMALL
GASTEIGER

@<TRIPOS>ATOM
      1 O           4.4966   -2.3785    0.9369 O.2     1  UNL1       -0.2451
      2 C           4.5701   -1.1647    0.6547 C.2     1  UNL1        0.3368
      3 O           5.7935   -0.5342    0.7626 O.3     1  UNL1       -0.4771
      4 C           3.3852   -0.3863    0.2090 C.ar    1  UNL1        0.0595
      5 C           3.5658    0.9403   -0.0758 C.ar    1  UNL1       -0.0467
      6 C           2.4613    1.6487   -0.4882 C.ar    1  UNL1       -0.0466
      7 C           1.2210    0.9966   -0.5978 C.ar    1  UNL1        0.0197
      8 S          -0.3974    1.5372   -1.0809 S.2     1  UNL1       -0.0914
      9 C          -1.2224   -0.0007   -0.8843 C.ar    1  UNL1        0.0106
     10 C          -2.6322   -0.1943   -1.1428 C.3     1  UNL1        0.0553
     11 N          -3.4874    0.0348    0.0149 N.ar    1  UNL1       -0.3320
     12 C          -4.0434    1.2179    0.3607 C.ar    1  UNL1        0.0244
     13 C          -4.7892    1.0653    1.5089 C.ar    1  UNL1        0.0454
     14 N          -4.6664   -0.2316    1.8400 N.ar    1  UNL1       -0.2441
     15 C          -3.8818   -0.8391    0.9341 C.ar    1  UNL1        0.0962
     16 C          -0.2162   -0.8230   -0.4651 C.ar    1  UNL1       -0.0420
     17 C           1.0230   -0.3412   -0.3140 C.ar    1  UNL1       -0.0097
     18 C           2.1825   -1.0128    0.1014 C.ar    1  UNL1       -0.0395
     19 H           6.6621   -1.0710    0.6501 H       1  UNL1        0.2954
     20 H           4.4962    1.4376    0.0044 H       1  UNL1        0.0626
     21 H           2.5158    2.6982   -0.7327 H       1  UNL1        0.0629
     22 H          -2.8057   -1.1996   -1.5305 H       1  UNL1        0.0547
     23 H          -2.9734    0.5225   -1.9200 H       1  UNL1        0.0547
     24 H          -3.9260    2.1505   -0.1775 H       1  UNL1        0.0825
     25 H          -5.3646    1.7924    2.0624 H       1  UNL1        0.0845
     26 H          -3.6363   -1.8845    0.9873 H       1  UNL1        0.1029
     27 H          -0.4951   -1.8965   -0.2634 H       1  UNL1        0.0632
     28 H           2.1640   -2.0839    0.3590 H       1  UNL1        0.0632
@<TRIPOS>BOND
     1     1     2    2
     2     2     3    1
     3     2     4    1
     4     4     5   ar
     5     5     6   ar
     6     6     7   ar
     7     7     8   ar
     8     8     9   ar
     9     9    10    1
    10    10    11    1
    11    11    12   ar
    12    12    13   ar
    13    13    14   ar
    14    14    15   ar
    15     9    16   ar
    16    16    17   ar
    17    17    18   ar
    18    18     4   ar
    19    17     7   ar
    20    15    11   ar
    21     3    19    1
    22     5    20    1
    23     6    21    1
    24    10    22    1
    25    10    23    1
    26    12    24    1
    27    13    25    1
    28    15    26    1
    29    16    27    1
    30    18    28    1
