
     RDKit          3D

 28 30  0  0  0  0  0  0  0  0999 V2000
    4.4966   -2.3785    0.9369 O   0  0  0  0  0  0  0  0  0  0  0  0
    4.5701   -1.1647    0.6547 C   0  0  0  0  0  0  0  0  0  0  0  0
    5.7935   -0.5342    0.7626 O   0  0  0  0  0  0  0  0  0  0  0  0
    3.3852   -0.3863    0.2090 C   0  0  0  0  0  0  0  0  0  0  0  0
    3.5658    0.9403   -0.0758 C   0  0  0  0  0  0  0  0  0  0  0  0
    2.4613    1.6487   -0.4882 C   0  0  0  0  0  0  0  0  0  0  0  0
    1.2210    0.9966   -0.5978 C   0  0  0  0  0  0  0  0  0  0  0  0
   -0.3974    1.5372   -1.0809 S   0  0  0  0  0  0  0  0  0  0  0  0
   -1.2224   -0.0007   -0.8843 C   0  0  0  0  0  0  0  0  0  0  0  0
   -2.6322   -0.1943   -1.1428 C   0  0  0  0  0  0  0  0  0  0  0  0
   -3.4874    0.0348    0.0149 N   0  0  0  0  0  0  0  0  0  0  0  0
   -4.0434    1.2179    0.3607 C   0  0  0  0  0  0  0  0  0  0  0  0
   -4.7892    1.0653    1.5089 C   0  0  0  0  0  0  0  0  0  0  0  0
   -4.6664   -0.2316    1.8400 N   0  0  0  0  0  0  0  0  0  0  0  0
   -3.8818   -0.8391    0.9341 C   0  0  0  0  0  0  0  0  0  0  0  0
   -0.2162   -0.8230   -0.4651 C   0  0  0  0  0  0  0  0  0  0  0  0
    1.0230   -0.3412   -0.3140 C   0  0  0  0  0  0  0  0  0  0  0  0
    2.1825   -1.0128    0.1014 C   0  0  0  0  0  0  0  0  0  0  0  0
    6.6621   -1.0710    0.6501 H   0  0  0  0  0  0  0  0  0  0  0  0
    4.4962    1.4376    0.0044 H   0  0  0  0  0  0  0  0  0  0  0  0
    2.5158    2.6982   -0.7327 H   0  0  0  0  0  0  0  0  0  0  0  0
   -2.8057   -1.1996   -1.5305 H   0  0  0  0  0  0  0  0  0  0  0  0
   -2.9734    0.5225   -1.9200 H   0  0  0  0  0  0  0  0  0  0  0  0
   -3.9260    2.1505   -0.1775 H   0  0  0  0  0  0  0  0  0  0  0  0
   -5.3646    1.7924    2.0624 H   0  0  0  0  0  0  0  0  0  0  0  0
   -3.6363   -1.8845    0.9873 H   0  0  0  0  0  0  0  0  0  0  0  0
   -0.4951   -1.8965   -0.2634 H   0  0  0  0  0  0  0  0  0  0  0  0
    2.1640   -2.0839    0.3590 H   0  0  0  0  0  0  0  0  0  0  0  0
  1  2  2  0
  2  3  1  0
  2  4  1  0
  4  5  2  0
  5  6  1  0
  6  7  2  0
  7  8  1  0
  8  9  1  0
  9 10  1  0
 10 11  1  0
 11 12  1  0
 12 13  2  0
 13 14  1  0
 14 15  2  0
  9 16  2  0
 16 17  1  0
 17 18  2  0
 18  4  1  0
 17  7  1  0
 15 11  1  0
  3 19  1  0
  5 20  1  0
  6 21  1  0
 10 22  1  0
 10 23  1  0
 12 24  1  0
 13 25  1  0
 15 26  1  0
 16 27  1  0
 18 28  1  0
M  END
$$$$
