
     RDKit          3D

 40 41  0  0  0  0  0  0  0  0999 V2000
   -1.1383   -2.3707    0.7026 C   0  0  0  0  0  0  0  0  0  0  0  0
   -0.4234   -1.1779    1.3582 C   0  0  0  0  0  0  0  0  0  0  0  0
   -0.4807   -0.1003    0.3385 C   0  0  0  0  0  0  0  0  0  0  0  0
    0.5678    0.4529   -0.2271 C   0  0  0  0  0  0  0  0  0  0  0  0
    0.4705    1.5270   -1.2296 C   0  0  0  0  0  0  0  0  0  0  0  0
    1.0901    1.1327   -2.5531 C   0  0  0  0  0  0  0  0  0  0  0  0
    1.9253    0.0193    0.0543 C   0  0  0  0  0  0  0  0  0  0  0  0
    2.4055   -1.2499    0.0988 C   0  0  0  0  0  0  0  0  0  0  0  0
    3.7005   -1.6402    0.4007 C   0  0  0  0  0  0  0  0  0  0  0  0
    4.6060   -0.6372    0.6875 C   0  0  0  0  0  0  0  0  0  0  0  0
    5.9112   -0.9903    0.9945 O   0  0  0  0  0  0  0  0  0  0  0  0
    4.1734    0.6882    0.6573 C   0  0  0  0  0  0  0  0  0  0  0  0
    2.8499    1.0117    0.3443 C   0  0  0  0  0  0  0  0  0  0  0  0
   -1.8548    0.2040    0.0169 C   0  0  0  0  0  0  0  0  0  0  0  0
   -2.6917    0.5768    1.0771 C   0  0  0  0  0  0  0  0  0  0  0  0
   -4.0545    0.8706    0.9415 C   0  0  0  0  0  0  0  0  0  0  0  0
   -4.6601    0.7990   -0.3198 C   0  0  0  0  0  0  0  0  0  0  0  0
   -5.9893    1.0923   -0.4085 O   0  0  0  0  0  0  0  0  0  0  0  0
   -3.8081    0.4317   -1.3338 C   0  0  0  0  0  0  0  0  0  0  0  0
   -2.4744    0.1364   -1.2411 C   0  0  0  0  0  0  0  0  0  0  0  0
   -0.4249   -3.0538    0.1991 H   0  0  0  0  0  0  0  0  0  0  0  0
   -1.8965   -1.9988   -0.0236 H   0  0  0  0  0  0  0  0  0  0  0  0
   -1.7262   -2.9394    1.4490 H   0  0  0  0  0  0  0  0  0  0  0  0
   -1.0903   -0.8925    2.2312 H   0  0  0  0  0  0  0  0  0  0  0  0
    0.5713   -1.4180    1.7347 H   0  0  0  0  0  0  0  0  0  0  0  0
    0.9472    2.4844   -0.8920 H   0  0  0  0  0  0  0  0  0  0  0  0
   -0.6176    1.6986   -1.4372 H   0  0  0  0  0  0  0  0  0  0  0  0
    1.7752    1.9001   -2.9683 H   0  0  0  0  0  0  0  0  0  0  0  0
    1.5550    0.1244   -2.4521 H   0  0  0  0  0  0  0  0  0  0  0  0
    0.3018    1.0022   -3.3216 H   0  0  0  0  0  0  0  0  0  0  0  0
    1.7255   -2.0498   -0.1391 H   0  0  0  0  0  0  0  0  0  0  0  0
    3.9631   -2.6725    0.4067 H   0  0  0  0  0  0  0  0  0  0  0  0
    6.7213   -0.4022    0.8878 H   0  0  0  0  0  0  0  0  0  0  0  0
    4.9113    1.4447    0.8855 H   0  0  0  0  0  0  0  0  0  0  0  0
    2.5961    2.0597    0.3400 H   0  0  0  0  0  0  0  0  0  0  0  0
   -2.3133    0.6740    2.1065 H   0  0  0  0  0  0  0  0  0  0  0  0
   -4.6230    1.1545    1.8276 H   0  0  0  0  0  0  0  0  0  0  0  0
   -6.3597    1.8895    0.1168 H   0  0  0  0  0  0  0  0  0  0  0  0
   -4.2731    0.3745   -2.3135 H   0  0  0  0  0  0  0  0  0  0  0  0
   -1.8683   -0.1556   -2.0601 H   0  0  0  0  0  0  0  0  0  0  0  0
  1  2  1  0
  2  3  1  0
  3  4  2  0
  4  5  1  0
  5  6  1  0
  4  7  1  0
  7  8  2  0
  8  9  1  0
  9 10  2  0
 10 11  1  0
 10 12  1  0
 12 13  2  0
  3 14  1  0
 14 15  2  0
 15 16  1  0
 16 17  2  0
 17 18  1  0
 17 19  1  0
 19 20  2  0
 13  7  1  0
 20 14  1  0
  1 21  1  0
  1 22  1  0
  1 23  1  0
  2 24  1  0
  2 25  1  0
  5 26  1  0
  5 27  1  0
  6 28  1  0
  6 29  1  0
  6 30  1  0
  8 31  1  0
  9 32  1  0
 11 33  1  0
 12 34  1  0
 13 35  1  0
 15 36  1  0
 16 37  1  0
 18 38  1  0
 19 39  1  0
 20 40  1  0
M  END
$$$$
