@<TRIPOS>MOLECULE
*****
 51 53 0 0 0
SMALL
GASTEIGER

@<TRIPOS>ATOM
      1 C          -5.8041    1.2232   -1.3343 C.3     1  UNL1        0.0365
      2 O          -5.1547    0.2267   -1.9623 O.3     1  UNL1       -0.3814
      3 C          -5.1120   -1.0216   -1.4610 C.3     1  UNL1        0.0645
      4 C          -4.5211   -1.2783   -0.1507 C.3     1  UNL1        0.0552
      5 C          -5.3937   -0.8736    0.9829 C.3     1  UNL1       -0.0323
      6 C          -4.5306   -0.0178    1.8608 C.3     1  UNL1       -0.0370
      7 C          -3.2360    0.1339    1.1229 C.3     1  UNL1        0.0209
      8 N          -3.1858   -0.8853    0.1125 N.3     1  UNL1       -0.1713
      9 S          -2.1919   -0.4475   -1.1722 S.O2    1  UNL1        0.0612
     10 O          -2.0834   -1.5134   -2.2272 O.2     1  UNL1       -0.1528
     11 O          -2.6187    0.8728   -1.8102 O.2     1  UNL1       -0.1528
     12 C          -0.5649   -0.2357   -0.5324 C.ar    1  UNL1        0.1063
     13 C           0.2458   -1.3482   -0.4957 C.ar    1  UNL1       -0.0335
     14 C           1.5399   -1.3083   -0.0165 C.ar    1  UNL1       -0.0377
     15 C           2.0217   -0.1125    0.4354 C.ar    1  UNL1        0.0477
     16 C           1.2216    1.0016    0.4029 C.ar    1  UNL1        0.0502
     17 C          -0.0819    0.9501   -0.0824 C.ar    1  UNL1       -0.0226
     18 C           1.9841    2.1216    0.9393 C.2     1  UNL1        0.2496
     19 O           1.5959    3.2955    1.0701 O.2     1  UNL1       -0.2817
     20 C           3.3074    1.5607    1.2900 C.2     1  UNL1        0.2913
     21 O           4.2042    2.2955    1.7863 O.2     1  UNL1       -0.2661
     22 N           3.3109    0.1855    0.9727 N.am    1  UNL1       -0.2640
     23 C           4.4245   -0.7133    1.1665 C.3     1  UNL1        0.0226
     24 C           5.3515   -0.8158    0.0016 C.3     1  UNL1       -0.0082
     25 C           6.0034    0.4809   -0.3857 C.3     1  UNL1        0.0848
     26 O           6.7536    0.9589    0.6901 O.3     1  UNL1       -0.3892
     27 C           6.9712    0.2396   -1.5200 C.3     1  UNL1        0.1160
     28 F           7.5494    1.4752   -1.8414 F       1  UNL1       -0.2464
     29 H          -5.6994    2.1368   -2.0378 H       1  UNL1        0.0523
     30 H          -6.8886    1.0934   -1.1723 H       1  UNL1        0.0523
     31 H          -5.3716    1.5586   -0.3539 H       1  UNL1        0.0523
     32 H          -4.7204   -1.6871   -2.2817 H       1  UNL1        0.0576
     33 H          -6.2054   -1.3735   -1.3949 H       1  UNL1        0.0576
     34 H          -4.4604   -2.4476   -0.0319 H       1  UNL1        0.0502
     35 H          -6.2904   -0.2683    0.6692 H       1  UNL1        0.0282
     36 H          -5.7726   -1.7752    1.5608 H       1  UNL1        0.0282
     37 H          -4.2961   -0.5415    2.8161 H       1  UNL1        0.0279
     38 H          -5.0151    0.9758    2.0677 H       1  UNL1        0.0279
     39 H          -3.2490    1.1696    0.6684 H       1  UNL1        0.0444
     40 H          -2.3761    0.0650    1.8297 H       1  UNL1        0.0444
     41 H          -0.1101   -2.3227   -0.8506 H       1  UNL1        0.0638
     42 H           2.1397   -2.2110   -0.0077 H       1  UNL1        0.0637
     43 H          -0.7156    1.8228   -0.1104 H       1  UNL1        0.0645
     44 H           5.0425   -0.4170    2.0506 H       1  UNL1        0.0469
     45 H           4.0450   -1.7328    1.4216 H       1  UNL1        0.0469
     46 H           6.1833   -1.5029    0.3181 H       1  UNL1        0.0306
     47 H           4.8915   -1.3166   -0.8775 H       1  UNL1        0.0306
     48 H           5.2571    1.2256   -0.7164 H       1  UNL1        0.0619
     49 H           7.2993    1.7366    0.3477 H       1  UNL1        0.2099
     50 H           6.4971   -0.2166   -2.4074 H       1  UNL1        0.0641
     51 H           7.8087   -0.4220   -1.2179 H       1  UNL1        0.0641
@<TRIPOS>BOND
     1     1     2    1
     2     2     3    1
     3     3     4    1
     4     4     5    1
     5     5     6    1
     6     6     7    1
     7     7     8    1
     8     8     9    1
     9     9    10    2
    10     9    11    2
    11     9    12    1
    12    12    13   ar
    13    13    14   ar
    14    14    15   ar
    15    15    16   ar
    16    16    17   ar
    17    16    18    1
    18    18    19    2
    19    18    20    1
    20    20    21    2
    21    20    22   am
    22    22    23    1
    23    23    24    1
    24    24    25    1
    25    25    26    1
    26    25    27    1
    27    27    28    1
    28     8     4    1
    29    17    12   ar
    30    22    15    1
    31     1    29    1
    32     1    30    1
    33     1    31    1
    34     3    32    1
    35     3    33    1
    36     4    34    1
    37     5    35    1
    38     5    36    1
    39     6    37    1
    40     6    38    1
    41     7    39    1
    42     7    40    1
    43    13    41    1
    44    14    42    1
    45    17    43    1
    46    23    44    1
    47    23    45    1
    48    24    46    1
    49    24    47    1
    50    25    48    1
    51    26    49    1
    52    27    50    1
    53    27    51    1
