@<TRIPOS>MOLECULE
*****
 85 87 0 0 0
SMALL
GASTEIGER

@<TRIPOS>ATOM
      1 C          -2.7147   -6.7279    2.5059 C.3     1  UNL1       -0.0552
      2 C          -1.8210   -5.5113    2.7015 C.3     1  UNL1        0.0422
      3 C          -2.4636   -4.3167    2.1113 C.2     1  UNL1        0.3090
      4 O          -3.4021   -3.7733    2.7668 O.2     1  UNL1       -0.2508
      5 O          -1.9492   -3.9253    0.8812 O.3     1  UNL1       -0.4345
      6 C          -2.4447   -2.7926    0.1585 C.3     1  UNL1        0.2132
      7 O          -1.3491   -1.9881   -0.1268 O.3     1  UNL1       -0.2860
      8 P          -1.5321   -0.4186    0.4245 P.3     1  UNL1        0.2162
      9 O          -2.2581   -0.3698    1.7516 O.2     1  UNL1       -0.2902
     10 C          -2.4421    0.5370   -0.8218 C.3     1  UNL1        0.0250
     11 C          -3.9409    0.4918   -0.6008 C.3     1  UNL1       -0.0440
     12 C          -4.6420    1.3041   -1.6590 C.3     1  UNL1       -0.0486
     13 C          -4.2555    2.7595   -1.6570 C.3     1  UNL1       -0.0277
     14 C          -4.5665    3.4462   -0.3951 C.ar    1  UNL1       -0.0474
     15 C          -3.7706    3.5984    0.7188 C.ar    1  UNL1       -0.0586
     16 C          -4.1733    4.2629    1.8484 C.ar    1  UNL1       -0.0615
     17 C          -5.4279    4.8208    1.9139 C.ar    1  UNL1       -0.0617
     18 C          -6.2843    4.7060    0.8276 C.ar    1  UNL1       -0.0615
     19 C          -5.8206    4.0248   -0.2814 C.ar    1  UNL1       -0.0586
     20 C           0.1145    0.3326    0.5580 C.3     1  UNL1        0.1011
     21 C           0.8521    0.0308   -0.6919 C.2     1  UNL1        0.2256
     22 O          -0.0739   -0.6242   -1.2318 O.2     1  UNL1       -0.2750
     23 N           2.1717    0.5236   -0.8214 N.am    1  UNL1       -0.2873
     24 C           2.9294    1.3210    0.1552 C.3     1  UNL1        0.0187
     25 C           4.2565    0.5936    0.2205 C.3     1  UNL1       -0.0202
     26 C           4.3161   -0.2291   -1.0712 C.3     1  UNL1       -0.0194
     27 C           3.1857    0.4466   -1.8522 C.3     1  UNL1        0.1231
     28 C           2.8015   -0.3410   -3.0247 C.2     1  UNL1        0.3255
     29 O           3.7036   -0.4647   -4.0444 O.3     1  UNL1       -0.4793
     30 O           1.6769   -0.9286   -3.1717 O.2     1  UNL1       -0.2489
     31 C           5.4188    1.5649    0.1290 C.3     1  UNL1       -0.0367
     32 C           6.6860    0.8093    0.1959 C.3     1  UNL1       -0.0499
     33 C           7.7820    1.4696    0.9930 C.3     1  UNL1       -0.0528
     34 C           7.6572    2.9596    0.7035 C.3     1  UNL1       -0.0530
     35 C           6.4531    3.3809    1.5454 C.3     1  UNL1       -0.0528
     36 C           5.2235    2.6666    1.1018 C.3     1  UNL1       -0.0499
     37 C          -2.9215   -3.3690   -1.1797 C.3     1  UNL1        0.0164
     38 C          -1.7060   -4.0028   -1.8194 C.3     1  UNL1       -0.0570
     39 C          -4.0188   -4.3641   -1.0046 C.3     1  UNL1       -0.0570
     40 H          -3.7012   -6.4692    2.9414 H       1  UNL1        0.0235
     41 H          -2.8748   -6.8309    1.4028 H       1  UNL1        0.0235
     42 H          -2.2388   -7.5949    2.9643 H       1  UNL1        0.0235
     43 H          -1.6979   -5.3368    3.7902 H       1  UNL1        0.0375
     44 H          -0.8364   -5.7551    2.2943 H       1  UNL1        0.0375
     45 H          -3.2587   -2.2956    0.6940 H       1  UNL1        0.1063
     46 H          -2.0353    1.5437   -0.8988 H       1  UNL1        0.0364
     47 H          -2.2287    0.0500   -1.8201 H       1  UNL1        0.0364
     48 H          -4.3202   -0.5282   -0.5319 H       1  UNL1        0.0270
     49 H          -4.1109    1.0187    0.3693 H       1  UNL1        0.0270
     50 H          -4.2918    0.9020   -2.6521 H       1  UNL1        0.0269
     51 H          -5.7318    1.1779   -1.6472 H       1  UNL1        0.0269
     52 H          -3.1823    2.8622   -1.9447 H       1  UNL1        0.0313
     53 H          -4.8344    3.2306   -2.4803 H       1  UNL1        0.0313
     54 H          -2.7937    3.1643    0.6648 H       1  UNL1        0.0620
     55 H          -3.4944    4.3467    2.6934 H       1  UNL1        0.0618
     56 H          -5.7028    5.3344    2.8211 H       1  UNL1        0.0618
     57 H          -7.2586    5.1337    0.8659 H       1  UNL1        0.0618
     58 H          -6.5329    3.9642   -1.1065 H       1  UNL1        0.0620
     59 H           0.6082   -0.1238    1.4410 H       1  UNL1        0.0459
     60 H           0.0446    1.4296    0.7412 H       1  UNL1        0.0459
     61 H           3.0447    2.3275   -0.2684 H       1  UNL1        0.0467
     62 H           2.4155    1.3924    1.1161 H       1  UNL1        0.0467
     63 H           4.2984   -0.0811    1.0760 H       1  UNL1        0.0319
     64 H           4.0644   -1.2839   -0.8825 H       1  UNL1        0.0292
     65 H           5.2321   -0.0694   -1.6430 H       1  UNL1        0.0292
     66 H           3.4816    1.4840   -2.0901 H       1  UNL1        0.0616
     67 H           3.3482   -0.7242   -4.9772 H       1  UNL1        0.2951
     68 H           5.3410    1.9956   -0.9045 H       1  UNL1        0.0304
     69 H           6.5641   -0.2015    0.6399 H       1  UNL1        0.0268
     70 H           7.1205    0.6120   -0.8192 H       1  UNL1        0.0268
     71 H           8.7502    1.0558    0.6745 H       1  UNL1        0.0265
     72 H           7.6133    1.2852    2.0942 H       1  UNL1        0.0265
     73 H           7.3956    3.0644   -0.3832 H       1  UNL1        0.0265
     74 H           8.5375    3.5244    0.9980 H       1  UNL1        0.0265
     75 H           6.3729    4.4915    1.4693 H       1  UNL1        0.0265
     76 H           6.7190    3.0899    2.5828 H       1  UNL1        0.0265
     77 H           4.5352    3.4509    0.6734 H       1  UNL1        0.0268
     78 H           4.6842    2.3114    2.0058 H       1  UNL1        0.0268
     79 H          -3.2192   -2.5387   -1.8779 H       1  UNL1        0.0356
     80 H          -1.9759   -4.8484   -2.4850 H       1  UNL1        0.0234
     81 H          -1.0644   -3.2525   -2.3298 H       1  UNL1        0.0234
     82 H          -1.0745   -4.4171   -1.0055 H       1  UNL1        0.0234
     83 H          -4.9464   -3.9414   -1.4646 H       1  UNL1        0.0234
     84 H          -4.2486   -4.5982    0.0549 H       1  UNL1        0.0234
     85 H          -3.7667   -5.2556   -1.6133 H       1  UNL1        0.0234
@<TRIPOS>BOND
     1     1     2    1
     2     2     3    1
     3     3     4    2
     4     3     5    1
     5     5     6    1
     6     6     7    1
     7     8     7    1
     8     8     9    2
     9     8    10    1
    10    10    11    1
    11    11    12    1
    12    12    13    1
    13    13    14    1
    14    14    15   ar
    15    15    16   ar
    16    16    17   ar
    17    17    18   ar
    18    18    19   ar
    19     8    20    1
    20    20    21    1
    21    21    22    2
    22    21    23   am
    23    23    24    1
    24    24    25    1
    25    25    26    1
    26    26    27    1
    27    27    28    1
    28    28    29    1
    29    28    30    2
    30    25    31    1
    31    31    32    1
    32    32    33    1
    33    33    34    1
    34    34    35    1
    35    35    36    1
    36     6    37    1
    37    37    38    1
    38    37    39    1
    39    19    14   ar
    40    27    23    1
    41    36    31    1
    42     1    40    1
    43     1    41    1
    44     1    42    1
    45     2    43    1
    46     2    44    1
    47     6    45    1
    48    10    46    1
    49    10    47    1
    50    11    48    1
    51    11    49    1
    52    12    50    1
    53    12    51    1
    54    13    52    1
    55    13    53    1
    56    15    54    1
    57    16    55    1
    58    17    56    1
    59    18    57    1
    60    19    58    1
    61    20    59    1
    62    20    60    1
    63    24    61    1
    64    24    62    1
    65    25    63    1
    66    26    64    1
    67    26    65    1
    68    27    66    1
    69    29    67    1
    70    31    68    1
    71    32    69    1
    72    32    70    1
    73    33    71    1
    74    33    72    1
    75    34    73    1
    76    34    74    1
    77    35    75    1
    78    35    76    1
    79    36    77    1
    80    36    78    1
    81    37    79    1
    82    38    80    1
    83    38    81    1
    84    38    82    1
    85    39    83    1
    86    39    84    1
    87    39    85    1
