
     RDKit          3D

 85 87  0  0  0  0  0  0  0  0999 V2000
   -2.7147   -6.7279    2.5059 C   0  0  0  0  0  0  0  0  0  0  0  0
   -1.8210   -5.5113    2.7015 C   0  0  0  0  0  0  0  0  0  0  0  0
   -2.4636   -4.3167    2.1113 C   0  0  0  0  0  0  0  0  0  0  0  0
   -3.4021   -3.7733    2.7668 O   0  0  0  0  0  0  0  0  0  0  0  0
   -1.9492   -3.9253    0.8812 O   0  0  0  0  0  0  0  0  0  0  0  0
   -2.4447   -2.7926    0.1585 C   0  0  1  0  0  0  0  0  0  0  0  0
   -1.3491   -1.9881   -0.1268 O   0  0  0  0  0  0  0  0  0  0  0  0
   -1.5321   -0.4186    0.4245 P   0  0  2  0  0  5  0  0  0  0  0  0
   -2.2581   -0.3698    1.7516 O   0  0  0  0  0  0  0  0  0  0  0  0
   -2.4421    0.5370   -0.8218 C   0  0  0  0  0  0  0  0  0  0  0  0
   -3.9409    0.4918   -0.6008 C   0  0  0  0  0  0  0  0  0  0  0  0
   -4.6420    1.3041   -1.6590 C   0  0  0  0  0  0  0  0  0  0  0  0
   -4.2555    2.7595   -1.6570 C   0  0  0  0  0  0  0  0  0  0  0  0
   -4.5665    3.4462   -0.3951 C   0  0  0  0  0  0  0  0  0  0  0  0
   -3.7706    3.5984    0.7188 C   0  0  0  0  0  0  0  0  0  0  0  0
   -4.1733    4.2629    1.8484 C   0  0  0  0  0  0  0  0  0  0  0  0
   -5.4279    4.8208    1.9139 C   0  0  0  0  0  0  0  0  0  0  0  0
   -6.2843    4.7060    0.8276 C   0  0  0  0  0  0  0  0  0  0  0  0
   -5.8206    4.0248   -0.2814 C   0  0  0  0  0  0  0  0  0  0  0  0
    0.1145    0.3326    0.5580 C   0  0  0  0  0  0  0  0  0  0  0  0
    0.8521    0.0308   -0.6919 C   0  0  0  0  0  0  0  0  0  0  0  0
   -0.0739   -0.6242   -1.2318 O   0  0  0  0  0  0  0  0  0  0  0  0
    2.1717    0.5236   -0.8214 N   0  0  0  0  0  0  0  0  0  0  0  0
    2.9294    1.3210    0.1552 C   0  0  0  0  0  0  0  0  0  0  0  0
    4.2565    0.5936    0.2205 C   0  0  1  0  0  0  0  0  0  0  0  0
    4.3161   -0.2291   -1.0712 C   0  0  0  0  0  0  0  0  0  0  0  0
    3.1857    0.4466   -1.8522 C   0  0  1  0  0  0  0  0  0  0  0  0
    2.8015   -0.3410   -3.0247 C   0  0  0  0  0  0  0  0  0  0  0  0
    3.7036   -0.4647   -4.0444 O   0  0  0  0  0  0  0  0  0  0  0  0
    1.6769   -0.9286   -3.1717 O   0  0  0  0  0  0  0  0  0  0  0  0
    5.4188    1.5649    0.1290 C   0  0  0  0  0  0  0  0  0  0  0  0
    6.6860    0.8093    0.1959 C   0  0  0  0  0  0  0  0  0  0  0  0
    7.7820    1.4696    0.9930 C   0  0  0  0  0  0  0  0  0  0  0  0
    7.6572    2.9596    0.7035 C   0  0  0  0  0  0  0  0  0  0  0  0
    6.4531    3.3809    1.5454 C   0  0  0  0  0  0  0  0  0  0  0  0
    5.2235    2.6666    1.1018 C   0  0  0  0  0  0  0  0  0  0  0  0
   -2.9215   -3.3690   -1.1797 C   0  0  0  0  0  0  0  0  0  0  0  0
   -1.7060   -4.0028   -1.8194 C   0  0  0  0  0  0  0  0  0  0  0  0
   -4.0188   -4.3641   -1.0046 C   0  0  0  0  0  0  0  0  0  0  0  0
   -3.7012   -6.4692    2.9414 H   0  0  0  0  0  0  0  0  0  0  0  0
   -2.8748   -6.8309    1.4028 H   0  0  0  0  0  0  0  0  0  0  0  0
   -2.2388   -7.5949    2.9643 H   0  0  0  0  0  0  0  0  0  0  0  0
   -1.6979   -5.3368    3.7902 H   0  0  0  0  0  0  0  0  0  0  0  0
   -0.8364   -5.7551    2.2943 H   0  0  0  0  0  0  0  0  0  0  0  0
   -3.2587   -2.2956    0.6940 H   0  0  0  0  0  0  0  0  0  0  0  0
   -2.0353    1.5437   -0.8988 H   0  0  0  0  0  0  0  0  0  0  0  0
   -2.2287    0.0500   -1.8201 H   0  0  0  0  0  0  0  0  0  0  0  0
   -4.3202   -0.5282   -0.5319 H   0  0  0  0  0  0  0  0  0  0  0  0
   -4.1109    1.0187    0.3693 H   0  0  0  0  0  0  0  0  0  0  0  0
   -4.2918    0.9020   -2.6521 H   0  0  0  0  0  0  0  0  0  0  0  0
   -5.7318    1.1779   -1.6472 H   0  0  0  0  0  0  0  0  0  0  0  0
   -3.1823    2.8622   -1.9447 H   0  0  0  0  0  0  0  0  0  0  0  0
   -4.8344    3.2306   -2.4803 H   0  0  0  0  0  0  0  0  0  0  0  0
   -2.7937    3.1643    0.6648 H   0  0  0  0  0  0  0  0  0  0  0  0
   -3.4944    4.3467    2.6934 H   0  0  0  0  0  0  0  0  0  0  0  0
   -5.7028    5.3344    2.8211 H   0  0  0  0  0  0  0  0  0  0  0  0
   -7.2586    5.1337    0.8659 H   0  0  0  0  0  0  0  0  0  0  0  0
   -6.5329    3.9642   -1.1065 H   0  0  0  0  0  0  0  0  0  0  0  0
    0.6082   -0.1238    1.4410 H   0  0  0  0  0  0  0  0  0  0  0  0
    0.0446    1.4296    0.7412 H   0  0  0  0  0  0  0  0  0  0  0  0
    3.0447    2.3275   -0.2684 H   0  0  0  0  0  0  0  0  0  0  0  0
    2.4155    1.3924    1.1161 H   0  0  0  0  0  0  0  0  0  0  0  0
    4.2984   -0.0811    1.0760 H   0  0  0  0  0  0  0  0  0  0  0  0
    4.0644   -1.2839   -0.8825 H   0  0  0  0  0  0  0  0  0  0  0  0
    5.2321   -0.0694   -1.6430 H   0  0  0  0  0  0  0  0  0  0  0  0
    3.4816    1.4840   -2.0901 H   0  0  0  0  0  0  0  0  0  0  0  0
    3.3482   -0.7242   -4.9772 H   0  0  0  0  0  0  0  0  0  0  0  0
    5.3410    1.9956   -0.9045 H   0  0  0  0  0  0  0  0  0  0  0  0
    6.5641   -0.2015    0.6399 H   0  0  0  0  0  0  0  0  0  0  0  0
    7.1205    0.6120   -0.8192 H   0  0  0  0  0  0  0  0  0  0  0  0
    8.7502    1.0558    0.6745 H   0  0  0  0  0  0  0  0  0  0  0  0
    7.6133    1.2852    2.0942 H   0  0  0  0  0  0  0  0  0  0  0  0
    7.3956    3.0644   -0.3832 H   0  0  0  0  0  0  0  0  0  0  0  0
    8.5375    3.5244    0.9980 H   0  0  0  0  0  0  0  0  0  0  0  0
    6.3729    4.4915    1.4693 H   0  0  0  0  0  0  0  0  0  0  0  0
    6.7190    3.0899    2.5828 H   0  0  0  0  0  0  0  0  0  0  0  0
    4.5352    3.4509    0.6734 H   0  0  0  0  0  0  0  0  0  0  0  0
    4.6842    2.3114    2.0058 H   0  0  0  0  0  0  0  0  0  0  0  0
   -3.2192   -2.5387   -1.8779 H   0  0  0  0  0  0  0  0  0  0  0  0
   -1.9759   -4.8484   -2.4850 H   0  0  0  0  0  0  0  0  0  0  0  0
   -1.0644   -3.2525   -2.3298 H   0  0  0  0  0  0  0  0  0  0  0  0
   -1.0745   -4.4171   -1.0055 H   0  0  0  0  0  0  0  0  0  0  0  0
   -4.9464   -3.9414   -1.4646 H   0  0  0  0  0  0  0  0  0  0  0  0
   -4.2486   -4.5982    0.0549 H   0  0  0  0  0  0  0  0  0  0  0  0
   -3.7667   -5.2556   -1.6133 H   0  0  0  0  0  0  0  0  0  0  0  0
  1  2  1  0
  2  3  1  0
  3  4  2  0
  3  5  1  0
  5  6  1  0
  6  7  1  0
  8  7  1  6
  8  9  2  0
  8 10  1  0
 10 11  1  0
 11 12  1  0
 12 13  1  0
 13 14  1  0
 14 15  2  0
 15 16  1  0
 16 17  2  0
 17 18  1  0
 18 19  2  0
  8 20  1  0
 20 21  1  0
 21 22  2  0
 21 23  1  0
 23 24  1  0
 24 25  1  0
 25 26  1  0
 26 27  1  0
 27 28  1  0
 28 29  1  0
 28 30  2  0
 25 31  1  0
 31 32  1  0
 32 33  1  0
 33 34  1  0
 34 35  1  0
 35 36  1  0
  6 37  1  0
 37 38  1  0
 37 39  1  0
 19 14  1  0
 27 23  1  0
 36 31  1  0
  1 40  1  0
  1 41  1  0
  1 42  1  0
  2 43  1  0
  2 44  1  0
  6 45  1  1
 10 46  1  0
 10 47  1  0
 11 48  1  0
 11 49  1  0
 12 50  1  0
 12 51  1  0
 13 52  1  0
 13 53  1  0
 15 54  1  0
 16 55  1  0
 17 56  1  0
 18 57  1  0
 19 58  1  0
 20 59  1  0
 20 60  1  0
 24 61  1  0
 24 62  1  0
 25 63  1  1
 26 64  1  0
 26 65  1  0
 27 66  1  6
 29 67  1  0
 31 68  1  0
 32 69  1  0
 32 70  1  0
 33 71  1  0
 33 72  1  0
 34 73  1  0
 34 74  1  0
 35 75  1  0
 35 76  1  0
 36 77  1  0
 36 78  1  0
 37 79  1  0
 38 80  1  0
 38 81  1  0
 38 82  1  0
 39 83  1  0
 39 84  1  0
 39 85  1  0
M  END
$$$$
