
     RDKit          3D

 59 63  0  0  0  0  0  0  0  0999 V2000
   11.6934    0.5334    0.8005 C   0  0  0  0  0  0  0  0  0  0  0  0
   10.4966    0.4218    0.5735 C   0  0  0  0  0  0  0  0  0  0  0  0
    9.0282    0.3104    0.2941 C   0  0  0  0  0  0  0  0  0  0  0  0
    8.4881    0.5097   -0.8455 C   0  0  0  0  0  0  0  0  0  0  0  0
    7.0825    0.6721   -0.9890 C   0  0  0  0  0  0  0  0  0  0  0  0
    6.3140    0.6089    0.1399 C   0  0  0  0  0  0  0  0  0  0  0  0
    4.8835    0.8708    0.2340 C   0  0  0  0  0  0  0  0  0  0  0  0
    4.2732    0.8675    1.4815 F   0  0  0  0  0  0  0  0  0  0  0  0
    4.0558    1.1207   -0.8023 C   0  0  0  0  0  0  0  0  0  0  0  0
    2.6540    1.3776   -0.4036 C   0  0  0  0  0  0  0  0  0  0  0  0
    2.4972    2.3952    0.5660 C   0  0  0  0  0  0  0  0  0  0  0  0
    1.2934    2.6068    1.1742 C   0  0  0  0  0  0  0  0  0  0  0  0
    0.2505    1.7840    0.8052 C   0  0  0  0  0  0  0  0  0  0  0  0
   -0.9214    2.0100    1.4361 F   0  0  0  0  0  0  0  0  0  0  0  0
    0.3310    0.7792   -0.1356 C   0  0  0  0  0  0  0  0  0  0  0  0
   -0.7156   -0.2413   -0.3810 C   0  0  1  0  0  0  0  0  0  0  0  0
   -0.4124   -0.9534   -1.6639 C   0  0  0  0  0  0  0  0  0  0  0  0
   -0.7561   -1.0503    0.7893 N   0  0  0  0  0  0  0  0  0  0  0  0
   -1.6053   -1.9316    1.1455 C   0  0  0  0  0  0  0  0  0  0  0  0
   -1.5375   -2.6736    2.3232 N   0  0  0  0  0  0  0  0  0  0  0  0
   -2.9762   -2.0941   -0.0667 S   0  0  0  0  0  0  0  0  0  0  0  0
   -3.2544   -0.3598   -0.5918 C   0  0  1  0  0  0  0  0  0  0  0  0
   -4.4931   -0.0917   -1.3290 C   0  0  0  0  0  0  0  0  0  0  0  0
   -4.3694    0.3774   -2.4866 O   0  0  0  0  0  0  0  0  0  0  0  0
   -5.7737   -0.3329   -0.8053 N   0  0  0  0  0  0  0  0  0  0  0  0
   -6.9940    0.0350   -1.5156 C   0  0  0  0  0  0  0  0  0  0  0  0
   -7.8894    0.6458   -0.4401 C   0  0  0  0  0  0  0  0  0  0  0  0
   -8.3206   -0.3442    0.4327 O   0  0  0  0  0  0  0  0  0  0  0  0
   -7.4597   -1.4249    0.5547 C   0  0  0  0  0  0  0  0  0  0  0  0
   -5.9968   -0.9931    0.4758 C   0  0  0  0  0  0  0  0  0  0  0  0
   -2.9701    0.6065    0.5675 C   0  0  0  0  0  0  0  0  0  0  0  0
   -2.0615    0.4646   -0.6091 C   0  0  1  0  0  0  0  0  0  0  0  0
    1.5762    0.6114   -0.7262 C   0  0  0  0  0  0  0  0  0  0  0  0
    6.9243    0.3870    1.3570 N   0  0  0  0  0  0  0  0  0  0  0  0
    8.2479    0.2324    1.4900 C   0  0  0  0  0  0  0  0  0  0  0  0
   12.7068    0.6448    0.9955 H   0  0  0  0  0  0  0  0  0  0  0  0
    9.0749    0.5365   -1.7744 H   0  0  0  0  0  0  0  0  0  0  0  0
    6.6779    0.8733   -1.9168 H   0  0  0  0  0  0  0  0  0  0  0  0
    4.3967    1.1439   -1.7839 H   0  0  0  0  0  0  0  0  0  0  0  0
    3.3230    3.0235    0.8023 H   0  0  0  0  0  0  0  0  0  0  0  0
    1.1491    3.3664    1.9327 H   0  0  0  0  0  0  0  0  0  0  0  0
    0.3327   -1.7374   -1.6319 H   0  0  0  0  0  0  0  0  0  0  0  0
   -1.3476   -1.3495   -2.1228 H   0  0  0  0  0  0  0  0  0  0  0  0
   -0.0234   -0.2170   -2.4410 H   0  0  0  0  0  0  0  0  0  0  0  0
   -1.9209   -3.6306    2.3895 H   0  0  0  0  0  0  0  0  0  0  0  0
   -1.0769   -2.2563    3.1755 H   0  0  0  0  0  0  0  0  0  0  0  0
   -6.8204    0.7883   -2.3040 H   0  0  0  0  0  0  0  0  0  0  0  0
   -7.4310   -0.8580   -1.9465 H   0  0  0  0  0  0  0  0  0  0  0  0
   -7.3842    1.4856    0.0416 H   0  0  0  0  0  0  0  0  0  0  0  0
   -8.8020    1.0170   -0.9875 H   0  0  0  0  0  0  0  0  0  0  0  0
   -7.6047   -1.9598    1.4864 H   0  0  0  0  0  0  0  0  0  0  0  0
   -7.6972   -2.0865   -0.3094 H   0  0  0  0  0  0  0  0  0  0  0  0
   -5.3894   -1.9012    0.5166 H   0  0  0  0  0  0  0  0  0  0  0  0
   -5.7914   -0.3044    1.3064 H   0  0  0  0  0  0  0  0  0  0  0  0
   -3.6114    1.5176    0.5518 H   0  0  0  0  0  0  0  0  0  0  0  0
   -2.7663    0.1907    1.5669 H   0  0  0  0  0  0  0  0  0  0  0  0
   -1.9727    1.2863   -1.3314 H   0  0  0  0  0  0  0  0  0  0  0  0
    1.6587   -0.1719   -1.4757 H   0  0  0  0  0  0  0  0  0  0  0  0
    8.7370    0.0508    2.4104 H   0  0  0  0  0  0  0  0  0  0  0  0
  1  2  3  0
  2  3  1  0
  3  4  2  0
  4  5  1  0
  5  6  2  0
  6  7  1  0
  7  8  1  0
  7  9  2  0
  9 10  1  0
 10 11  2  0
 11 12  1  0
 12 13  2  0
 13 14  1  0
 13 15  1  0
 15 16  1  0
 16 17  1  6
 16 18  1  0
 18 19  2  0
 19 20  1  0
 19 21  1  0
 21 22  1  0
 22 23  1  6
 23 24  2  0
 23 25  1  0
 25 26  1  0
 26 27  1  0
 27 28  1  0
 28 29  1  0
 29 30  1  0
 22 31  1  0
 31 32  1  0
 15 33  2  0
  6 34  1  0
 34 35  2  0
 35  3  1  0
 33 10  1  0
 32 16  1  0
 32 22  1  0
 30 25  1  0
  1 36  1  0
  4 37  1  0
  5 38  1  0
  9 39  1  0
 11 40  1  0
 12 41  1  0
 17 42  1  0
 17 43  1  0
 17 44  1  0
 20 45  1  0
 20 46  1  0
 26 47  1  0
 26 48  1  0
 27 49  1  0
 27 50  1  0
 29 51  1  0
 29 52  1  0
 30 53  1  0
 30 54  1  0
 31 55  1  0
 31 56  1  0
 32 57  1  6
 33 58  1  0
 35 59  1  0
M  END
$$$$
