@<TRIPOS>MOLECULE
*****
 59 63 0 0 0
SMALL
GASTEIGER

@<TRIPOS>ATOM
      1 C          11.6934    0.5334    0.8005 C.1     1  UNL1       -0.1139
      2 C          10.4966    0.4218    0.5735 C.1     1  UNL1       -0.0681
      3 C           9.0282    0.3104    0.2941 C.ar    1  UNL1        0.0428
      4 C           8.4881    0.5097   -0.8455 C.ar    1  UNL1       -0.0428
      5 C           7.0825    0.6721   -0.9890 C.ar    1  UNL1       -0.0323
      6 C           6.3140    0.6089    0.1399 C.ar    1  UNL1        0.0990
      7 C           4.8835    0.8708    0.2340 C.2     1  UNL1        0.1492
      8 F           4.2732    0.8675    1.4815 F       1  UNL1       -0.2032
      9 C           4.0558    1.1207   -0.8023 C.2     1  UNL1       -0.0172
     10 C           2.6540    1.3776   -0.4036 C.ar    1  UNL1       -0.0217
     11 C           2.4972    2.3952    0.5660 C.ar    1  UNL1       -0.0518
     12 C           1.2934    2.6068    1.1742 C.ar    1  UNL1       -0.0255
     13 C           0.2505    1.7840    0.8052 C.ar    1  UNL1        0.1289
     14 F          -0.9214    2.0100    1.4361 F       1  UNL1       -0.2051
     15 C           0.3310    0.7792   -0.1356 C.ar    1  UNL1        0.0158
     16 C          -0.7156   -0.2413   -0.3810 C.3     1  UNL1        0.0935
     17 C          -0.4124   -0.9534   -1.6639 C.3     1  UNL1       -0.0351
     18 N          -0.7561   -1.0503    0.7893 N.2     1  UNL1       -0.2521
     19 C          -1.6053   -1.9316    1.1455 C.2     1  UNL1        0.1485
     20 N          -1.5375   -2.6736    2.3232 N.pl3   1  UNL1       -0.3380
     21 S          -2.9762   -2.0941   -0.0667 S.3     1  UNL1       -0.0746
     22 C          -3.2544   -0.3598   -0.5918 C.3     1  UNL1        0.1054
     23 C          -4.4931   -0.0917   -1.3290 C.2     1  UNL1        0.2326
     24 O          -4.3694    0.3774   -2.4866 O.2     1  UNL1       -0.2741
     25 N          -5.7737   -0.3329   -0.8053 N.am    1  UNL1       -0.2960
     26 C          -6.9940    0.0350   -1.5156 C.3     1  UNL1        0.0382
     27 C          -7.8894    0.6458   -0.4401 C.3     1  UNL1        0.0635
     28 O          -8.3206   -0.3442    0.4327 O.3     1  UNL1       -0.3767
     29 C          -7.4597   -1.4249    0.5547 C.3     1  UNL1        0.0635
     30 C          -5.9968   -0.9931    0.4758 C.3     1  UNL1        0.0382
     31 C          -2.9701    0.6065    0.5675 C.3     1  UNL1       -0.0220
     32 C          -2.0615    0.4646   -0.6091 C.3     1  UNL1        0.0134
     33 C           1.5762    0.6114   -0.7262 C.ar    1  UNL1       -0.0463
     34 N           6.9243    0.3870    1.3570 N.ar    1  UNL1       -0.2515
     35 C           8.2479    0.2324    1.4900 C.ar    1  UNL1        0.0437
     36 H          12.7068    0.6448    0.9955 H       1  UNL1        0.1232
     37 H           9.0749    0.5365   -1.7744 H       1  UNL1        0.0631
     38 H           6.6779    0.8733   -1.9168 H       1  UNL1        0.0640
     39 H           4.3967    1.1439   -1.7839 H       1  UNL1        0.0653
     40 H           3.3230    3.0235    0.8023 H       1  UNL1        0.0624
     41 H           1.1491    3.3664    1.9327 H       1  UNL1        0.0646
     42 H           0.3327   -1.7374   -1.6319 H       1  UNL1        0.0256
     43 H          -1.3476   -1.3495   -2.1228 H       1  UNL1        0.0256
     44 H          -0.0234   -0.2170   -2.4410 H       1  UNL1        0.0256
     45 H          -1.9209   -3.6306    2.3895 H       1  UNL1        0.1442
     46 H          -1.0769   -2.2563    3.1755 H       1  UNL1        0.1442
     47 H          -6.8204    0.7883   -2.3040 H       1  UNL1        0.0487
     48 H          -7.4310   -0.8580   -1.9465 H       1  UNL1        0.0487
     49 H          -7.3842    1.4856    0.0416 H       1  UNL1        0.0575
     50 H          -8.8020    1.0170   -0.9875 H       1  UNL1        0.0575
     51 H          -7.6047   -1.9598    1.4864 H       1  UNL1        0.0575
     52 H          -7.6972   -2.0865   -0.3094 H       1  UNL1        0.0575
     53 H          -5.3894   -1.9012    0.5166 H       1  UNL1        0.0487
     54 H          -5.7914   -0.3044    1.3064 H       1  UNL1        0.0487
     55 H          -3.6114    1.5176    0.5518 H       1  UNL1        0.0287
     56 H          -2.7663    0.1907    1.5669 H       1  UNL1        0.0287
     57 H          -1.9727    1.2863   -1.3314 H       1  UNL1        0.0346
     58 H           1.6587   -0.1719   -1.4757 H       1  UNL1        0.0628
     59 H           8.7370    0.0508    2.4104 H       1  UNL1        0.0842
@<TRIPOS>BOND
     1     1     2    3
     2     2     3    1
     3     3     4   ar
     4     4     5   ar
     5     5     6   ar
     6     6     7    1
     7     7     8    1
     8     7     9    2
     9     9    10    1
    10    10    11   ar
    11    11    12   ar
    12    12    13   ar
    13    13    14    1
    14    13    15   ar
    15    15    16    1
    16    16    17    1
    17    16    18    1
    18    18    19    2
    19    19    20    1
    20    19    21    1
    21    21    22    1
    22    22    23    1
    23    23    24    2
    24    23    25   am
    25    25    26    1
    26    26    27    1
    27    27    28    1
    28    28    29    1
    29    29    30    1
    30    22    31    1
    31    31    32    1
    32    15    33   ar
    33     6    34   ar
    34    34    35   ar
    35    35     3   ar
    36    33    10   ar
    37    32    16    1
    38    32    22    1
    39    30    25    1
    40     1    36    1
    41     4    37    1
    42     5    38    1
    43     9    39    1
    44    11    40    1
    45    12    41    1
    46    17    42    1
    47    17    43    1
    48    17    44    1
    49    20    45    1
    50    20    46    1
    51    26    47    1
    52    26    48    1
    53    27    49    1
    54    27    50    1
    55    29    51    1
    56    29    52    1
    57    30    53    1
    58    30    54    1
    59    31    55    1
    60    31    56    1
    61    32    57    1
    62    33    58    1
    63    35    59    1
