
     RDKit          3D

 53 56  0  0  0  0  0  0  0  0999 V2000
    7.3406    2.4180    1.2268 C   0  0  0  0  0  0  0  0  0  0  0  0
    6.0999    1.6704    0.8870 C   0  0  0  0  0  0  0  0  0  0  0  0
    5.5602    1.7366   -0.3833 C   0  0  0  0  0  0  0  0  0  0  0  0
    4.3975    1.0359   -0.7035 C   0  0  0  0  0  0  0  0  0  0  0  0
    3.7554    0.2580    0.2402 C   0  0  0  0  0  0  0  0  0  0  0  0
    4.3356    0.2195    1.5122 C   0  0  0  0  0  0  0  0  0  0  0  0
    5.4980    0.9053    1.8746 C   0  0  0  0  0  0  0  0  0  0  0  0
    2.5683   -0.4922    0.0117 N   0  0  0  0  0  0  0  0  0  0  0  0
    1.5631   -0.4298    0.9341 C   0  0  0  0  0  0  0  0  0  0  0  0
    0.5113   -1.2370    0.5047 C   0  0  0  0  0  0  0  0  0  0  0  0
   -0.7773   -1.4242    1.2606 C   0  0  0  0  0  0  0  0  0  0  0  0
   -1.8233   -0.6376    0.5907 N   0  0  0  0  0  0  0  0  0  0  0  0
   -3.0475   -0.8010    1.3116 C   0  0  0  0  0  0  0  0  0  0  0  0
   -4.2216   -0.0543    0.7349 C   0  0  0  0  0  0  0  0  0  0  0  0
   -4.5464   -0.4652   -0.6659 C   0  0  0  0  0  0  0  0  0  0  0  0
   -5.9351    0.0808   -0.9942 C   0  0  0  0  0  0  0  0  0  0  0  0
   -6.1571    1.4612   -0.4149 C   0  0  0  0  0  0  0  0  0  0  0  0
   -4.8237    2.1532   -0.2508 C   0  0  0  0  0  0  0  0  0  0  0  0
   -4.0725    1.4241    0.8391 C   0  0  0  0  0  0  0  0  0  0  0  0
    0.8872   -1.7944   -0.6942 C   0  0  0  0  0  0  0  0  0  0  0  0
    0.2623   -2.6532   -1.5564 C   0  0  0  0  0  0  0  0  0  0  0  0
    0.9362   -3.0328   -2.7155 C   0  0  0  0  0  0  0  0  0  0  0  0
    2.2135   -2.5417   -2.9759 C   0  0  0  0  0  0  0  0  0  0  0  0
    2.8560   -1.6680   -2.1042 C   0  0  0  0  0  0  0  0  0  0  0  0
    2.1550   -1.3169   -0.9684 C   0  0  0  0  0  0  0  0  0  0  0  0
    8.0207    1.8635    1.9029 H   0  0  0  0  0  0  0  0  0  0  0  0
    7.0937    3.3894    1.7447 H   0  0  0  0  0  0  0  0  0  0  0  0
    7.8889    2.6163    0.2871 H   0  0  0  0  0  0  0  0  0  0  0  0
    6.0111    2.3265   -1.1697 H   0  0  0  0  0  0  0  0  0  0  0  0
    3.9314    1.0553   -1.6920 H   0  0  0  0  0  0  0  0  0  0  0  0
    3.8641   -0.3845    2.2994 H   0  0  0  0  0  0  0  0  0  0  0  0
    5.8715    0.8149    2.8816 H   0  0  0  0  0  0  0  0  0  0  0  0
    1.5218    0.1378    1.8758 H   0  0  0  0  0  0  0  0  0  0  0  0
   -1.0796   -2.4812    1.2739 H   0  0  0  0  0  0  0  0  0  0  0  0
   -0.6407   -1.1091    2.3143 H   0  0  0  0  0  0  0  0  0  0  0  0
   -1.5373    0.3429    0.4686 H   0  0  0  0  0  0  0  0  0  0  0  0
   -2.8815   -0.3987    2.3537 H   0  0  0  0  0  0  0  0  0  0  0  0
   -3.2727   -1.8777    1.4345 H   0  0  0  0  0  0  0  0  0  0  0  0
   -5.1171   -0.3480    1.3511 H   0  0  0  0  0  0  0  0  0  0  0  0
   -3.7971   -0.0702   -1.4065 H   0  0  0  0  0  0  0  0  0  0  0  0
   -4.6237   -1.5729   -0.7540 H   0  0  0  0  0  0  0  0  0  0  0  0
   -6.6545   -0.6248   -0.5272 H   0  0  0  0  0  0  0  0  0  0  0  0
   -6.1383    0.0626   -2.0864 H   0  0  0  0  0  0  0  0  0  0  0  0
   -6.7440    2.0743   -1.1466 H   0  0  0  0  0  0  0  0  0  0  0  0
   -6.7542    1.4225    0.5242 H   0  0  0  0  0  0  0  0  0  0  0  0
   -4.3236    2.1062   -1.2327 H   0  0  0  0  0  0  0  0  0  0  0  0
   -4.9211    3.2014    0.0380 H   0  0  0  0  0  0  0  0  0  0  0  0
   -4.4877    1.8117    1.8111 H   0  0  0  0  0  0  0  0  0  0  0  0
   -3.0069    1.6963    0.8411 H   0  0  0  0  0  0  0  0  0  0  0  0
   -0.7251   -3.0055   -1.3114 H   0  0  0  0  0  0  0  0  0  0  0  0
    0.4083   -3.7108   -3.3678 H   0  0  0  0  0  0  0  0  0  0  0  0
    2.7096   -2.8670   -3.9032 H   0  0  0  0  0  0  0  0  0  0  0  0
    3.8483   -1.2859   -2.3054 H   0  0  0  0  0  0  0  0  0  0  0  0
  1  2  1  0
  2  3  2  0
  3  4  1  0
  4  5  2  0
  5  6  1  0
  6  7  2  0
  5  8  1  0
  8  9  1  0
  9 10  2  0
 10 11  1  0
 11 12  1  0
 12 13  1  0
 13 14  1  0
 14 15  1  0
 15 16  1  0
 16 17  1  0
 17 18  1  0
 18 19  1  0
 10 20  1  0
 20 21  2  0
 21 22  1  0
 22 23  2  0
 23 24  1  0
 24 25  2  0
  7  2  1  0
 25  8  1  0
 19 14  1  0
 25 20  1  0
  1 26  1  0
  1 27  1  0
  1 28  1  0
  3 29  1  0
  4 30  1  0
  6 31  1  0
  7 32  1  0
  9 33  1  0
 11 34  1  0
 11 35  1  0
 12 36  1  0
 13 37  1  0
 13 38  1  0
 14 39  1  0
 15 40  1  0
 15 41  1  0
 16 42  1  0
 16 43  1  0
 17 44  1  0
 17 45  1  0
 18 46  1  0
 18 47  1  0
 19 48  1  0
 19 49  1  0
 21 50  1  0
 22 51  1  0
 23 52  1  0
 24 53  1  0
M  END
$$$$
