@<TRIPOS>MOLECULE
*****
 53 56 0 0 0
SMALL
GASTEIGER

@<TRIPOS>ATOM
      1 C           7.3406    2.4180    1.2268 C.3     1  UNL1       -0.0397
      2 C           6.0999    1.6704    0.8870 C.ar    1  UNL1       -0.0503
      3 C           5.5602    1.7366   -0.3833 C.ar    1  UNL1       -0.0569
      4 C           4.3975    1.0359   -0.7035 C.ar    1  UNL1       -0.0376
      5 C           3.7554    0.2580    0.2402 C.ar    1  UNL1        0.0466
      6 C           4.3356    0.2195    1.5122 C.ar    1  UNL1       -0.0376
      7 C           5.4980    0.9053    1.8746 C.ar    1  UNL1       -0.0569
      8 N           2.5683   -0.4922    0.0117 N.ar    1  UNL1       -0.3156
      9 C           1.5631   -0.4298    0.9341 C.ar    1  UNL1        0.0154
     10 C           0.5113   -1.2370    0.5047 C.ar    1  UNL1       -0.0080
     11 C          -0.7773   -1.4242    1.2606 C.3     1  UNL1        0.0233
     12 N          -1.8233   -0.6376    0.5907 N.3     1  UNL1       -0.3117
     13 C          -3.0475   -0.8010    1.3116 C.3     1  UNL1       -0.0010
     14 C          -4.2216   -0.0543    0.7349 C.3     1  UNL1       -0.0285
     15 C          -4.5464   -0.4652   -0.6659 C.3     1  UNL1       -0.0491
     16 C          -5.9351    0.0808   -0.9942 C.3     1  UNL1       -0.0528
     17 C          -6.1571    1.4612   -0.4149 C.3     1  UNL1       -0.0530
     18 C          -4.8237    2.1532   -0.2508 C.3     1  UNL1       -0.0528
     19 C          -4.0725    1.4241    0.8391 C.3     1  UNL1       -0.0491
     20 C           0.8872   -1.7944   -0.6942 C.ar    1  UNL1        0.0046
     21 C           0.2623   -2.6532   -1.5564 C.ar    1  UNL1       -0.0523
     22 C           0.9362   -3.0328   -2.7155 C.ar    1  UNL1       -0.0611
     23 C           2.2135   -2.5417   -2.9759 C.ar    1  UNL1       -0.0598
     24 C           2.8560   -1.6680   -2.1042 C.ar    1  UNL1       -0.0373
     25 C           2.1550   -1.3169   -0.9684 C.ar    1  UNL1        0.0541
     26 H           8.0207    1.8635    1.9029 H       1  UNL1        0.0278
     27 H           7.0937    3.3894    1.7447 H       1  UNL1        0.0278
     28 H           7.8889    2.6163    0.2871 H       1  UNL1        0.0278
     29 H           6.0111    2.3265   -1.1697 H       1  UNL1        0.0621
     30 H           3.9314    1.0553   -1.6920 H       1  UNL1        0.0638
     31 H           3.8641   -0.3845    2.2994 H       1  UNL1        0.0638
     32 H           5.8715    0.8149    2.8816 H       1  UNL1        0.0621
     33 H           1.5218    0.1378    1.8758 H       1  UNL1        0.0816
     34 H          -1.0796   -2.4812    1.2739 H       1  UNL1        0.0474
     35 H          -0.6407   -1.1091    2.3143 H       1  UNL1        0.0474
     36 H          -1.5373    0.3429    0.4686 H       1  UNL1        0.1223
     37 H          -2.8815   -0.3987    2.3537 H       1  UNL1        0.0427
     38 H          -3.2727   -1.8777    1.4345 H       1  UNL1        0.0427
     39 H          -5.1171   -0.3480    1.3511 H       1  UNL1        0.0313
     40 H          -3.7971   -0.0702   -1.4065 H       1  UNL1        0.0268
     41 H          -4.6237   -1.5729   -0.7540 H       1  UNL1        0.0268
     42 H          -6.6545   -0.6248   -0.5272 H       1  UNL1        0.0265
     43 H          -6.1383    0.0626   -2.0864 H       1  UNL1        0.0265
     44 H          -6.7440    2.0743   -1.1466 H       1  UNL1        0.0265
     45 H          -6.7542    1.4225    0.5242 H       1  UNL1        0.0265
     46 H          -4.3236    2.1062   -1.2327 H       1  UNL1        0.0265
     47 H          -4.9211    3.2014    0.0380 H       1  UNL1        0.0265
     48 H          -4.4877    1.8117    1.8111 H       1  UNL1        0.0268
     49 H          -3.0069    1.6963    0.8411 H       1  UNL1        0.0268
     50 H          -0.7251   -3.0055   -1.3114 H       1  UNL1        0.0624
     51 H           0.4083   -3.7108   -3.3678 H       1  UNL1        0.0618
     52 H           2.7096   -2.8670   -3.9032 H       1  UNL1        0.0618
     53 H           3.8483   -1.2859   -2.3054 H       1  UNL1        0.0638
@<TRIPOS>BOND
     1     1     2    1
     2     2     3   ar
     3     3     4   ar
     4     4     5   ar
     5     5     6   ar
     6     6     7   ar
     7     5     8    1
     8     8     9   ar
     9     9    10   ar
    10    10    11    1
    11    11    12    1
    12    12    13    1
    13    13    14    1
    14    14    15    1
    15    15    16    1
    16    16    17    1
    17    17    18    1
    18    18    19    1
    19    10    20   ar
    20    20    21   ar
    21    21    22   ar
    22    22    23   ar
    23    23    24   ar
    24    24    25   ar
    25     7     2   ar
    26    25     8   ar
    27    19    14    1
    28    25    20   ar
    29     1    26    1
    30     1    27    1
    31     1    28    1
    32     3    29    1
    33     4    30    1
    34     6    31    1
    35     7    32    1
    36     9    33    1
    37    11    34    1
    38    11    35    1
    39    12    36    1
    40    13    37    1
    41    13    38    1
    42    14    39    1
    43    15    40    1
    44    15    41    1
    45    16    42    1
    46    16    43    1
    47    17    44    1
    48    17    45    1
    49    18    46    1
    50    18    47    1
    51    19    48    1
    52    19    49    1
    53    21    50    1
    54    22    51    1
    55    23    52    1
    56    24    53    1
