@<TRIPOS>MOLECULE
*****
 48 51 0 0 0
SMALL
GASTEIGER

@<TRIPOS>ATOM
      1 C           7.8244   -1.9115   -0.4670 C.3     1  UNL1        0.0805
      2 O           6.9787   -2.2440    0.6144 O.3     1  UNL1       -0.4786
      3 C           5.7214   -1.6268    0.6782 C.ar    1  UNL1        0.2334
      4 C           4.8366   -1.8930    1.6962 C.ar    1  UNL1        0.0899
      5 N           3.6514   -1.2884    1.7226 N.ar    1  UNL1       -0.2433
      6 C           3.2607   -0.3914    0.7609 C.ar    1  UNL1        0.1468
      7 C           1.9719    0.2182    0.9292 C.2     1  UNL1        0.2683
      8 O           1.4842    0.3453    2.1222 O.2     1  UNL1       -0.2681
      9 N           1.1850    0.6882   -0.1234 N.am    1  UNL1       -0.2802
     10 C          -0.0839    1.2893    0.1767 C.ar    1  UNL1        0.0342
     11 C          -0.1770    2.6421    0.4055 C.ar    1  UNL1       -0.0377
     12 C          -1.3817    3.2301    0.6930 C.ar    1  UNL1       -0.0243
     13 C          -2.5625    2.4910    0.7670 C.ar    1  UNL1        0.1292
     14 F          -3.7453    3.1195    1.0465 F       1  UNL1       -0.2051
     15 C          -2.4522    1.1408    0.5363 C.ar    1  UNL1        0.0228
     16 C          -3.6719    0.2834    0.6057 C.3     1  UNL1        0.1603
     17 C          -4.2153    0.4074    2.0289 C.3     1  UNL1        0.2686
     18 F          -3.2752   -0.0164    2.9410 F       1  UNL1       -0.2062
     19 F          -5.3054   -0.4493    2.1625 F       1  UNL1       -0.2062
     20 N          -4.6276    0.7309   -0.3504 N.2     1  UNL1       -0.2194
     21 C          -4.7682    0.2762   -1.5183 C.2     1  UNL1        0.2764
     22 N          -5.7375    0.7534   -2.4490 N.pl3   1  UNL1       -0.3134
     23 O          -3.9196   -0.7610   -1.9224 O.2     1  UNL1       -0.4622
     24 C          -3.5386   -1.7100   -0.9419 C.3     1  UNL1        0.1091
     25 C          -4.5096   -2.0966    0.1324 C.3     1  UNL1       -0.0064
     26 C          -3.3489   -1.1613    0.3980 C.3     1  UNL1        0.0344
     27 C          -1.2404    0.5363    0.2447 C.ar    1  UNL1       -0.0321
     28 C           4.1176   -0.1190   -0.2409 C.ar    1  UNL1        0.0724
     29 C           3.8713    0.8768   -1.3325 C.3     1  UNL1       -0.0200
     30 N           5.3286   -0.7516   -0.2495 N.ar    1  UNL1       -0.2146
     31 H           7.8369   -0.7980   -0.6156 H       1  UNL1        0.0660
     32 H           8.8582   -2.2855   -0.2859 H       1  UNL1        0.0660
     33 H           7.3774   -2.3371   -1.3921 H       1  UNL1        0.0660
     34 H           5.1651   -2.6048    2.4458 H       1  UNL1        0.0884
     35 H           1.4116    0.6218   -1.1318 H       1  UNL1        0.1552
     36 H           0.7489    3.2321    0.3492 H       1  UNL1        0.0637
     37 H          -1.4343    4.2908    0.8690 H       1  UNL1        0.0647
     38 H          -4.5147    1.4313    2.2979 H       1  UNL1        0.1047
     39 H          -5.4555    1.4521   -3.1464 H       1  UNL1        0.1466
     40 H          -6.7008    0.3975   -2.4145 H       1  UNL1        0.1466
     41 H          -2.9119   -2.5153   -1.3368 H       1  UNL1        0.0737
     42 H          -4.4559   -3.1382    0.5241 H       1  UNL1        0.0306
     43 H          -5.5359   -1.6741    0.0800 H       1  UNL1        0.0306
     44 H          -2.5397   -1.6265    1.0314 H       1  UNL1        0.0366
     45 H          -1.1573   -0.5444    0.0574 H       1  UNL1        0.0640
     46 H           3.3879    0.4713   -2.2090 H       1  UNL1        0.0293
     47 H           4.9024    1.2804   -1.5908 H       1  UNL1        0.0293
     48 H           3.3466    1.7383   -0.9356 H       1  UNL1        0.0293
@<TRIPOS>BOND
     1     1     2    1
     2     2     3    1
     3     3     4   ar
     4     4     5   ar
     5     5     6   ar
     6     6     7    1
     7     7     8    2
     8     7     9   am
     9     9    10    1
    10    10    11   ar
    11    11    12   ar
    12    12    13   ar
    13    13    14    1
    14    13    15   ar
    15    15    16    1
    16    16    17    1
    17    17    18    1
    18    17    19    1
    19    16    20    1
    20    20    21    2
    21    21    22    1
    22    21    23    1
    23    23    24    1
    24    24    25    1
    25    25    26    1
    26    15    27   ar
    27     6    28   ar
    28    28    29    1
    29    28    30   ar
    30    30     3   ar
    31    27    10   ar
    32    26    16    1
    33    26    24    1
    34     1    31    1
    35     1    32    1
    36     1    33    1
    37     4    34    1
    38     9    35    1
    39    11    36    1
    40    12    37    1
    41    17    38    1
    42    22    39    1
    43    22    40    1
    44    24    41    1
    45    25    42    1
    46    25    43    1
    47    26    44    1
    48    27    45    1
    49    29    46    1
    50    29    47    1
    51    29    48    1
