@<TRIPOS>MOLECULE
*****
 24 25 0 0 0
SMALL
GASTEIGER

@<TRIPOS>ATOM
      1 C          -3.5039    0.7532    0.0837 C.3     1  UNL1       -0.0637
      2 C          -2.1286    0.3131   -0.3551 C.3     1  UNL1       -0.0376
      3 C          -1.2885   -0.1078    0.8331 C.3     1  UNL1        0.0293
      4 N           0.0087   -0.5160    0.3530 N.ar    1  UNL1       -0.2766
      5 C           1.0386    0.3313    0.2197 C.ar    1  UNL1        0.1679
      6 C           2.2945   -0.0194   -0.2356 C.ar    1  UNL1        0.1487
      7 N           3.0824    1.0758   -0.2430 N.ar    1  UNL1       -0.3389
      8 C           2.3210    2.1019    0.2052 C.ar    1  UNL1        0.0963
      9 N           1.0753    1.6587    0.4895 N.ar    1  UNL1       -0.2179
     10 C           2.4987   -1.3443   -0.5779 C.ar    1  UNL1        0.2796
     11 O           3.6254   -1.7041   -0.9960 O.2     1  UNL1       -0.2654
     12 N           1.4540   -2.1834   -0.4384 N.ar    1  UNL1       -0.2731
     13 C           0.2509   -1.7907    0.0098 C.ar    1  UNL1        0.3310
     14 O          -0.6479   -2.6655    0.0975 O.2     1  UNL1       -0.2464
     15 H          -3.5484    1.8482    0.2807 H       1  UNL1        0.0230
     16 H          -4.1966    0.5859   -0.7569 H       1  UNL1        0.0230
     17 H          -3.8177    0.1326    0.9497 H       1  UNL1        0.0230
     18 H          -1.6324    1.2182   -0.7876 H       1  UNL1        0.0280
     19 H          -2.2454   -0.4921   -1.0946 H       1  UNL1        0.0280
     20 H          -1.7997   -0.9691    1.3354 H       1  UNL1        0.0494
     21 H          -1.2616    0.7037    1.5626 H       1  UNL1        0.0494
     22 H           4.0898    1.1172   -0.5400 H       1  UNL1        0.1670
     23 H           2.6779    3.1285    0.3141 H       1  UNL1        0.1027
     24 H           1.6533   -3.1759   -0.7089 H       1  UNL1        0.1735
@<TRIPOS>BOND
     1     1     2    1
     2     2     3    1
     3     3     4    1
     4     4     5   ar
     5     5     6   ar
     6     6     7   ar
     7     7     8   ar
     8     8     9   ar
     9     6    10   ar
    10    10    11    2
    11    10    12   ar
    12    12    13   ar
    13    13    14    2
    14    13     4   ar
    15     9     5   ar
    16     1    15    1
    17     1    16    1
    18     1    17    1
    19     2    18    1
    20     2    19    1
    21     3    20    1
    22     3    21    1
    23     7    22    1
    24     8    23    1
    25    12    24    1
