
     RDKit          3D

 24 25  0  0  0  0  0  0  0  0999 V2000
   -3.5039    0.7532    0.0837 C   0  0  0  0  0  0  0  0  0  0  0  0
   -2.1286    0.3131   -0.3551 C   0  0  0  0  0  0  0  0  0  0  0  0
   -1.2885   -0.1078    0.8331 C   0  0  0  0  0  0  0  0  0  0  0  0
    0.0087   -0.5160    0.3530 N   0  0  0  0  0  0  0  0  0  0  0  0
    1.0386    0.3313    0.2197 C   0  0  0  0  0  0  0  0  0  0  0  0
    2.2945   -0.0194   -0.2356 C   0  0  0  0  0  0  0  0  0  0  0  0
    3.0824    1.0758   -0.2430 N   0  0  0  0  0  0  0  0  0  0  0  0
    2.3210    2.1019    0.2052 C   0  0  0  0  0  0  0  0  0  0  0  0
    1.0753    1.6587    0.4895 N   0  0  0  0  0  0  0  0  0  0  0  0
    2.4987   -1.3443   -0.5779 C   0  0  0  0  0  0  0  0  0  0  0  0
    3.6254   -1.7041   -0.9960 O   0  0  0  0  0  0  0  0  0  0  0  0
    1.4540   -2.1834   -0.4384 N   0  0  0  0  0  0  0  0  0  0  0  0
    0.2509   -1.7907    0.0098 C   0  0  0  0  0  0  0  0  0  0  0  0
   -0.6479   -2.6655    0.0975 O   0  0  0  0  0  0  0  0  0  0  0  0
   -3.5484    1.8482    0.2807 H   0  0  0  0  0  0  0  0  0  0  0  0
   -4.1966    0.5859   -0.7569 H   0  0  0  0  0  0  0  0  0  0  0  0
   -3.8177    0.1326    0.9497 H   0  0  0  0  0  0  0  0  0  0  0  0
   -1.6324    1.2182   -0.7876 H   0  0  0  0  0  0  0  0  0  0  0  0
   -2.2454   -0.4921   -1.0946 H   0  0  0  0  0  0  0  0  0  0  0  0
   -1.7997   -0.9691    1.3354 H   0  0  0  0  0  0  0  0  0  0  0  0
   -1.2616    0.7037    1.5626 H   0  0  0  0  0  0  0  0  0  0  0  0
    4.0898    1.1172   -0.5400 H   0  0  0  0  0  0  0  0  0  0  0  0
    2.6779    3.1285    0.3141 H   0  0  0  0  0  0  0  0  0  0  0  0
    1.6533   -3.1759   -0.7089 H   0  0  0  0  0  0  0  0  0  0  0  0
  1  2  1  0
  2  3  1  0
  3  4  1  0
  4  5  1  0
  5  6  2  0
  6  7  1  0
  7  8  1  0
  8  9  2  0
  6 10  1  0
 10 11  2  0
 10 12  1  0
 12 13  1  0
 13 14  2  0
 13  4  1  0
  9  5  1  0
  1 15  1  0
  1 16  1  0
  1 17  1  0
  2 18  1  0
  2 19  1  0
  3 20  1  0
  3 21  1  0
  7 22  1  0
  8 23  1  0
 12 24  1  0
M  END
$$$$
