
     RDKit          3D

 47 49  0  0  0  0  0  0  0  0999 V2000
    2.6150   -1.8899    1.4654 C   0  0  0  0  0  0  0  0  0  0  0  0
    2.3102   -0.4092    1.3446 C   0  0  1  0  0  0  0  0  0  0  0  0
    3.2193    0.2506    0.3906 C   0  0  0  0  0  0  0  0  0  0  0  0
    3.0164    1.5116   -0.1121 C   0  0  0  0  0  0  0  0  0  0  0  0
    3.9308    2.0342   -0.9992 C   0  0  0  0  0  0  0  0  0  0  0  0
    5.0589    1.3591   -1.4230 C   0  0  0  0  0  0  0  0  0  0  0  0
    6.2915    2.1529   -2.6641 Br  0  0  0  0  0  0  0  0  0  0  0  0
    5.2498    0.0985   -0.9123 C   0  0  0  0  0  0  0  0  0  0  0  0
    4.3394   -0.4366   -0.0216 C   0  0  0  0  0  0  0  0  0  0  0  0
    0.9224   -0.2694    0.9991 N   0  0  0  0  0  0  0  0  0  0  0  0
    0.4776   -0.7987   -0.2752 C   0  0  0  0  0  0  0  0  0  0  0  0
   -0.9283   -1.3370   -0.1175 C   0  0  0  0  0  0  0  0  0  0  0  0
   -1.9175   -0.3150    0.3031 C   0  0  2  0  0  0  0  0  0  0  0  0
   -3.1486   -0.9215    0.9458 C   0  0  0  0  0  0  0  0  0  0  0  0
   -2.8554   -1.7211    2.1757 C   0  0  0  0  0  0  0  0  0  0  0  0
   -4.1077   -2.2007    2.6315 O   0  0  0  0  0  0  0  0  0  0  0  0
   -2.4178    0.5392   -0.7982 C   0  0  0  0  0  0  0  0  0  0  0  0
   -2.0773    0.3825   -2.1138 C   0  0  0  0  0  0  0  0  0  0  0  0
   -2.5772    1.2264   -3.1077 C   0  0  0  0  0  0  0  0  0  0  0  0
   -3.4354    2.2517   -2.7960 C   0  0  0  0  0  0  0  0  0  0  0  0
   -3.9311    3.0863   -3.7716 F   0  0  0  0  0  0  0  0  0  0  0  0
   -3.7875    2.4224   -1.4764 C   0  0  0  0  0  0  0  0  0  0  0  0
   -3.2884    1.5851   -0.5083 C   0  0  0  0  0  0  0  0  0  0  0  0
   -1.3179    0.6041    1.2349 O   0  0  0  0  0  0  0  0  0  0  0  0
   -0.0680    0.3519    1.8076 C   0  0  0  0  0  0  0  0  0  0  0  0
    0.2224    0.6393    2.9763 O   0  0  0  0  0  0  0  0  0  0  0  0
    2.7518   -2.3540    0.4589 H   0  0  0  0  0  0  0  0  0  0  0  0
    1.8483   -2.4237    2.0319 H   0  0  0  0  0  0  0  0  0  0  0  0
    3.5687   -1.9977    2.0189 H   0  0  0  0  0  0  0  0  0  0  0  0
    2.5186    0.0397    2.3472 H   0  0  0  0  0  0  0  0  0  0  0  0
    2.1399    2.0624    0.2035 H   0  0  0  0  0  0  0  0  0  0  0  0
    3.7808    3.0373   -1.4068 H   0  0  0  0  0  0  0  0  0  0  0  0
    6.1230   -0.4687   -1.2178 H   0  0  0  0  0  0  0  0  0  0  0  0
    4.5695   -1.4405    0.3321 H   0  0  0  0  0  0  0  0  0  0  0  0
    0.4434   -0.0084   -1.0494 H   0  0  0  0  0  0  0  0  0  0  0  0
    1.1890   -1.5513   -0.6054 H   0  0  0  0  0  0  0  0  0  0  0  0
   -0.8787   -2.2052    0.5847 H   0  0  0  0  0  0  0  0  0  0  0  0
   -1.2306   -1.7789   -1.0805 H   0  0  0  0  0  0  0  0  0  0  0  0
   -3.8391   -0.1230    1.2184 H   0  0  0  0  0  0  0  0  0  0  0  0
   -3.6465   -1.5834    0.2155 H   0  0  0  0  0  0  0  0  0  0  0  0
   -2.5024   -1.0340    2.9626 H   0  0  0  0  0  0  0  0  0  0  0  0
   -2.2401   -2.6066    2.0362 H   0  0  0  0  0  0  0  0  0  0  0  0
   -4.6153   -1.4517    3.0453 H   0  0  0  0  0  0  0  0  0  0  0  0
   -1.4164   -0.3845   -2.4715 H   0  0  0  0  0  0  0  0  0  0  0  0
   -2.3063    1.0997   -4.1447 H   0  0  0  0  0  0  0  0  0  0  0  0
   -4.4613    3.2195   -1.1943 H   0  0  0  0  0  0  0  0  0  0  0  0
   -3.5913    1.7564    0.5378 H   0  0  0  0  0  0  0  0  0  0  0  0
  1  2  1  0
  2  3  1  0
  3  4  2  0
  4  5  1  0
  5  6  2  0
  6  7  1  0
  6  8  1  0
  8  9  2  0
  2 10  1  0
 10 11  1  0
 11 12  1  0
 12 13  1  0
 13 14  1  1
 14 15  1  0
 15 16  1  0
 13 17  1  0
 17 18  2  0
 18 19  1  0
 19 20  2  0
 20 21  1  0
 20 22  1  0
 22 23  2  0
 13 24  1  0
 24 25  1  0
 25 26  2  0
  9  3  1  0
 25 10  1  0
 23 17  1  0
  1 27  1  0
  1 28  1  0
  1 29  1  0
  2 30  1  1
  4 31  1  0
  5 32  1  0
  8 33  1  0
  9 34  1  0
 11 35  1  0
 11 36  1  0
 12 37  1  0
 12 38  1  0
 14 39  1  0
 14 40  1  0
 15 41  1  0
 15 42  1  0
 16 43  1  0
 18 44  1  0
 19 45  1  0
 22 46  1  0
 23 47  1  0
M  END
$$$$
