@<TRIPOS>MOLECULE
*****
 47 49 0 0 0
SMALL
GASTEIGER

@<TRIPOS>ATOM
      1 C           2.6150   -1.8899    1.4654 C.3     1  UNL1       -0.0421
      2 C           2.3102   -0.4092    1.3446 C.3     1  UNL1        0.0515
      3 C           3.2193    0.2506    0.3906 C.ar    1  UNL1       -0.0271
      4 C           3.0164    1.5116   -0.1121 C.ar    1  UNL1       -0.0558
      5 C           3.9308    2.0342   -0.9992 C.ar    1  UNL1       -0.0474
      6 C           5.0589    1.3591   -1.4230 C.ar    1  UNL1        0.0179
      7 BR          6.2915    2.1529   -2.6641 Br      1  UNL1       -0.0503
      8 C           5.2498    0.0985   -0.9123 C.ar    1  UNL1       -0.0474
      9 C           4.3394   -0.4366   -0.0216 C.ar    1  UNL1       -0.0558
     10 N           0.9224   -0.2694    0.9991 N.am    1  UNL1       -0.2605
     11 C           0.4776   -0.7987   -0.2752 C.3     1  UNL1        0.0224
     12 C          -0.9283   -1.3370   -0.1175 C.3     1  UNL1        0.0075
     13 C          -1.9175   -0.3150    0.3031 C.3     1  UNL1        0.1435
     14 C          -3.1486   -0.9215    0.9458 C.3     1  UNL1        0.0148
     15 C          -2.8554   -1.7211    2.1757 C.3     1  UNL1        0.0482
     16 O          -4.1077   -2.2007    2.6315 O.3     1  UNL1       -0.3949
     17 C          -2.4178    0.5392   -0.7982 C.ar    1  UNL1       -0.0039
     18 C          -2.0773    0.3825   -2.1138 C.ar    1  UNL1       -0.0521
     19 C          -2.5772    1.2264   -3.1077 C.ar    1  UNL1       -0.0261
     20 C          -3.4354    2.2517   -2.7960 C.ar    1  UNL1        0.1234
     21 F          -3.9311    3.0863   -3.7716 F       1  UNL1       -0.2055
     22 C          -3.7875    2.4224   -1.4764 C.ar    1  UNL1       -0.0261
     23 C          -3.2884    1.5851   -0.5083 C.ar    1  UNL1       -0.0521
     24 O          -1.3179    0.6041    1.2349 O.3     1  UNL1       -0.4388
     25 C          -0.0680    0.3519    1.8076 C.2     1  UNL1        0.4042
     26 O           0.2224    0.6393    2.9763 O.2     1  UNL1       -0.2262
     27 H           2.7518   -2.3540    0.4589 H       1  UNL1        0.0251
     28 H           1.8483   -2.4237    2.0319 H       1  UNL1        0.0251
     29 H           3.5687   -1.9977    2.0189 H       1  UNL1        0.0251
     30 H           2.5186    0.0397    2.3472 H       1  UNL1        0.0549
     31 H           2.1399    2.0624    0.2035 H       1  UNL1        0.0621
     32 H           3.7808    3.0373   -1.4068 H       1  UNL1        0.0629
     33 H           6.1230   -0.4687   -1.2178 H       1  UNL1        0.0629
     34 H           4.5695   -1.4405    0.3321 H       1  UNL1        0.0621
     35 H           0.4434   -0.0084   -1.0494 H       1  UNL1        0.0467
     36 H           1.1890   -1.5513   -0.6054 H       1  UNL1        0.0467
     37 H          -0.8787   -2.2052    0.5847 H       1  UNL1        0.0322
     38 H          -1.2306   -1.7789   -1.0805 H       1  UNL1        0.0322
     39 H          -3.8391   -0.1230    1.2184 H       1  UNL1        0.0329
     40 H          -3.6465   -1.5834    0.2155 H       1  UNL1        0.0329
     41 H          -2.5024   -1.0340    2.9626 H       1  UNL1        0.0558
     42 H          -2.2401   -2.6066    2.0362 H       1  UNL1        0.0558
     43 H          -4.6153   -1.4517    3.0453 H       1  UNL1        0.2094
     44 H          -1.4164   -0.3845   -2.4715 H       1  UNL1        0.0622
     45 H          -2.3063    1.0997   -4.1447 H       1  UNL1        0.0646
     46 H          -4.4613    3.2195   -1.1943 H       1  UNL1        0.0646
     47 H          -3.5913    1.7564    0.5378 H       1  UNL1        0.0622
@<TRIPOS>BOND
     1     1     2    1
     2     2     3    1
     3     3     4   ar
     4     4     5   ar
     5     5     6   ar
     6     6     7    1
     7     6     8   ar
     8     8     9   ar
     9     2    10    1
    10    10    11    1
    11    11    12    1
    12    12    13    1
    13    13    14    1
    14    14    15    1
    15    15    16    1
    16    13    17    1
    17    17    18   ar
    18    18    19   ar
    19    19    20   ar
    20    20    21    1
    21    20    22   ar
    22    22    23   ar
    23    13    24    1
    24    24    25    1
    25    25    26    2
    26     9     3   ar
    27    25    10   am
    28    23    17   ar
    29     1    27    1
    30     1    28    1
    31     1    29    1
    32     2    30    1
    33     4    31    1
    34     5    32    1
    35     8    33    1
    36     9    34    1
    37    11    35    1
    38    11    36    1
    39    12    37    1
    40    12    38    1
    41    14    39    1
    42    14    40    1
    43    15    41    1
    44    15    42    1
    45    16    43    1
    46    18    44    1
    47    19    45    1
    48    22    46    1
    49    23    47    1
