
     RDKit          3D

 47 47  0  0  0  0  0  0  0  0999 V2000
    4.0734   -0.2382   -1.8056 C   0  0  0  0  0  0  0  0  0  0  0  0
    3.3287   -0.9442   -0.7166 C   0  0  0  0  0  0  0  0  0  0  0  0
    4.0344   -0.9509    0.6021 C   0  0  0  0  0  0  0  0  0  0  0  0
    1.8995   -0.3571   -0.5827 C   0  0  0  0  0  0  0  0  0  0  0  0
    1.2636   -1.1213    0.5097 C   0  0  0  0  0  0  0  0  0  0  0  0
    1.2948   -2.8802   -0.0622 S   0  0  0  0  0  0  0  0  0  0  0  0
   -0.0606   -0.7470    1.0118 C   0  0  0  0  0  0  0  0  0  0  0  0
   -0.3294    0.5419    1.6343 C   0  0  0  0  0  0  0  0  0  0  0  0
   -0.1283    1.8023    0.9787 C   0  0  0  0  0  0  0  0  0  0  0  0
    1.0154    2.5474    1.2144 C   0  0  0  0  0  0  0  0  0  0  0  0
    1.2844    3.7594    0.6290 C   0  0  0  0  0  0  0  0  0  0  0  0
    0.3641    4.2799   -0.2531 C   0  0  0  0  0  0  0  0  0  0  0  0
   -0.8053    3.5551   -0.5171 C   0  0  0  0  0  0  0  0  0  0  0  0
   -1.0253    2.3430    0.0983 C   0  0  0  0  0  0  0  0  0  0  0  0
   -1.1201   -1.1681    0.0198 C   0  0  0  0  0  0  0  0  0  0  0  0
   -0.7383   -1.6799   -1.0468 O   0  0  0  0  0  0  0  0  0  0  0  0
   -2.5060   -1.0156    0.2382 N   0  0  0  0  0  0  0  0  0  0  0  0
   -3.4967   -1.4345   -0.7274 C   0  0  0  0  0  0  0  0  0  0  0  0
   -4.2302   -2.6457   -0.1783 C   0  0  0  0  0  0  0  0  0  0  0  0
   -4.4399   -0.3902   -1.1398 C   0  0  0  0  0  0  0  0  0  0  0  0
   -4.3707    0.7535   -0.6600 O   0  0  0  0  0  0  0  0  0  0  0  0
   -5.4149   -0.6752   -2.0689 O   0  0  0  0  0  0  0  0  0  0  0  0
    3.6744    0.7889   -1.9032 H   0  0  0  0  0  0  0  0  0  0  0  0
    5.1548   -0.2720   -1.5809 H   0  0  0  0  0  0  0  0  0  0  0  0
    3.8764   -0.7382   -2.7851 H   0  0  0  0  0  0  0  0  0  0  0  0
    3.1574   -2.0109   -1.0070 H   0  0  0  0  0  0  0  0  0  0  0  0
    3.9086   -1.9296    1.1435 H   0  0  0  0  0  0  0  0  0  0  0  0
    5.1431   -0.9009    0.3936 H   0  0  0  0  0  0  0  0  0  0  0  0
    3.7844   -0.0927    1.2309 H   0  0  0  0  0  0  0  0  0  0  0  0
    1.4483   -0.6522   -1.5863 H   0  0  0  0  0  0  0  0  0  0  0  0
    2.0318    0.7030   -0.4916 H   0  0  0  0  0  0  0  0  0  0  0  0
    2.0382   -1.1407    1.3477 H   0  0  0  0  0  0  0  0  0  0  0  0
    1.2905   -2.9423   -1.4477 H   0  0  0  0  0  0  0  0  0  0  0  0
   -0.2753   -1.5140    1.8598 H   0  0  0  0  0  0  0  0  0  0  0  0
   -1.3909    0.5256    2.0125 H   0  0  0  0  0  0  0  0  0  0  0  0
    0.2494    0.5374    2.6299 H   0  0  0  0  0  0  0  0  0  0  0  0
    1.7502    2.1432    1.9117 H   0  0  0  0  0  0  0  0  0  0  0  0
    2.1924    4.3252    0.8320 H   0  0  0  0  0  0  0  0  0  0  0  0
    0.4833    5.2180   -0.7605 H   0  0  0  0  0  0  0  0  0  0  0  0
   -1.5605    3.9239   -1.2049 H   0  0  0  0  0  0  0  0  0  0  0  0
   -1.9248    1.8118   -0.1218 H   0  0  0  0  0  0  0  0  0  0  0  0
   -2.8461   -0.5858    1.1264 H   0  0  0  0  0  0  0  0  0  0  0  0
   -2.9643   -1.7942   -1.6361 H   0  0  0  0  0  0  0  0  0  0  0  0
   -4.7995   -3.1540   -0.9719 H   0  0  0  0  0  0  0  0  0  0  0  0
   -4.8887   -2.2868    0.6330 H   0  0  0  0  0  0  0  0  0  0  0  0
   -3.4567   -3.3297    0.2189 H   0  0  0  0  0  0  0  0  0  0  0  0
   -5.9691    0.0328   -2.5400 H   0  0  0  0  0  0  0  0  0  0  0  0
  1  2  1  0
  2  3  1  0
  2  4  1  0
  4  5  1  0
  5  6  1  0
  5  7  1  0
  7  8  1  0
  8  9  1  0
  9 10  2  0
 10 11  1  0
 11 12  2  0
 12 13  1  0
 13 14  2  0
  7 15  1  0
 15 16  2  0
 15 17  1  0
 17 18  1  0
 18 19  1  0
 18 20  1  0
 20 21  2  0
 20 22  1  0
 14  9  1  0
  1 23  1  0
  1 24  1  0
  1 25  1  0
  2 26  1  0
  3 27  1  0
  3 28  1  0
  3 29  1  0
  4 30  1  0
  4 31  1  0
  5 32  1  0
  6 33  1  0
  7 34  1  0
  8 35  1  0
  8 36  1  0
 10 37  1  0
 11 38  1  0
 12 39  1  0
 13 40  1  0
 14 41  1  0
 17 42  1  0
 18 43  1  0
 19 44  1  0
 19 45  1  0
 19 46  1  0
 22 47  1  0
M  END
$$$$
