@<TRIPOS>MOLECULE
*****
 47 47 0 0 0
SMALL
GASTEIGER

@<TRIPOS>ATOM
      1 C           4.0734   -0.2382   -1.8056 C.3     0  UNK0       -0.0626
      2 C           3.3287   -0.9442   -0.7166 C.3     0  UNK0       -0.0457
      3 C           4.0344   -0.9509    0.6021 C.3     0  UNK0       -0.0626
      4 C           1.8995   -0.3571   -0.5827 C.3     0  UNK0       -0.0383
      5 C           1.2636   -1.1213    0.5097 C.3     0  UNK0        0.0139
      6 S           1.2948   -2.8802   -0.0622 S.3     0  UNK0       -0.1741
      7 C          -0.0606   -0.7470    1.0118 C.3     0  UNK0        0.0511
      8 C          -0.3294    0.5419    1.6343 C.3     0  UNK0       -0.0156
      9 C          -0.1283    1.8023    0.9787 C.ar    0  UNK0       -0.0466
     10 C           1.0154    2.5474    1.2144 C.ar    0  UNK0       -0.0586
     11 C           1.2844    3.7594    0.6290 C.ar    0  UNK0       -0.0615
     12 C           0.3641    4.2799   -0.2531 C.ar    0  UNK0       -0.0617
     13 C          -0.8053    3.5551   -0.5171 C.ar    0  UNK0       -0.0615
     14 C          -1.0253    2.3430    0.0983 C.ar    0  UNK0       -0.0586
     15 C          -1.1201   -1.1681    0.0198 C.2     0  UNK0        0.2181
     16 O          -0.7383   -1.6799   -1.0468 O.2     0  UNK0       -0.2754
     17 N          -2.5060   -1.0156    0.2382 N.am    1  ALA1       -0.3023
     18 CA         -3.4967   -1.4345   -0.7274 C.3     1  ALA1        0.1174
     19 CB         -4.2302   -2.6457   -0.1783 C.3     1  ALA1       -0.0362
     20 C          -4.4399   -0.3902   -1.1398 C.2     1  ALA1        0.3250
     21 O          -4.3707    0.7535   -0.6600 O.2     1  ALA1       -0.2489
     22 OXT        -5.4149   -0.6752   -2.0689 O.3     1  ALA1       -0.4793
     23 H           3.6744    0.7889   -1.9032 H       0  UNK0        0.0232
     24 H           5.1548   -0.2720   -1.5809 H       0  UNK0        0.0232
     25 H           3.8764   -0.7382   -2.7851 H       0  UNK0        0.0232
     26 H           3.1574   -2.0109   -1.0070 H       0  UNK0        0.0296
     27 H           3.9086   -1.9296    1.1435 H       0  UNK0        0.0232
     28 H           5.1431   -0.9009    0.3936 H       0  UNK0        0.0232
     29 H           3.7844   -0.0927    1.2309 H       0  UNK0        0.0232
     30 H           1.4483   -0.6522   -1.5863 H       0  UNK0        0.0278
     31 H           2.0318    0.7030   -0.4916 H       0  UNK0        0.0278
     32 H           2.0382   -1.1407    1.3477 H       0  UNK0        0.0417
     33 H           1.2905   -2.9423   -1.4477 H       0  UNK0        0.1019
     34 H          -0.2753   -1.5140    1.8598 H       0  UNK0        0.0408
     35 H          -1.3909    0.5256    2.0125 H       0  UNK0        0.0321
     36 H           0.2494    0.5374    2.6299 H       0  UNK0        0.0321
     37 H           1.7502    2.1432    1.9117 H       0  UNK0        0.0620
     38 H           2.1924    4.3252    0.8320 H       0  UNK0        0.0618
     39 H           0.4833    5.2180   -0.7605 H       0  UNK0        0.0618
     40 H          -1.5605    3.9239   -1.2049 H       0  UNK0        0.0618
     41 H          -1.9248    1.8118   -0.1218 H       0  UNK0        0.0620
     42 H          -2.8461   -0.5858    1.1264 H       1  ALA1        0.1495
     43 HA         -2.9643   -1.7942   -1.6361 H       1  ALA1        0.0611
     44 HB1        -4.7995   -3.1540   -0.9719 H       1  ALA1        0.0253
     45 HB2        -4.8887   -2.2868    0.6330 H       1  ALA1        0.0253
     46 HB3        -3.4567   -3.3297    0.2189 H       1  ALA1        0.0253
     47 HXT        -5.9691    0.0328   -2.5400 H       1  ALA1        0.2951
@<TRIPOS>BOND
     1     1     2    1
     2     2     3    1
     3     2     4    1
     4     4     5    1
     5     5     6    1
     6     5     7    1
     7     7     8    1
     8     8     9    1
     9     9    10   ar
    10    10    11   ar
    11    11    12   ar
    12    12    13   ar
    13    13    14   ar
    14     7    15    1
    15    15    16    2
    16    15    17   am
    17    17    18    1
    18    18    19    1
    19    18    20    1
    20    20    21    2
    21    20    22    1
    22    14     9   ar
    23     1    23    1
    24     1    24    1
    25     1    25    1
    26     2    26    1
    27     3    27    1
    28     3    28    1
    29     3    29    1
    30     4    30    1
    31     4    31    1
    32     5    32    1
    33     6    33    1
    34     7    34    1
    35     8    35    1
    36     8    36    1
    37    10    37    1
    38    11    38    1
    39    12    39    1
    40    13    40    1
    41    14    41    1
    42    17    42    1
    43    18    43    1
    44    19    44    1
    45    19    45    1
    46    19    46    1
    47    22    47    1
