@<TRIPOS>MOLECULE
*****
 69 72 0 0 0
SMALL
GASTEIGER

@<TRIPOS>ATOM
      1 C          -3.5802    0.6709   -3.5251 C.3     1  UNL1       -0.0526
      2 C          -4.9918    0.9467   -3.1652 C.3     1  UNL1       -0.0068
      3 N          -5.3066    0.9340   -1.7961 N.3     1  UNL1       -0.3137
      4 C          -4.8336    1.9367   -0.9282 C.3     1  UNL1        0.0237
      5 C          -3.3862    1.8570   -0.6277 C.3     1  UNL1        0.0862
      6 O          -3.0529    2.9469    0.2273 O.3     1  UNL1       -0.3887
      7 C          -2.9807    0.5770    0.1030 C.3     1  UNL1        0.0545
      8 C          -3.7642    0.3956    1.3650 C.3     1  UNL1       -0.0067
      9 C          -3.3851   -0.8332    2.0453 C.ar    1  UNL1       -0.0455
     10 C          -2.4435   -0.8441    3.0604 C.ar    1  UNL1       -0.0585
     11 C          -2.1145   -2.0571    3.6826 C.ar    1  UNL1       -0.0615
     12 C          -2.7080   -3.2456    3.3053 C.ar    1  UNL1       -0.0617
     13 C          -3.6274   -3.2269    2.3110 C.ar    1  UNL1       -0.0615
     14 C          -3.9595   -2.0406    1.6920 C.ar    1  UNL1       -0.0585
     15 N          -1.5548    0.6932    0.2854 N.am    1  UNL1       -0.3057
     16 C          -0.7116   -0.3037   -0.2496 C.2     1  UNL1        0.2445
     17 O          -1.2251   -1.2987   -0.8554 O.2     1  UNL1       -0.2702
     18 C           0.7433   -0.2679   -0.1569 C.ar    1  UNL1        0.0405
     19 C           1.3489    0.9306    0.1638 C.ar    1  UNL1       -0.0263
     20 C           2.7176    1.0295    0.2694 C.ar    1  UNL1        0.0607
     21 C           3.5195   -0.1041    0.0513 C.ar    1  UNL1        0.0257
     22 C           4.8629   -0.2937    0.0953 C.ar    1  UNL1       -0.0187
     23 C           5.0630   -1.6358   -0.2036 C.ar    1  UNL1        0.0090
     24 N           3.8832   -2.2394   -0.4241 N.ar    1  UNL1       -0.3466
     25 C           3.6789   -3.6311   -0.7832 C.3     1  UNL1        0.0205
     26 C           3.7499   -3.7784   -2.3061 C.3     1  UNL1       -0.0471
     27 C           2.9337   -1.3081   -0.2697 C.ar    1  UNL1        0.0519
     28 C           1.5441   -1.3515   -0.3645 C.ar    1  UNL1       -0.0254
     29 C           6.0330    0.5561    0.3663 C.3     1  UNL1       -0.0045
     30 C           5.7645    1.7547    1.2162 C.3     1  UNL1        0.0890
     31 S           4.7289    2.9451    0.4053 S.O2    1  UNL1        0.0455
     32 O           4.9095    4.3207    0.9257 O.2     1  UNL1       -0.1550
     33 O           5.0560    2.9104   -1.0764 O.2     1  UNL1       -0.1550
     34 N           3.1107    2.3537    0.5787 N.pl3   1  UNL1       -0.2098
     35 C           2.0933    3.2663    1.0508 C.3     1  UNL1        0.0232
     36 H          -3.5978    0.0921   -4.5086 H       1  UNL1        0.0242
     37 H          -3.0209    0.0447   -2.8096 H       1  UNL1        0.0242
     38 H          -3.0038    1.5841   -3.8097 H       1  UNL1        0.0242
     39 H          -5.6224    0.1400   -3.6628 H       1  UNL1        0.0421
     40 H          -5.2745    1.9153   -3.6750 H       1  UNL1        0.0421
     41 H          -6.0815    0.3515   -1.4710 H       1  UNL1        0.1220
     42 H          -5.4547    1.9929    0.0092 H       1  UNL1        0.0450
     43 H          -5.0217    2.9588   -1.3915 H       1  UNL1        0.0450
     44 H          -2.7714    1.9999   -1.5200 H       1  UNL1        0.0624
     45 H          -2.0930    3.1191    0.0697 H       1  UNL1        0.2099
     46 H          -3.2121   -0.2743   -0.5479 H       1  UNL1        0.0527
     47 H          -3.5997    1.2359    2.0904 H       1  UNL1        0.0332
     48 H          -4.8329    0.3088    1.0704 H       1  UNL1        0.0332
     49 H          -1.9750    0.0556    3.3756 H       1  UNL1        0.0620
     50 H          -1.3747   -2.0837    4.4911 H       1  UNL1        0.0618
     51 H          -2.4125   -4.1629    3.8216 H       1  UNL1        0.0618
     52 H          -4.1276   -4.1535    1.9799 H       1  UNL1        0.0618
     53 H          -4.6868   -2.0263    0.8957 H       1  UNL1        0.0620
     54 H          -1.1533    1.4829    0.8075 H       1  UNL1        0.1494
     55 H           0.7483    1.8078    0.3366 H       1  UNL1        0.0644
     56 H           6.0065   -2.1853   -0.2650 H       1  UNL1        0.0812
     57 H           4.4173   -4.3054   -0.3172 H       1  UNL1        0.0489
     58 H           2.6697   -3.9760   -0.5085 H       1  UNL1        0.0489
     59 H           4.8228   -3.9681   -2.5306 H       1  UNL1        0.0247
     60 H           3.3803   -2.8607   -2.8022 H       1  UNL1        0.0247
     61 H           3.1791   -4.6482   -2.6328 H       1  UNL1        0.0247
     62 H           1.0270   -2.2881   -0.6160 H       1  UNL1        0.0646
     63 H           6.7633   -0.0679    0.9625 H       1  UNL1        0.0330
     64 H           6.5687    0.8746   -0.5364 H       1  UNL1        0.0330
     65 H           6.7203    2.2493    1.4219 H       1  UNL1        0.0522
     66 H           5.3018    1.5038    2.1820 H       1  UNL1        0.0522
     67 H           2.6326    4.1585    1.4932 H       1  UNL1        0.0446
     68 H           1.4908    2.8683    1.8928 H       1  UNL1        0.0446
     69 H           1.4722    3.6914    0.2365 H       1  UNL1        0.0446
@<TRIPOS>BOND
     1     1     2    1
     2     2     3    1
     3     3     4    1
     4     4     5    1
     5     5     6    1
     6     5     7    1
     7     7     8    1
     8     8     9    1
     9     9    10   ar
    10    10    11   ar
    11    11    12   ar
    12    12    13   ar
    13    13    14   ar
    14     7    15    1
    15    15    16   am
    16    16    17    2
    17    16    18    1
    18    18    19   ar
    19    19    20   ar
    20    20    21   ar
    21    21    22   ar
    22    22    23   ar
    23    23    24   ar
    24    24    25    1
    25    25    26    1
    26    24    27   ar
    27    27    28   ar
    28    22    29    1
    29    29    30    1
    30    30    31    1
    31    31    32    2
    32    31    33    2
    33    31    34    1
    34    34    35    1
    35    14     9   ar
    36    28    18   ar
    37    34    20    1
    38    27    21   ar
    39     1    36    1
    40     1    37    1
    41     1    38    1
    42     2    39    1
    43     2    40    1
    44     3    41    1
    45     4    42    1
    46     4    43    1
    47     5    44    1
    48     6    45    1
    49     7    46    1
    50     8    47    1
    51     8    48    1
    52    10    49    1
    53    11    50    1
    54    12    51    1
    55    13    52    1
    56    14    53    1
    57    15    54    1
    58    19    55    1
    59    23    56    1
    60    25    57    1
    61    25    58    1
    62    26    59    1
    63    26    60    1
    64    26    61    1
    65    28    62    1
    66    29    63    1
    67    29    64    1
    68    30    65    1
    69    30    66    1
    70    35    67    1
    71    35    68    1
    72    35    69    1
