
     RDKit          3D

 69 72  0  0  0  0  0  0  0  0999 V2000
   -3.5802    0.6709   -3.5251 C   0  0  0  0  0  0  0  0  0  0  0  0
   -4.9918    0.9467   -3.1652 C   0  0  0  0  0  0  0  0  0  0  0  0
   -5.3066    0.9340   -1.7961 N   0  0  0  0  0  0  0  0  0  0  0  0
   -4.8336    1.9367   -0.9282 C   0  0  0  0  0  0  0  0  0  0  0  0
   -3.3862    1.8570   -0.6277 C   0  0  1  0  0  0  0  0  0  0  0  0
   -3.0529    2.9469    0.2273 O   0  0  0  0  0  0  0  0  0  0  0  0
   -2.9807    0.5770    0.1030 C   0  0  2  0  0  0  0  0  0  0  0  0
   -3.7642    0.3956    1.3650 C   0  0  0  0  0  0  0  0  0  0  0  0
   -3.3851   -0.8332    2.0453 C   0  0  0  0  0  0  0  0  0  0  0  0
   -2.4435   -0.8441    3.0604 C   0  0  0  0  0  0  0  0  0  0  0  0
   -2.1145   -2.0571    3.6826 C   0  0  0  0  0  0  0  0  0  0  0  0
   -2.7080   -3.2456    3.3053 C   0  0  0  0  0  0  0  0  0  0  0  0
   -3.6274   -3.2269    2.3110 C   0  0  0  0  0  0  0  0  0  0  0  0
   -3.9595   -2.0406    1.6920 C   0  0  0  0  0  0  0  0  0  0  0  0
   -1.5548    0.6932    0.2854 N   0  0  0  0  0  0  0  0  0  0  0  0
   -0.7116   -0.3037   -0.2496 C   0  0  0  0  0  0  0  0  0  0  0  0
   -1.2251   -1.2987   -0.8554 O   0  0  0  0  0  0  0  0  0  0  0  0
    0.7433   -0.2679   -0.1569 C   0  0  0  0  0  0  0  0  0  0  0  0
    1.3489    0.9306    0.1638 C   0  0  0  0  0  0  0  0  0  0  0  0
    2.7176    1.0295    0.2694 C   0  0  0  0  0  0  0  0  0  0  0  0
    3.5195   -0.1041    0.0513 C   0  0  0  0  0  0  0  0  0  0  0  0
    4.8629   -0.2937    0.0953 C   0  0  0  0  0  0  0  0  0  0  0  0
    5.0630   -1.6358   -0.2036 C   0  0  0  0  0  0  0  0  0  0  0  0
    3.8832   -2.2394   -0.4241 N   0  0  0  0  0  0  0  0  0  0  0  0
    3.6789   -3.6311   -0.7832 C   0  0  0  0  0  0  0  0  0  0  0  0
    3.7499   -3.7784   -2.3061 C   0  0  0  0  0  0  0  0  0  0  0  0
    2.9337   -1.3081   -0.2697 C   0  0  0  0  0  0  0  0  0  0  0  0
    1.5441   -1.3515   -0.3645 C   0  0  0  0  0  0  0  0  0  0  0  0
    6.0330    0.5561    0.3663 C   0  0  0  0  0  0  0  0  0  0  0  0
    5.7645    1.7547    1.2162 C   0  0  0  0  0  0  0  0  0  0  0  0
    4.7289    2.9451    0.4053 S   0  0  0  0  0  6  0  0  0  0  0  0
    4.9095    4.3207    0.9257 O   0  0  0  0  0  0  0  0  0  0  0  0
    5.0560    2.9104   -1.0764 O   0  0  0  0  0  0  0  0  0  0  0  0
    3.1107    2.3537    0.5787 N   0  0  0  0  0  0  0  0  0  0  0  0
    2.0933    3.2663    1.0508 C   0  0  0  0  0  0  0  0  0  0  0  0
   -3.5978    0.0921   -4.5086 H   0  0  0  0  0  0  0  0  0  0  0  0
   -3.0209    0.0447   -2.8096 H   0  0  0  0  0  0  0  0  0  0  0  0
   -3.0038    1.5841   -3.8097 H   0  0  0  0  0  0  0  0  0  0  0  0
   -5.6224    0.1400   -3.6628 H   0  0  0  0  0  0  0  0  0  0  0  0
   -5.2745    1.9153   -3.6750 H   0  0  0  0  0  0  0  0  0  0  0  0
   -6.0815    0.3515   -1.4710 H   0  0  0  0  0  0  0  0  0  0  0  0
   -5.4547    1.9929    0.0092 H   0  0  0  0  0  0  0  0  0  0  0  0
   -5.0217    2.9588   -1.3915 H   0  0  0  0  0  0  0  0  0  0  0  0
   -2.7714    1.9999   -1.5200 H   0  0  0  0  0  0  0  0  0  0  0  0
   -2.0930    3.1191    0.0697 H   0  0  0  0  0  0  0  0  0  0  0  0
   -3.2121   -0.2743   -0.5479 H   0  0  0  0  0  0  0  0  0  0  0  0
   -3.5997    1.2359    2.0904 H   0  0  0  0  0  0  0  0  0  0  0  0
   -4.8329    0.3088    1.0704 H   0  0  0  0  0  0  0  0  0  0  0  0
   -1.9750    0.0556    3.3756 H   0  0  0  0  0  0  0  0  0  0  0  0
   -1.3747   -2.0837    4.4911 H   0  0  0  0  0  0  0  0  0  0  0  0
   -2.4125   -4.1629    3.8216 H   0  0  0  0  0  0  0  0  0  0  0  0
   -4.1276   -4.1535    1.9799 H   0  0  0  0  0  0  0  0  0  0  0  0
   -4.6868   -2.0263    0.8957 H   0  0  0  0  0  0  0  0  0  0  0  0
   -1.1533    1.4829    0.8075 H   0  0  0  0  0  0  0  0  0  0  0  0
    0.7483    1.8078    0.3366 H   0  0  0  0  0  0  0  0  0  0  0  0
    6.0065   -2.1853   -0.2650 H   0  0  0  0  0  0  0  0  0  0  0  0
    4.4173   -4.3054   -0.3172 H   0  0  0  0  0  0  0  0  0  0  0  0
    2.6697   -3.9760   -0.5085 H   0  0  0  0  0  0  0  0  0  0  0  0
    4.8228   -3.9681   -2.5306 H   0  0  0  0  0  0  0  0  0  0  0  0
    3.3803   -2.8607   -2.8022 H   0  0  0  0  0  0  0  0  0  0  0  0
    3.1791   -4.6482   -2.6328 H   0  0  0  0  0  0  0  0  0  0  0  0
    1.0270   -2.2881   -0.6160 H   0  0  0  0  0  0  0  0  0  0  0  0
    6.7633   -0.0679    0.9625 H   0  0  0  0  0  0  0  0  0  0  0  0
    6.5687    0.8746   -0.5364 H   0  0  0  0  0  0  0  0  0  0  0  0
    6.7203    2.2493    1.4219 H   0  0  0  0  0  0  0  0  0  0  0  0
    5.3018    1.5038    2.1820 H   0  0  0  0  0  0  0  0  0  0  0  0
    2.6326    4.1585    1.4932 H   0  0  0  0  0  0  0  0  0  0  0  0
    1.4908    2.8683    1.8928 H   0  0  0  0  0  0  0  0  0  0  0  0
    1.4722    3.6914    0.2365 H   0  0  0  0  0  0  0  0  0  0  0  0
  1  2  1  0
  2  3  1  0
  3  4  1  0
  4  5  1  0
  5  6  1  0
  5  7  1  0
  7  8  1  0
  8  9  1  0
  9 10  2  0
 10 11  1  0
 11 12  2  0
 12 13  1  0
 13 14  2  0
  7 15  1  0
 15 16  1  0
 16 17  2  0
 16 18  1  0
 18 19  2  0
 19 20  1  0
 20 21  2  0
 21 22  1  0
 22 23  2  0
 23 24  1  0
 24 25  1  0
 25 26  1  0
 24 27  1  0
 27 28  2  0
 22 29  1  0
 29 30  1  0
 30 31  1  0
 31 32  2  0
 31 33  2  0
 31 34  1  0
 34 35  1  0
 14  9  1  0
 28 18  1  0
 34 20  1  0
 27 21  1  0
  1 36  1  0
  1 37  1  0
  1 38  1  0
  2 39  1  0
  2 40  1  0
  3 41  1  0
  4 42  1  0
  4 43  1  0
  5 44  1  6
  6 45  1  0
  7 46  1  6
  8 47  1  0
  8 48  1  0
 10 49  1  0
 11 50  1  0
 12 51  1  0
 13 52  1  0
 14 53  1  0
 15 54  1  0
 19 55  1  0
 23 56  1  0
 25 57  1  0
 25 58  1  0
 26 59  1  0
 26 60  1  0
 26 61  1  0
 28 62  1  0
 29 63  1  0
 29 64  1  0
 30 65  1  0
 30 66  1  0
 35 67  1  0
 35 68  1  0
 35 69  1  0
M  END
$$$$
