@<TRIPOS>MOLECULE
*****
 55 58 0 0 0
SMALL
GASTEIGER

@<TRIPOS>ATOM
      1 C           6.1145   -0.0007   -1.5524 C.3     1  UNL1       -0.0457
      2 C           5.0155   -0.6654   -0.7018 C.3     1  UNL1        0.0316
      3 C           3.7114   -0.0288   -1.1586 C.3     1  UNL1       -0.0457
      4 C           5.0588   -2.1319   -1.0139 C.3     1  UNL1       -0.0457
      5 N           5.3142   -0.3277    0.6486 N.3     1  UNL1       -0.1846
      6 S           4.3029   -0.9552    1.8499 S.O2    1  UNL1        0.0589
      7 O           4.8649   -0.4972    3.1914 O.2     1  UNL1       -0.1530
      8 O           4.3243   -2.4575    1.9189 O.2     1  UNL1       -0.1530
      9 C           2.6354   -0.4505    1.7417 C.ar    1  UNL1        0.1053
     10 C           2.3364    0.7672    2.3685 C.ar    1  UNL1       -0.0348
     11 C           1.0726    1.3338    2.4026 C.ar    1  UNL1       -0.0521
     12 C           0.0521    0.6477    1.7771 C.ar    1  UNL1       -0.0163
     13 C           0.3134   -0.5527    1.1515 C.ar    1  UNL1       -0.0521
     14 C           1.5739   -1.1094    1.1222 C.ar    1  UNL1       -0.0348
     15 C          -1.2786    1.2436    1.8114 C.ar    1  UNL1        0.0009
     16 C          -1.6606    2.0123    2.9151 C.ar    1  UNL1        0.0360
     17 N          -2.8806    2.5893    3.0036 N.ar    1  UNL1       -0.2543
     18 C          -3.7565    2.4200    1.9990 C.ar    1  UNL1        0.0728
     19 C          -5.0248    2.9560    1.9729 C.ar    1  UNL1       -0.0356
     20 C          -5.9503    2.8058    0.9633 C.ar    1  UNL1       -0.0580
     21 C          -5.5469    2.0342   -0.1282 C.ar    1  UNL1       -0.0398
     22 C          -4.2637    1.4706   -0.1407 C.ar    1  UNL1        0.0417
     23 N          -4.0808    0.7323   -1.3375 N.pl3   1  UNL1       -0.2989
     24 C          -3.8077   -0.5526   -1.8790 C.ar    1  UNL1        0.1229
     25 C          -2.6516   -1.1582   -2.3042 C.ar    1  UNL1       -0.0216
     26 C          -2.7346   -2.4448   -2.7733 C.ar    1  UNL1       -0.0571
     27 C          -3.9270   -3.1247   -2.8251 C.ar    1  UNL1       -0.0435
     28 C          -5.0757   -2.5016   -2.3949 C.ar    1  UNL1        0.0297
     29 N          -4.9780   -1.2372   -1.9366 N.ar    1  UNL1       -0.2402
     30 C          -3.4085    1.6693    0.9014 C.ar    1  UNL1        0.0221
     31 C          -2.1757    1.0691    0.7809 C.ar    1  UNL1       -0.0416
     32 H           6.2974   -0.5673   -2.4915 H       1  UNL1        0.0248
     33 H           5.8263    1.0474   -1.7299 H       1  UNL1        0.0248
     34 H           7.0529   -0.0903   -0.9687 H       1  UNL1        0.0248
     35 H           3.3290    0.6222   -0.3759 H       1  UNL1        0.0248
     36 H           2.9651   -0.8192   -1.3809 H       1  UNL1        0.0248
     37 H           3.8662    0.5904   -2.0510 H       1  UNL1        0.0248
     38 H           4.0935   -2.5501   -1.3665 H       1  UNL1        0.0248
     39 H           5.4330   -2.6817   -0.1168 H       1  UNL1        0.0248
     40 H           5.7979   -2.3589   -1.8106 H       1  UNL1        0.0248
     41 H           5.5337    0.6675    0.7277 H       1  UNL1        0.1486
     42 H           3.1038    1.3462    2.8752 H       1  UNL1        0.0637
     43 H           0.8907    2.2707    2.8962 H       1  UNL1        0.0624
     44 H          -0.4803   -1.0979    0.6585 H       1  UNL1        0.0624
     45 H           1.8613   -2.0247    0.6652 H       1  UNL1        0.0637
     46 H          -0.9637    2.1666    3.7500 H       1  UNL1        0.0836
     47 H          -5.3105    3.5497    2.8334 H       1  UNL1        0.0639
     48 H          -6.9140    3.2810    1.0678 H       1  UNL1        0.0619
     49 H          -6.3112    1.9483   -0.8918 H       1  UNL1        0.0636
     50 H          -4.1580    1.2652   -2.2355 H       1  UNL1        0.1536
     51 H          -1.8057   -0.5127   -2.2099 H       1  UNL1        0.0652
     52 H          -1.7896   -2.8729   -3.0954 H       1  UNL1        0.0619
     53 H          -3.9137   -4.1398   -3.2087 H       1  UNL1        0.0633
     54 H          -5.9809   -3.0875   -2.4608 H       1  UNL1        0.0830
     55 H          -1.9123    0.4929   -0.0662 H       1  UNL1        0.0631
@<TRIPOS>BOND
     1     1     2    1
     2     2     3    1
     3     2     4    1
     4     2     5    1
     5     5     6    1
     6     6     7    2
     7     6     8    2
     8     6     9    1
     9     9    10   ar
    10    10    11   ar
    11    11    12   ar
    12    12    13   ar
    13    13    14   ar
    14    12    15    1
    15    15    16   ar
    16    16    17   ar
    17    17    18   ar
    18    18    19   ar
    19    19    20   ar
    20    20    21   ar
    21    21    22   ar
    22    22    23    1
    23    23    24    1
    24    24    25   ar
    25    25    26   ar
    26    26    27   ar
    27    27    28   ar
    28    28    29   ar
    29    22    30   ar
    30    30    31   ar
    31    14     9   ar
    32    31    15   ar
    33    30    18   ar
    34    29    24   ar
    35     1    32    1
    36     1    33    1
    37     1    34    1
    38     3    35    1
    39     3    36    1
    40     3    37    1
    41     4    38    1
    42     4    39    1
    43     4    40    1
    44     5    41    1
    45    10    42    1
    46    11    43    1
    47    13    44    1
    48    14    45    1
    49    16    46    1
    50    19    47    1
    51    20    48    1
    52    21    49    1
    53    23    50    1
    54    25    51    1
    55    26    52    1
    56    27    53    1
    57    28    54    1
    58    31    55    1
