
     RDKit          3D

 55 58  0  0  0  0  0  0  0  0999 V2000
    6.1145   -0.0007   -1.5524 C   0  0  0  0  0  0  0  0  0  0  0  0
    5.0155   -0.6654   -0.7018 C   0  0  0  0  0  0  0  0  0  0  0  0
    3.7114   -0.0288   -1.1586 C   0  0  0  0  0  0  0  0  0  0  0  0
    5.0588   -2.1319   -1.0139 C   0  0  0  0  0  0  0  0  0  0  0  0
    5.3142   -0.3277    0.6486 N   0  0  0  0  0  0  0  0  0  0  0  0
    4.3029   -0.9552    1.8499 S   0  0  0  0  0  0  0  0  0  0  0  0
    4.8649   -0.4972    3.1914 O   0  0  0  0  0  0  0  0  0  0  0  0
    4.3243   -2.4575    1.9189 O   0  0  0  0  0  0  0  0  0  0  0  0
    2.6354   -0.4505    1.7417 C   0  0  0  0  0  0  0  0  0  0  0  0
    2.3364    0.7672    2.3685 C   0  0  0  0  0  0  0  0  0  0  0  0
    1.0726    1.3338    2.4026 C   0  0  0  0  0  0  0  0  0  0  0  0
    0.0521    0.6477    1.7771 C   0  0  0  0  0  0  0  0  0  0  0  0
    0.3134   -0.5527    1.1515 C   0  0  0  0  0  0  0  0  0  0  0  0
    1.5739   -1.1094    1.1222 C   0  0  0  0  0  0  0  0  0  0  0  0
   -1.2786    1.2436    1.8114 C   0  0  0  0  0  0  0  0  0  0  0  0
   -1.6606    2.0123    2.9151 C   0  0  0  0  0  0  0  0  0  0  0  0
   -2.8806    2.5893    3.0036 N   0  0  0  0  0  0  0  0  0  0  0  0
   -3.7565    2.4200    1.9990 C   0  0  0  0  0  0  0  0  0  0  0  0
   -5.0248    2.9560    1.9729 C   0  0  0  0  0  0  0  0  0  0  0  0
   -5.9503    2.8058    0.9633 C   0  0  0  0  0  0  0  0  0  0  0  0
   -5.5469    2.0342   -0.1282 C   0  0  0  0  0  0  0  0  0  0  0  0
   -4.2637    1.4706   -0.1407 C   0  0  0  0  0  0  0  0  0  0  0  0
   -4.0808    0.7323   -1.3375 N   0  0  0  0  0  0  0  0  0  0  0  0
   -3.8077   -0.5526   -1.8790 C   0  0  0  0  0  0  0  0  0  0  0  0
   -2.6516   -1.1582   -2.3042 C   0  0  0  0  0  0  0  0  0  0  0  0
   -2.7346   -2.4448   -2.7733 C   0  0  0  0  0  0  0  0  0  0  0  0
   -3.9270   -3.1247   -2.8251 C   0  0  0  0  0  0  0  0  0  0  0  0
   -5.0757   -2.5016   -2.3949 C   0  0  0  0  0  0  0  0  0  0  0  0
   -4.9780   -1.2372   -1.9366 N   0  0  0  0  0  0  0  0  0  0  0  0
   -3.4085    1.6693    0.9014 C   0  0  0  0  0  0  0  0  0  0  0  0
   -2.1757    1.0691    0.7809 C   0  0  0  0  0  0  0  0  0  0  0  0
    6.2974   -0.5673   -2.4915 H   0  0  0  0  0  0  0  0  0  0  0  0
    5.8263    1.0474   -1.7299 H   0  0  0  0  0  0  0  0  0  0  0  0
    7.0529   -0.0903   -0.9687 H   0  0  0  0  0  0  0  0  0  0  0  0
    3.3290    0.6222   -0.3759 H   0  0  0  0  0  0  0  0  0  0  0  0
    2.9651   -0.8192   -1.3809 H   0  0  0  0  0  0  0  0  0  0  0  0
    3.8662    0.5904   -2.0510 H   0  0  0  0  0  0  0  0  0  0  0  0
    4.0935   -2.5501   -1.3665 H   0  0  0  0  0  0  0  0  0  0  0  0
    5.4330   -2.6817   -0.1168 H   0  0  0  0  0  0  0  0  0  0  0  0
    5.7979   -2.3589   -1.8106 H   0  0  0  0  0  0  0  0  0  0  0  0
    5.5337    0.6675    0.7277 H   0  0  0  0  0  0  0  0  0  0  0  0
    3.1038    1.3462    2.8752 H   0  0  0  0  0  0  0  0  0  0  0  0
    0.8907    2.2707    2.8962 H   0  0  0  0  0  0  0  0  0  0  0  0
   -0.4803   -1.0979    0.6585 H   0  0  0  0  0  0  0  0  0  0  0  0
    1.8613   -2.0247    0.6652 H   0  0  0  0  0  0  0  0  0  0  0  0
   -0.9637    2.1666    3.7500 H   0  0  0  0  0  0  0  0  0  0  0  0
   -5.3105    3.5497    2.8334 H   0  0  0  0  0  0  0  0  0  0  0  0
   -6.9140    3.2810    1.0678 H   0  0  0  0  0  0  0  0  0  0  0  0
   -6.3112    1.9483   -0.8918 H   0  0  0  0  0  0  0  0  0  0  0  0
   -4.1580    1.2652   -2.2355 H   0  0  0  0  0  0  0  0  0  0  0  0
   -1.8057   -0.5127   -2.2099 H   0  0  0  0  0  0  0  0  0  0  0  0
   -1.7896   -2.8729   -3.0954 H   0  0  0  0  0  0  0  0  0  0  0  0
   -3.9137   -4.1398   -3.2087 H   0  0  0  0  0  0  0  0  0  0  0  0
   -5.9809   -3.0875   -2.4608 H   0  0  0  0  0  0  0  0  0  0  0  0
   -1.9123    0.4929   -0.0662 H   0  0  0  0  0  0  0  0  0  0  0  0
  1  2  1  0
  2  3  1  0
  2  4  1  0
  2  5  1  0
  5  6  1  0
  6  7  2  0
  6  8  2  0
  6  9  1  0
  9 10  2  0
 10 11  1  0
 11 12  2  0
 12 13  1  0
 13 14  2  0
 12 15  1  0
 15 16  2  0
 16 17  1  0
 17 18  2  0
 18 19  1  0
 19 20  2  0
 20 21  1  0
 21 22  2  0
 22 23  1  0
 23 24  1  0
 24 25  2  0
 25 26  1  0
 26 27  2  0
 27 28  1  0
 28 29  2  0
 22 30  1  0
 30 31  2  0
 14  9  1  0
 31 15  1  0
 30 18  1  0
 29 24  1  0
  1 32  1  0
  1 33  1  0
  1 34  1  0
  3 35  1  0
  3 36  1  0
  3 37  1  0
  4 38  1  0
  4 39  1  0
  4 40  1  0
  5 41  1  0
 10 42  1  0
 11 43  1  0
 13 44  1  0
 14 45  1  0
 16 46  1  0
 19 47  1  0
 20 48  1  0
 21 49  1  0
 23 50  1  0
 25 51  1  0
 26 52  1  0
 27 53  1  0
 28 54  1  0
 31 55  1  0
M  END
$$$$
