
     RDKit          3D

 39 40  0  0  0  0  0  0  0  0999 V2000
    2.6207    3.2027   -0.5691 C   0  0  0  0  0  0  0  0  0  0  0  0
    3.1400    1.7824   -0.5702 C   0  0  0  0  0  0  0  0  0  0  0  0
    2.1617    0.8124   -0.7732 O   0  0  0  0  0  0  0  0  0  0  0  0
    1.0949    0.6884    0.1041 C   0  0  0  0  0  0  0  0  0  0  0  0
    1.5750    1.6406    0.7638 O   0  0  0  0  0  0  0  0  0  0  0  0
   -0.0707   -0.2295    0.1420 C   0  0  0  0  0  0  0  0  0  0  0  0
   -0.8605   -0.1117   -1.1413 C   0  0  0  0  0  0  0  0  0  0  0  0
   -2.3338    0.0696   -0.8417 C   0  0  0  0  0  0  0  0  0  0  0  0
   -2.4996    1.3157   -0.1498 N   0  0  0  0  0  0  0  0  0  0  0  0
   -3.8570    1.6313    0.1796 C   0  0  0  0  0  0  0  0  0  0  0  0
   -1.5458    1.5507    0.8892 C   0  0  0  0  0  0  0  0  0  0  0  0
   -0.9349    0.2015    1.2821 C   0  0  0  0  0  0  0  0  0  0  0  0
    0.4080   -1.6106    0.2412 C   0  0  0  0  0  0  0  0  0  0  0  0
    1.4417   -2.0785   -0.5426 C   0  0  0  0  0  0  0  0  0  0  0  0
    1.9222   -3.3902   -0.4714 C   0  0  0  0  0  0  0  0  0  0  0  0
    1.3469   -4.2720    0.4194 C   0  0  0  0  0  0  0  0  0  0  0  0
    0.3133   -3.8329    1.2146 C   0  0  0  0  0  0  0  0  0  0  0  0
   -0.1256   -2.5315    1.1084 C   0  0  0  0  0  0  0  0  0  0  0  0
    2.7372    3.6467    0.4526 H   0  0  0  0  0  0  0  0  0  0  0  0
    1.5610    3.2853   -0.8995 H   0  0  0  0  0  0  0  0  0  0  0  0
    3.2602    3.8332   -1.2449 H   0  0  0  0  0  0  0  0  0  0  0  0
    3.7247    1.6204    0.3781 H   0  0  0  0  0  0  0  0  0  0  0  0
    3.8977    1.6498   -1.3844 H   0  0  0  0  0  0  0  0  0  0  0  0
   -0.7781   -1.0086   -1.7899 H   0  0  0  0  0  0  0  0  0  0  0  0
   -0.4974    0.7575   -1.7258 H   0  0  0  0  0  0  0  0  0  0  0  0
   -2.8362    0.2021   -1.8428 H   0  0  0  0  0  0  0  0  0  0  0  0
   -2.7247   -0.8084   -0.3149 H   0  0  0  0  0  0  0  0  0  0  0  0
   -4.1938    2.4304   -0.5319 H   0  0  0  0  0  0  0  0  0  0  0  0
   -4.4947    0.7432    0.0156 H   0  0  0  0  0  0  0  0  0  0  0  0
   -3.9934    2.0475    1.2011 H   0  0  0  0  0  0  0  0  0  0  0  0
   -1.9468    2.0738    1.7768 H   0  0  0  0  0  0  0  0  0  0  0  0
   -0.6973    2.1539    0.5046 H   0  0  0  0  0  0  0  0  0  0  0  0
   -1.7963   -0.4516    1.4743 H   0  0  0  0  0  0  0  0  0  0  0  0
   -0.3802    0.3084    2.2332 H   0  0  0  0  0  0  0  0  0  0  0  0
    1.9489   -1.4557   -1.2674 H   0  0  0  0  0  0  0  0  0  0  0  0
    2.7316   -3.7551   -1.0858 H   0  0  0  0  0  0  0  0  0  0  0  0
    1.7170   -5.2848    0.4752 H   0  0  0  0  0  0  0  0  0  0  0  0
   -0.1082   -4.5510    1.8959 H   0  0  0  0  0  0  0  0  0  0  0  0
   -0.9277   -2.2754    1.7593 H   0  0  0  0  0  0  0  0  0  0  0  0
  1  2  1  0
  2  3  1  0
  3  4  1  0
  4  5  2  0
  4  6  1  0
  6  7  1  0
  7  8  1  0
  8  9  1  0
  9 10  1  0
  9 11  1  0
 11 12  1  0
  6 13  1  0
 13 14  2  0
 14 15  1  0
 15 16  2  0
 16 17  1  0
 17 18  2  0
 12  6  1  0
 18 13  1  0
  1 19  1  0
  1 20  1  0
  1 21  1  0
  2 22  1  0
  2 23  1  0
  7 24  1  0
  7 25  1  0
  8 26  1  0
  8 27  1  0
 10 28  1  0
 10 29  1  0
 10 30  1  0
 11 31  1  0
 11 32  1  0
 12 33  1  0
 12 34  1  0
 14 35  1  0
 15 36  1  0
 16 37  1  0
 17 38  1  0
 18 39  1  0
M  END
$$$$
