@<TRIPOS>MOLECULE
*****
 36 38 0 0 0
SMALL
GASTEIGER

@<TRIPOS>ATOM
      1 C           6.1444   -0.9017    0.3055 C.3     1  UNL1       -0.0306
      2 C           4.8585   -1.4434   -0.2532 C.3     1  UNL1        0.0900
      3 O           3.7980   -0.5599    0.0846 O.3     1  UNL1       -0.4603
      4 C           2.4893   -0.7409   -0.2616 C.2     1  UNL1        0.3595
      5 O           2.4216   -1.8086   -0.9150 O.2     1  UNL1       -0.2432
      6 C           1.4153    0.1747    0.0931 C.ar    1  UNL1        0.1703
      7 C           0.0776    0.0583   -0.2185 C.ar    1  UNL1        0.0747
      8 C          -0.5574   -1.0166   -0.9721 C.3     1  UNL1        0.0576
      9 N          -1.8214   -1.4808   -0.4503 N.am    1  UNL1       -0.2947
     10 C          -2.0533   -2.9303   -0.3649 C.3     1  UNL1        0.0039
     11 C          -2.9604   -0.7610    0.0284 C.2     1  UNL1        0.2488
     12 O          -4.0428   -1.3161    0.3415 O.2     1  UNL1       -0.2699
     13 C          -2.9553    0.7065    0.1944 C.ar    1  UNL1        0.0634
     14 C          -1.8557    1.5585    0.3270 C.ar    1  UNL1        0.0601
     15 C          -1.9533    2.9182    0.4725 C.ar    1  UNL1       -0.0344
     16 C          -3.2414    3.4206    0.4821 C.ar    1  UNL1       -0.0245
     17 C          -4.3630    2.6257    0.3552 C.ar    1  UNL1        0.1242
     18 F          -5.6319    3.0888    0.3612 F       1  UNL1       -0.2055
     19 C          -4.2413    1.2524    0.2088 C.ar    1  UNL1       -0.0123
     20 N          -0.4914    1.1582    0.3355 N.ar    1  UNL1       -0.2997
     21 C           0.4319    1.9146    0.9549 C.ar    1  UNL1        0.1016
     22 N           1.6383    1.2946    0.8027 N.ar    1  UNL1       -0.2285
     23 H           6.8828   -1.6806    0.5706 H       1  UNL1        0.0262
     24 H           6.6488   -0.2117   -0.4242 H       1  UNL1        0.0262
     25 H           5.9508   -0.2570    1.2029 H       1  UNL1        0.0262
     26 H           4.9750   -1.5026   -1.3508 H       1  UNL1        0.0695
     27 H           4.6685   -2.4694    0.1347 H       1  UNL1        0.0695
     28 H          -0.6893   -0.7746   -2.0634 H       1  UNL1        0.0529
     29 H           0.1044   -1.9075   -0.9692 H       1  UNL1        0.0529
     30 H          -1.1507   -3.5081   -0.6436 H       1  UNL1        0.0429
     31 H          -2.3858   -3.1224    0.6803 H       1  UNL1        0.0429
     32 H          -2.8849   -3.2316   -1.0333 H       1  UNL1        0.0429
     33 H          -1.1550    3.6066    0.5717 H       1  UNL1        0.0639
     34 H          -3.4423    4.4822    0.5914 H       1  UNL1        0.0647
     35 H          -5.0293    0.5236    0.1009 H       1  UNL1        0.0654
     36 H           0.4006    2.8413    1.5070 H       1  UNL1        0.1032
@<TRIPOS>BOND
     1     1     2    1
     2     2     3    1
     3     3     4    1
     4     4     5    2
     5     4     6    1
     6     6     7   ar
     7     7     8    1
     8     8     9    1
     9     9    10    1
    10     9    11   am
    11    11    12    2
    12    11    13    1
    13    13    14   ar
    14    14    15   ar
    15    15    16   ar
    16    16    17   ar
    17    17    18    1
    18    17    19   ar
    19    14    20    1
    20    20    21   ar
    21    21    22   ar
    22    22     6   ar
    23    20     7   ar
    24    19    13   ar
    25     1    23    1
    26     1    24    1
    27     1    25    1
    28     2    26    1
    29     2    27    1
    30     8    28    1
    31     8    29    1
    32    10    30    1
    33    10    31    1
    34    10    32    1
    35    15    33    1
    36    16    34    1
    37    19    35    1
    38    21    36    1
