@<TRIPOS>MOLECULE
*****
 79 83 0 0 0
SMALL
GASTEIGER

@<TRIPOS>ATOM
      1 C           8.1641    3.6626   -0.5981 C.3     1  UNL1        0.0124
      2 C           8.2059    2.2170   -0.2623 C.2     1  UNL1        0.2125
      3 O           9.3242    1.6442   -0.2696 O.2     1  UNL1       -0.2759
      4 N           6.9987    1.5410    0.0510 N.am    1  UNL1       -0.3017
      5 C           7.0286    0.1302    0.3810 C.3     1  UNL1        0.0153
      6 C           6.1087   -0.5549   -0.5712 C.3     1  UNL1       -0.0260
      7 C           4.7045   -0.0225   -0.5867 C.3     1  UNL1        0.0386
      8 C           3.9024   -0.8002    0.3962 C.2     1  UNL1        0.2188
      9 O           4.4636   -1.6798    1.0939 O.2     1  UNL1       -0.2753
     10 N           2.5111   -0.5913    0.5837 N.am    1  UNL1       -0.3000
     11 C           1.6372   -1.3011    1.5310 C.3     1  UNL1        0.0222
     12 C           0.4267   -1.6012    0.6474 C.3     1  UNL1        0.0114
     13 C           0.7047   -2.8790   -0.0556 C.ar    1  UNL1       -0.0390
     14 C           1.4174   -2.9338   -1.2307 C.ar    1  UNL1       -0.0553
     15 C           1.6565   -4.1407   -1.8482 C.ar    1  UNL1       -0.0262
     16 C           1.1813   -5.3077   -1.2902 C.ar    1  UNL1        0.1237
     17 F           1.4130   -6.4984   -1.8926 F       1  UNL1       -0.2055
     18 C           0.4736   -5.2419   -0.1206 C.ar    1  UNL1       -0.0233
     19 C           0.2252   -4.0476    0.5094 C.ar    1  UNL1       -0.0442
     20 C          -0.5536   -3.9855    1.7944 C.3     1  UNL1       -0.0394
     21 C           0.3305   -0.4762   -0.3195 C.3     1  UNL1        0.0462
     22 C          -0.9045    0.3588   -0.0918 C.ar    1  UNL1        0.1770
     23 N          -1.2264    1.0367    1.0316 N.ar    1  UNL1       -0.0609
     24 O          -2.3700    1.6262    0.8274 O.2     1  UNL1       -0.3371
     25 C          -2.8310    1.3852   -0.3591 C.ar    1  UNL1        0.2374
     26 C          -4.1039    1.8742   -0.9717 C.3     1  UNL1        0.0688
     27 C          -4.1556    1.3901   -2.4264 C.3     1  UNL1       -0.0472
     28 C          -4.0595    3.3671   -1.0164 C.3     1  UNL1       -0.0472
     29 C          -5.2861    1.3546   -0.2544 C.ar    1  UNL1       -0.0317
     30 C          -5.5926    0.0131   -0.1816 C.ar    1  UNL1       -0.0459
     31 C          -6.7082   -0.4415    0.4970 C.ar    1  UNL1        0.0556
     32 C          -6.9944   -1.8874    0.5473 C.3     1  UNL1        0.4174
     33 F          -7.8776   -2.2099    1.5615 F       1  UNL1       -0.1659
     34 F          -5.8160   -2.6158    0.6514 F       1  UNL1       -0.1659
     35 F          -7.5560   -2.2384   -0.6769 F       1  UNL1       -0.1659
     36 C          -7.5590    0.4316    1.1285 C.ar    1  UNL1       -0.0385
     37 C          -7.2694    1.7964    1.0690 C.ar    1  UNL1        0.0556
     38 C          -8.1898    2.7443    1.7518 C.3     1  UNL1        0.4174
     39 F          -9.5025    2.3182    1.6673 F       1  UNL1       -0.1659
     40 F          -8.1202    3.9341    1.0146 F       1  UNL1       -0.1659
     41 F          -7.8054    3.0267    3.0390 F       1  UNL1       -0.1659
     42 C          -6.1431    2.2204    0.3806 C.ar    1  UNL1       -0.0459
     43 N          -1.9201    0.5910   -0.9455 N.ar    1  UNL1       -0.1950
     44 C           1.5946    0.3278   -0.0769 C.3     1  UNL1        0.0251
     45 C           4.5442    1.4175   -0.2945 C.3     1  UNL1       -0.0260
     46 C           5.7445    2.2099    0.0530 C.3     1  UNL1        0.0153
     47 H           7.4854    3.8600   -1.4429 H       1  UNL1        0.0323
     48 H           9.1676    4.0299   -0.9273 H       1  UNL1        0.0323
     49 H           7.9225    4.2707    0.3112 H       1  UNL1        0.0323
     50 H           6.6556    0.0217    1.4272 H       1  UNL1        0.0465
     51 H           8.0331   -0.2967    0.2576 H       1  UNL1        0.0465
     52 H           6.1419   -1.6506   -0.3522 H       1  UNL1        0.0288
     53 H           6.5217   -0.4288   -1.6036 H       1  UNL1        0.0288
     54 H           4.2384   -0.2869   -1.5892 H       1  UNL1        0.0395
     55 H           1.3399   -0.5770    2.3166 H       1  UNL1        0.0471
     56 H           2.1009   -2.2147    1.9161 H       1  UNL1        0.0471
     57 H          -0.4976   -1.6655    1.2616 H       1  UNL1        0.0372
     58 H           1.8142   -2.0494   -1.7069 H       1  UNL1        0.0621
     59 H           2.2276   -4.1799   -2.7893 H       1  UNL1        0.0646
     60 H           0.1015   -6.1580    0.3161 H       1  UNL1        0.0649
     61 H           0.0031   -3.4153    2.5656 H       1  UNL1        0.0278
     62 H          -0.8315   -4.9983    2.0893 H       1  UNL1        0.0278
     63 H          -1.5146   -3.4428    1.5703 H       1  UNL1        0.0278
     64 H           0.2409   -0.8411   -1.3608 H       1  UNL1        0.0402
     65 H          -4.2782    0.2872   -2.3706 H       1  UNL1        0.0243
     66 H          -3.2247    1.6091   -2.9569 H       1  UNL1        0.0243
     67 H          -5.0530    1.8475   -2.8912 H       1  UNL1        0.0243
     68 H          -3.1956    3.6581   -1.6550 H       1  UNL1        0.0243
     69 H          -3.8360    3.7977    0.0025 H       1  UNL1        0.0243
     70 H          -5.0201    3.7832   -1.4007 H       1  UNL1        0.0243
     71 H          -4.9242   -0.6768   -0.6781 H       1  UNL1        0.0626
     72 H          -8.4453    0.1182    1.6721 H       1  UNL1        0.0629
     73 H          -5.9464    3.2792    0.3526 H       1  UNL1        0.0626
     74 H           1.3470    1.1962    0.5725 H       1  UNL1        0.0472
     75 H           2.0117    0.7328   -1.0165 H       1  UNL1        0.0472
     76 H           4.1021    1.9018   -1.2223 H       1  UNL1        0.0288
     77 H           3.7040    1.5639    0.4570 H       1  UNL1        0.0288
     78 H           5.7987    3.1838   -0.5234 H       1  UNL1        0.0465
     79 H           5.5929    2.5770    1.1161 H       1  UNL1        0.0465
@<TRIPOS>BOND
     1     1     2    1
     2     2     3    2
     3     2     4   am
     4     4     5    1
     5     5     6    1
     6     6     7    1
     7     7     8    1
     8     8     9    2
     9     8    10   am
    10    10    11    1
    11    11    12    1
    12    12    13    1
    13    13    14   ar
    14    14    15   ar
    15    15    16   ar
    16    16    17    1
    17    16    18   ar
    18    18    19   ar
    19    19    20    1
    20    12    21    1
    21    21    22    1
    22    22    23   ar
    23    23    24   ar
    24    24    25   ar
    25    25    26    1
    26    26    27    1
    27    26    28    1
    28    26    29    1
    29    29    30   ar
    30    30    31   ar
    31    31    32    1
    32    32    33    1
    33    32    34    1
    34    32    35    1
    35    31    36   ar
    36    36    37   ar
    37    37    38    1
    38    38    39    1
    39    38    40    1
    40    38    41    1
    41    37    42   ar
    42    25    43   ar
    43    21    44    1
    44     7    45    1
    45    45    46    1
    46    46     4    1
    47    44    10    1
    48    19    13   ar
    49    43    22   ar
    50    42    29   ar
    51     1    47    1
    52     1    48    1
    53     1    49    1
    54     5    50    1
    55     5    51    1
    56     6    52    1
    57     6    53    1
    58     7    54    1
    59    11    55    1
    60    11    56    1
    61    12    57    1
    62    14    58    1
    63    15    59    1
    64    18    60    1
    65    20    61    1
    66    20    62    1
    67    20    63    1
    68    21    64    1
    69    27    65    1
    70    27    66    1
    71    27    67    1
    72    28    68    1
    73    28    69    1
    74    28    70    1
    75    30    71    1
    76    36    72    1
    77    42    73    1
    78    44    74    1
    79    44    75    1
    80    45    76    1
    81    45    77    1
    82    46    78    1
    83    46    79    1
