
     RDKit          3D

 79 83  0  0  0  0  0  0  0  0999 V2000
    8.1641    3.6626   -0.5981 C   0  0  0  0  0  0  0  0  0  0  0  0
    8.2059    2.2170   -0.2623 C   0  0  0  0  0  0  0  0  0  0  0  0
    9.3242    1.6442   -0.2696 O   0  0  0  0  0  0  0  0  0  0  0  0
    6.9987    1.5410    0.0510 N   0  0  0  0  0  0  0  0  0  0  0  0
    7.0286    0.1302    0.3810 C   0  0  0  0  0  0  0  0  0  0  0  0
    6.1087   -0.5549   -0.5712 C   0  0  0  0  0  0  0  0  0  0  0  0
    4.7045   -0.0225   -0.5867 C   0  0  0  0  0  0  0  0  0  0  0  0
    3.9024   -0.8002    0.3962 C   0  0  0  0  0  0  0  0  0  0  0  0
    4.4636   -1.6798    1.0939 O   0  0  0  0  0  0  0  0  0  0  0  0
    2.5111   -0.5913    0.5837 N   0  0  0  0  0  0  0  0  0  0  0  0
    1.6372   -1.3011    1.5310 C   0  0  0  0  0  0  0  0  0  0  0  0
    0.4267   -1.6012    0.6474 C   0  0  2  0  0  0  0  0  0  0  0  0
    0.7047   -2.8790   -0.0556 C   0  0  0  0  0  0  0  0  0  0  0  0
    1.4174   -2.9338   -1.2307 C   0  0  0  0  0  0  0  0  0  0  0  0
    1.6565   -4.1407   -1.8482 C   0  0  0  0  0  0  0  0  0  0  0  0
    1.1813   -5.3077   -1.2902 C   0  0  0  0  0  0  0  0  0  0  0  0
    1.4130   -6.4984   -1.8926 F   0  0  0  0  0  0  0  0  0  0  0  0
    0.4736   -5.2419   -0.1206 C   0  0  0  0  0  0  0  0  0  0  0  0
    0.2252   -4.0476    0.5094 C   0  0  0  0  0  0  0  0  0  0  0  0
   -0.5536   -3.9855    1.7944 C   0  0  0  0  0  0  0  0  0  0  0  0
    0.3305   -0.4762   -0.3195 C   0  0  1  0  0  0  0  0  0  0  0  0
   -0.9045    0.3588   -0.0918 C   0  0  0  0  0  0  0  0  0  0  0  0
   -1.2264    1.0367    1.0316 N   0  0  0  0  0  0  0  0  0  0  0  0
   -2.3700    1.6262    0.8274 O   0  0  0  0  0  0  0  0  0  0  0  0
   -2.8310    1.3852   -0.3591 C   0  0  0  0  0  0  0  0  0  0  0  0
   -4.1039    1.8742   -0.9717 C   0  0  0  0  0  0  0  0  0  0  0  0
   -4.1556    1.3901   -2.4264 C   0  0  0  0  0  0  0  0  0  0  0  0
   -4.0595    3.3671   -1.0164 C   0  0  0  0  0  0  0  0  0  0  0  0
   -5.2861    1.3546   -0.2544 C   0  0  0  0  0  0  0  0  0  0  0  0
   -5.5926    0.0131   -0.1816 C   0  0  0  0  0  0  0  0  0  0  0  0
   -6.7082   -0.4415    0.4970 C   0  0  0  0  0  0  0  0  0  0  0  0
   -6.9944   -1.8874    0.5473 C   0  0  0  0  0  0  0  0  0  0  0  0
   -7.8776   -2.2099    1.5615 F   0  0  0  0  0  0  0  0  0  0  0  0
   -5.8160   -2.6158    0.6514 F   0  0  0  0  0  0  0  0  0  0  0  0
   -7.5560   -2.2384   -0.6769 F   0  0  0  0  0  0  0  0  0  0  0  0
   -7.5590    0.4316    1.1285 C   0  0  0  0  0  0  0  0  0  0  0  0
   -7.2694    1.7964    1.0690 C   0  0  0  0  0  0  0  0  0  0  0  0
   -8.1898    2.7443    1.7518 C   0  0  0  0  0  0  0  0  0  0  0  0
   -9.5025    2.3182    1.6673 F   0  0  0  0  0  0  0  0  0  0  0  0
   -8.1202    3.9341    1.0146 F   0  0  0  0  0  0  0  0  0  0  0  0
   -7.8054    3.0267    3.0390 F   0  0  0  0  0  0  0  0  0  0  0  0
   -6.1431    2.2204    0.3806 C   0  0  0  0  0  0  0  0  0  0  0  0
   -1.9201    0.5910   -0.9455 N   0  0  0  0  0  0  0  0  0  0  0  0
    1.5946    0.3278   -0.0769 C   0  0  0  0  0  0  0  0  0  0  0  0
    4.5442    1.4175   -0.2945 C   0  0  0  0  0  0  0  0  0  0  0  0
    5.7445    2.2099    0.0530 C   0  0  0  0  0  0  0  0  0  0  0  0
    7.4854    3.8600   -1.4429 H   0  0  0  0  0  0  0  0  0  0  0  0
    9.1676    4.0299   -0.9273 H   0  0  0  0  0  0  0  0  0  0  0  0
    7.9225    4.2707    0.3112 H   0  0  0  0  0  0  0  0  0  0  0  0
    6.6556    0.0217    1.4272 H   0  0  0  0  0  0  0  0  0  0  0  0
    8.0331   -0.2967    0.2576 H   0  0  0  0  0  0  0  0  0  0  0  0
    6.1419   -1.6506   -0.3522 H   0  0  0  0  0  0  0  0  0  0  0  0
    6.5217   -0.4288   -1.6036 H   0  0  0  0  0  0  0  0  0  0  0  0
    4.2384   -0.2869   -1.5892 H   0  0  0  0  0  0  0  0  0  0  0  0
    1.3399   -0.5770    2.3166 H   0  0  0  0  0  0  0  0  0  0  0  0
    2.1009   -2.2147    1.9161 H   0  0  0  0  0  0  0  0  0  0  0  0
   -0.4976   -1.6655    1.2616 H   0  0  0  0  0  0  0  0  0  0  0  0
    1.8142   -2.0494   -1.7069 H   0  0  0  0  0  0  0  0  0  0  0  0
    2.2276   -4.1799   -2.7893 H   0  0  0  0  0  0  0  0  0  0  0  0
    0.1015   -6.1580    0.3161 H   0  0  0  0  0  0  0  0  0  0  0  0
    0.0031   -3.4153    2.5656 H   0  0  0  0  0  0  0  0  0  0  0  0
   -0.8315   -4.9983    2.0893 H   0  0  0  0  0  0  0  0  0  0  0  0
   -1.5146   -3.4428    1.5703 H   0  0  0  0  0  0  0  0  0  0  0  0
    0.2409   -0.8411   -1.3608 H   0  0  0  0  0  0  0  0  0  0  0  0
   -4.2782    0.2872   -2.3706 H   0  0  0  0  0  0  0  0  0  0  0  0
   -3.2247    1.6091   -2.9569 H   0  0  0  0  0  0  0  0  0  0  0  0
   -5.0530    1.8475   -2.8912 H   0  0  0  0  0  0  0  0  0  0  0  0
   -3.1956    3.6581   -1.6550 H   0  0  0  0  0  0  0  0  0  0  0  0
   -3.8360    3.7977    0.0025 H   0  0  0  0  0  0  0  0  0  0  0  0
   -5.0201    3.7832   -1.4007 H   0  0  0  0  0  0  0  0  0  0  0  0
   -4.9242   -0.6768   -0.6781 H   0  0  0  0  0  0  0  0  0  0  0  0
   -8.4453    0.1182    1.6721 H   0  0  0  0  0  0  0  0  0  0  0  0
   -5.9464    3.2792    0.3526 H   0  0  0  0  0  0  0  0  0  0  0  0
    1.3470    1.1962    0.5725 H   0  0  0  0  0  0  0  0  0  0  0  0
    2.0117    0.7328   -1.0165 H   0  0  0  0  0  0  0  0  0  0  0  0
    4.1021    1.9018   -1.2223 H   0  0  0  0  0  0  0  0  0  0  0  0
    3.7040    1.5639    0.4570 H   0  0  0  0  0  0  0  0  0  0  0  0
    5.7987    3.1838   -0.5234 H   0  0  0  0  0  0  0  0  0  0  0  0
    5.5929    2.5770    1.1161 H   0  0  0  0  0  0  0  0  0  0  0  0
  1  2  1  0
  2  3  2  0
  2  4  1  0
  4  5  1  0
  5  6  1  0
  6  7  1  0
  7  8  1  0
  8  9  2  0
  8 10  1  0
 10 11  1  0
 11 12  1  0
 12 13  1  0
 13 14  2  0
 14 15  1  0
 15 16  2  0
 16 17  1  0
 16 18  1  0
 18 19  2  0
 19 20  1  0
 12 21  1  0
 21 22  1  0
 22 23  2  0
 23 24  1  0
 24 25  1  0
 25 26  1  0
 26 27  1  0
 26 28  1  0
 26 29  1  0
 29 30  2  0
 30 31  1  0
 31 32  1  0
 32 33  1  0
 32 34  1  0
 32 35  1  0
 31 36  2  0
 36 37  1  0
 37 38  1  0
 38 39  1  0
 38 40  1  0
 38 41  1  0
 37 42  2  0
 25 43  2  0
 21 44  1  0
  7 45  1  0
 45 46  1  0
 46  4  1  0
 44 10  1  0
 19 13  1  0
 43 22  1  0
 42 29  1  0
  1 47  1  0
  1 48  1  0
  1 49  1  0
  5 50  1  0
  5 51  1  0
  6 52  1  0
  6 53  1  0
  7 54  1  0
 11 55  1  0
 11 56  1  0
 12 57  1  1
 14 58  1  0
 15 59  1  0
 18 60  1  0
 20 61  1  0
 20 62  1  0
 20 63  1  0
 21 64  1  6
 27 65  1  0
 27 66  1  0
 27 67  1  0
 28 68  1  0
 28 69  1  0
 28 70  1  0
 30 71  1  0
 36 72  1  0
 42 73  1  0
 44 74  1  0
 44 75  1  0
 45 76  1  0
 45 77  1  0
 46 78  1  0
 46 79  1  0
M  END
$$$$
