@<TRIPOS>MOLECULE
*****
 60 65 0 0 0
SMALL
GASTEIGER

@<TRIPOS>ATOM
      1 O          -5.2502   -4.3611   -0.2048 O.3     1  UNL1       -0.3947
      2 C          -5.3624   -3.2104    0.5522 C.3     1  UNL1        0.0471
      3 C          -3.9866   -2.6933    0.9985 C.3     1  UNL1       -0.0150
      4 C          -3.2018   -2.4059   -0.2245 C.3     1  UNL1       -0.0322
      5 C          -2.1965   -1.3215   -0.1101 C.3     1  UNL1        0.0140
      6 N          -2.6080   -0.2302    0.7482 N.pl3   1  UNL1       -0.3109
      7 C          -2.5745    1.1339    0.3352 C.ar    1  UNL1        0.1845
      8 N          -3.7059    1.8916    0.3020 N.ar    1  UNL1       -0.2254
      9 C          -3.6861    3.1714   -0.0837 C.ar    1  UNL1        0.0916
     10 C          -4.8310    3.9267   -0.1140 C.ar    1  UNL1       -0.0342
     11 C          -4.8088    5.2508   -0.5133 C.ar    1  UNL1       -0.0596
     12 C          -3.6129    5.8277   -0.8897 C.ar    1  UNL1       -0.0596
     13 C          -2.4724    5.0430   -0.8499 C.ar    1  UNL1       -0.0341
     14 C          -2.4725    3.7276   -0.4569 C.ar    1  UNL1        0.0931
     15 N          -1.3583    2.9637   -0.4189 N.ar    1  UNL1       -0.2084
     16 C          -1.3653    1.6803   -0.0343 C.ar    1  UNL1        0.2571
     17 O          -0.2148    0.8877    0.0060 O.3     1  UNL1       -0.4676
     18 C           1.0497    1.3519   -0.3483 C.3     1  UNL1        0.1330
     19 C           1.7220    0.4272   -1.3147 C.3     1  UNL1        0.0522
     20 N           2.8611    0.2911   -0.4315 N.pl3   1  UNL1       -0.3080
     21 C           4.1155   -0.3517   -0.5653 C.ar    1  UNL1        0.1221
     22 C           4.4101   -1.0101   -1.7339 C.ar    1  UNL1       -0.0211
     23 C           5.6144   -1.6472   -1.9073 C.ar    1  UNL1       -0.0493
     24 C           6.5302   -1.6081   -0.8656 C.ar    1  UNL1        0.0005
     25 C           7.7652   -2.2378   -0.9900 C.ar    1  UNL1       -0.0526
     26 C           8.6802   -2.2049    0.0371 C.ar    1  UNL1       -0.0611
     27 C           8.3852   -1.5494    1.1989 C.ar    1  UNL1       -0.0597
     28 C           7.1641   -0.9224    1.3315 C.ar    1  UNL1       -0.0357
     29 C           6.2370   -0.9483    0.3076 C.ar    1  UNL1        0.0731
     30 N           5.0324   -0.3362    0.4245 N.ar    1  UNL1       -0.2320
     31 C           2.1755    1.0670    0.5948 C.3     1  UNL1        0.0522
     32 C          -3.0671   -0.6226    2.0858 C.3     1  UNL1        0.0140
     33 C          -4.2204   -1.5450    1.9057 C.3     1  UNL1       -0.0322
     34 H          -5.8493   -4.3980   -0.9784 H       1  UNL1        0.2094
     35 H          -6.0254   -3.3836    1.3995 H       1  UNL1        0.0560
     36 H          -5.8533   -2.4405   -0.1062 H       1  UNL1        0.0560
     37 H          -3.5354   -3.5621    1.5591 H       1  UNL1        0.0324
     38 H          -2.6477   -3.3498   -0.5039 H       1  UNL1        0.0284
     39 H          -3.8856   -2.2324   -1.1044 H       1  UNL1        0.0284
     40 H          -1.2421   -1.7385    0.3128 H       1  UNL1        0.0464
     41 H          -1.9305   -0.9603   -1.1254 H       1  UNL1        0.0464
     42 H          -5.7820    3.5162    0.1709 H       1  UNL1        0.0639
     43 H          -5.7164    5.8622   -0.5411 H       1  UNL1        0.0618
     44 H          -3.5854    6.8692   -1.2056 H       1  UNL1        0.0618
     45 H          -1.5553    5.4938   -1.1410 H       1  UNL1        0.0639
     46 H           0.9990    2.4169   -0.6566 H       1  UNL1        0.0765
     47 H           1.9599    0.8507   -2.3111 H       1  UNL1        0.0501
     48 H           1.2233   -0.5743   -1.4490 H       1  UNL1        0.0501
     49 H           3.7048   -1.0538   -2.5662 H       1  UNL1        0.0652
     50 H           5.8699   -2.1751   -2.8239 H       1  UNL1        0.0625
     51 H           7.9965   -2.7536   -1.9047 H       1  UNL1        0.0624
     52 H           9.6326   -2.7184   -0.1211 H       1  UNL1        0.0618
     53 H           9.1218   -1.5269    2.0170 H       1  UNL1        0.0618
     54 H           6.9280   -0.4101    2.2339 H       1  UNL1        0.0639
     55 H           2.7773    1.9696    0.8134 H       1  UNL1        0.0501
     56 H           1.9105    0.5265    1.5030 H       1  UNL1        0.0501
     57 H          -3.4447    0.2969    2.5999 H       1  UNL1        0.0464
     58 H          -2.2170   -1.0558    2.6145 H       1  UNL1        0.0464
     59 H          -5.1228   -0.9487    1.6174 H       1  UNL1        0.0284
     60 H          -4.4778   -1.9559    2.9259 H       1  UNL1        0.0284
@<TRIPOS>BOND
     1     1     2    1
     2     2     3    1
     3     3     4    1
     4     4     5    1
     5     5     6    1
     6     6     7    1
     7     7     8   ar
     8     8     9   ar
     9     9    10   ar
    10    10    11   ar
    11    11    12   ar
    12    12    13   ar
    13    13    14   ar
    14    14    15   ar
    15    15    16   ar
    16    16    17    1
    17    17    18    1
    18    18    19    1
    19    19    20    1
    20    20    21    1
    21    21    22   ar
    22    22    23   ar
    23    23    24   ar
    24    24    25   ar
    25    25    26   ar
    26    26    27   ar
    27    27    28   ar
    28    28    29   ar
    29    29    30   ar
    30    20    31    1
    31     6    32    1
    32    32    33    1
    33    33     3    1
    34    16     7   ar
    35    31    18    1
    36    14     9   ar
    37    30    21   ar
    38    29    24   ar
    39     1    34    1
    40     2    35    1
    41     2    36    1
    42     3    37    1
    43     4    38    1
    44     4    39    1
    45     5    40    1
    46     5    41    1
    47    10    42    1
    48    11    43    1
    49    12    44    1
    50    13    45    1
    51    18    46    1
    52    19    47    1
    53    19    48    1
    54    22    49    1
    55    23    50    1
    56    25    51    1
    57    26    52    1
    58    27    53    1
    59    28    54    1
    60    31    55    1
    61    31    56    1
    62    32    57    1
    63    32    58    1
    64    33    59    1
    65    33    60    1
