
     RDKit          3D

 60 65  0  0  0  0  0  0  0  0999 V2000
   -5.2502   -4.3611   -0.2048 O   0  0  0  0  0  0  0  0  0  0  0  0
   -5.3624   -3.2104    0.5522 C   0  0  0  0  0  0  0  0  0  0  0  0
   -3.9866   -2.6933    0.9985 C   0  0  0  0  0  0  0  0  0  0  0  0
   -3.2018   -2.4059   -0.2245 C   0  0  0  0  0  0  0  0  0  0  0  0
   -2.1965   -1.3215   -0.1101 C   0  0  0  0  0  0  0  0  0  0  0  0
   -2.6080   -0.2302    0.7482 N   0  0  0  0  0  0  0  0  0  0  0  0
   -2.5745    1.1339    0.3352 C   0  0  0  0  0  0  0  0  0  0  0  0
   -3.7059    1.8916    0.3020 N   0  0  0  0  0  0  0  0  0  0  0  0
   -3.6861    3.1714   -0.0837 C   0  0  0  0  0  0  0  0  0  0  0  0
   -4.8310    3.9267   -0.1140 C   0  0  0  0  0  0  0  0  0  0  0  0
   -4.8088    5.2508   -0.5133 C   0  0  0  0  0  0  0  0  0  0  0  0
   -3.6129    5.8277   -0.8897 C   0  0  0  0  0  0  0  0  0  0  0  0
   -2.4724    5.0430   -0.8499 C   0  0  0  0  0  0  0  0  0  0  0  0
   -2.4725    3.7276   -0.4569 C   0  0  0  0  0  0  0  0  0  0  0  0
   -1.3583    2.9637   -0.4189 N   0  0  0  0  0  0  0  0  0  0  0  0
   -1.3653    1.6803   -0.0343 C   0  0  0  0  0  0  0  0  0  0  0  0
   -0.2148    0.8877    0.0060 O   0  0  0  0  0  0  0  0  0  0  0  0
    1.0497    1.3519   -0.3483 C   0  0  0  0  0  0  0  0  0  0  0  0
    1.7220    0.4272   -1.3147 C   0  0  0  0  0  0  0  0  0  0  0  0
    2.8611    0.2911   -0.4315 N   0  0  0  0  0  0  0  0  0  0  0  0
    4.1155   -0.3517   -0.5653 C   0  0  0  0  0  0  0  0  0  0  0  0
    4.4101   -1.0101   -1.7339 C   0  0  0  0  0  0  0  0  0  0  0  0
    5.6144   -1.6472   -1.9073 C   0  0  0  0  0  0  0  0  0  0  0  0
    6.5302   -1.6081   -0.8656 C   0  0  0  0  0  0  0  0  0  0  0  0
    7.7652   -2.2378   -0.9900 C   0  0  0  0  0  0  0  0  0  0  0  0
    8.6802   -2.2049    0.0371 C   0  0  0  0  0  0  0  0  0  0  0  0
    8.3852   -1.5494    1.1989 C   0  0  0  0  0  0  0  0  0  0  0  0
    7.1641   -0.9224    1.3315 C   0  0  0  0  0  0  0  0  0  0  0  0
    6.2370   -0.9483    0.3076 C   0  0  0  0  0  0  0  0  0  0  0  0
    5.0324   -0.3362    0.4245 N   0  0  0  0  0  0  0  0  0  0  0  0
    2.1755    1.0670    0.5948 C   0  0  0  0  0  0  0  0  0  0  0  0
   -3.0671   -0.6226    2.0858 C   0  0  0  0  0  0  0  0  0  0  0  0
   -4.2204   -1.5450    1.9057 C   0  0  0  0  0  0  0  0  0  0  0  0
   -5.8493   -4.3980   -0.9784 H   0  0  0  0  0  0  0  0  0  0  0  0
   -6.0254   -3.3836    1.3995 H   0  0  0  0  0  0  0  0  0  0  0  0
   -5.8533   -2.4405   -0.1062 H   0  0  0  0  0  0  0  0  0  0  0  0
   -3.5354   -3.5621    1.5591 H   0  0  0  0  0  0  0  0  0  0  0  0
   -2.6477   -3.3498   -0.5039 H   0  0  0  0  0  0  0  0  0  0  0  0
   -3.8856   -2.2324   -1.1044 H   0  0  0  0  0  0  0  0  0  0  0  0
   -1.2421   -1.7385    0.3128 H   0  0  0  0  0  0  0  0  0  0  0  0
   -1.9305   -0.9603   -1.1254 H   0  0  0  0  0  0  0  0  0  0  0  0
   -5.7820    3.5162    0.1709 H   0  0  0  0  0  0  0  0  0  0  0  0
   -5.7164    5.8622   -0.5411 H   0  0  0  0  0  0  0  0  0  0  0  0
   -3.5854    6.8692   -1.2056 H   0  0  0  0  0  0  0  0  0  0  0  0
   -1.5553    5.4938   -1.1410 H   0  0  0  0  0  0  0  0  0  0  0  0
    0.9990    2.4169   -0.6566 H   0  0  0  0  0  0  0  0  0  0  0  0
    1.9599    0.8507   -2.3111 H   0  0  0  0  0  0  0  0  0  0  0  0
    1.2233   -0.5743   -1.4490 H   0  0  0  0  0  0  0  0  0  0  0  0
    3.7048   -1.0538   -2.5662 H   0  0  0  0  0  0  0  0  0  0  0  0
    5.8699   -2.1751   -2.8239 H   0  0  0  0  0  0  0  0  0  0  0  0
    7.9965   -2.7536   -1.9047 H   0  0  0  0  0  0  0  0  0  0  0  0
    9.6326   -2.7184   -0.1211 H   0  0  0  0  0  0  0  0  0  0  0  0
    9.1218   -1.5269    2.0170 H   0  0  0  0  0  0  0  0  0  0  0  0
    6.9280   -0.4101    2.2339 H   0  0  0  0  0  0  0  0  0  0  0  0
    2.7773    1.9696    0.8134 H   0  0  0  0  0  0  0  0  0  0  0  0
    1.9105    0.5265    1.5030 H   0  0  0  0  0  0  0  0  0  0  0  0
   -3.4447    0.2969    2.5999 H   0  0  0  0  0  0  0  0  0  0  0  0
   -2.2170   -1.0558    2.6145 H   0  0  0  0  0  0  0  0  0  0  0  0
   -5.1228   -0.9487    1.6174 H   0  0  0  0  0  0  0  0  0  0  0  0
   -4.4778   -1.9559    2.9259 H   0  0  0  0  0  0  0  0  0  0  0  0
  1  2  1  0
  2  3  1  0
  3  4  1  0
  4  5  1  0
  5  6  1  0
  6  7  1  0
  7  8  2  0
  8  9  1  0
  9 10  2  0
 10 11  1  0
 11 12  2  0
 12 13  1  0
 13 14  2  0
 14 15  1  0
 15 16  2  0
 16 17  1  0
 17 18  1  0
 18 19  1  0
 19 20  1  0
 20 21  1  0
 21 22  2  0
 22 23  1  0
 23 24  2  0
 24 25  1  0
 25 26  2  0
 26 27  1  0
 27 28  2  0
 28 29  1  0
 29 30  2  0
 20 31  1  0
  6 32  1  0
 32 33  1  0
 33  3  1  0
 16  7  1  0
 31 18  1  0
 14  9  1  0
 30 21  1  0
 29 24  1  0
  1 34  1  0
  2 35  1  0
  2 36  1  0
  3 37  1  0
  4 38  1  0
  4 39  1  0
  5 40  1  0
  5 41  1  0
 10 42  1  0
 11 43  1  0
 12 44  1  0
 13 45  1  0
 18 46  1  0
 19 47  1  0
 19 48  1  0
 22 49  1  0
 23 50  1  0
 25 51  1  0
 26 52  1  0
 27 53  1  0
 28 54  1  0
 31 55  1  0
 31 56  1  0
 32 57  1  0
 32 58  1  0
 33 59  1  0
 33 60  1  0
M  END
$$$$
