@<TRIPOS>MOLECULE
*****
 53 56 0 0 0
SMALL
GASTEIGER

@<TRIPOS>ATOM
      1 C          -7.2976   -2.3303   -1.6308 C.3     1  UNL1        0.0001
      2 N          -6.6392   -1.2621   -0.9071 N.am    1  UNL1       -0.3172
      3 C          -5.2968   -1.3477   -0.4570 C.2     1  UNL1        0.2296
      4 O          -4.6508   -2.3951   -0.6965 O.2     1  UNL1       -0.2743
      5 C          -4.6489   -0.2403    0.2807 C.3     1  UNL1        0.1052
      6 C          -4.5307    1.0905   -0.3871 C.3     1  UNL1       -0.0220
      7 C          -3.3325    0.3107   -0.0994 C.3     1  UNL1        0.0134
      8 C          -2.3675    0.5550    1.0051 C.3     1  UNL1        0.0935
      9 C          -1.9682   -0.8226    1.5565 C.3     1  UNL1       -0.0351
     10 C          -1.1267    1.1836    0.5011 C.ar    1  UNL1        0.0158
     11 C           0.0870    0.5371    0.5142 C.ar    1  UNL1       -0.0463
     12 C           1.2395    1.1684    0.0233 C.ar    1  UNL1       -0.0217
     13 C           2.5248    0.4621    0.0530 C.2     1  UNL1       -0.0172
     14 C           3.4272    0.5043   -0.8978 C.2     1  UNL1        0.1492
     15 F           3.1321    1.2678   -1.9925 F       1  UNL1       -0.2032
     16 C           4.7134   -0.2071   -0.8573 C.ar    1  UNL1        0.0992
     17 C           5.1151   -0.9970    0.1858 C.ar    1  UNL1       -0.0300
     18 C           6.3436   -1.6454    0.1669 C.ar    1  UNL1       -0.0160
     19 C           7.1823   -1.4954   -0.9222 C.ar    1  UNL1        0.1480
     20 O           8.3969   -2.1396   -0.9350 O.3     1  UNL1       -0.4042
     21 C           9.5732   -1.5548   -0.4239 C.3     1  UNL1        0.5753
     22 F           9.3381   -1.2883    0.9286 F       1  UNL1       -0.1328
     23 F          10.6119   -2.4613   -0.5585 F       1  UNL1       -0.1328
     24 F           9.9446   -0.4149   -1.1054 F       1  UNL1       -0.1328
     25 C           6.7285   -0.6893   -1.9439 C.ar    1  UNL1        0.0703
     26 N           5.5422   -0.0653   -1.9218 N.ar    1  UNL1       -0.2491
     27 C           1.1718    2.4470   -0.4795 C.ar    1  UNL1       -0.0518
     28 C          -0.0384    3.0961   -0.4943 C.ar    1  UNL1       -0.0255
     29 C          -1.1524    2.4614   -0.0099 C.ar    1  UNL1        0.1289
     30 F          -2.3328    3.1171   -0.0303 F       1  UNL1       -0.2051
     31 N          -2.8554    1.3917    2.0769 N.2     1  UNL1       -0.2521
     32 C          -3.9939    1.2404    2.6573 C.2     1  UNL1        0.1485
     33 N          -4.3828    2.1122    3.6994 N.pl3   1  UNL1       -0.3380
     34 S          -5.0177   -0.1012    2.0693 S.3     1  UNL1       -0.0746
     35 H          -7.2278   -2.2094   -2.7330 H       1  UNL1        0.0426
     36 H          -8.3840   -2.3441   -1.3568 H       1  UNL1        0.0426
     37 H          -6.8776   -3.3362   -1.3746 H       1  UNL1        0.0426
     38 H          -7.2277   -0.4015   -0.7317 H       1  UNL1        0.1484
     39 H          -4.8382    1.1868   -1.4636 H       1  UNL1        0.0287
     40 H          -4.7422    2.0057    0.1848 H       1  UNL1        0.0287
     41 H          -2.8484   -0.2187   -0.9740 H       1  UNL1        0.0346
     42 H          -1.5940   -1.4003    0.6920 H       1  UNL1        0.0256
     43 H          -1.2034   -0.7487    2.3446 H       1  UNL1        0.0256
     44 H          -2.8564   -1.3915    1.9204 H       1  UNL1        0.0256
     45 H           0.1792   -0.4591    0.8980 H       1  UNL1        0.0628
     46 H           2.7229   -0.1294    0.9298 H       1  UNL1        0.0653
     47 H           4.4662   -1.1172    1.0361 H       1  UNL1        0.0641
     48 H           6.6674   -2.2726    0.9903 H       1  UNL1        0.0655
     49 H           7.4164   -0.5882   -2.7977 H       1  UNL1        0.0867
     50 H           2.0843    2.9159   -0.8510 H       1  UNL1        0.0624
     51 H          -0.0850    4.1023   -0.8914 H       1  UNL1        0.0646
     52 H          -4.9551    1.7865    4.5337 H       1  UNL1        0.1442
     53 H          -4.1367    3.1318    3.7227 H       1  UNL1        0.1442
@<TRIPOS>BOND
     1     1     2    1
     2     2     3   am
     3     3     4    2
     4     5     3    1
     5     5     6    1
     6     6     7    1
     7     7     8    1
     8     8     9    1
     9     8    10    1
    10    10    11   ar
    11    11    12   ar
    12    12    13    1
    13    13    14    2
    14    14    15    1
    15    14    16    1
    16    16    17   ar
    17    17    18   ar
    18    18    19   ar
    19    19    20    1
    20    20    21    1
    21    21    22    1
    22    21    23    1
    23    21    24    1
    24    19    25   ar
    25    25    26   ar
    26    12    27   ar
    27    27    28   ar
    28    28    29   ar
    29    29    30    1
    30     8    31    1
    31    31    32    2
    32    32    33    1
    33    32    34    1
    34     7     5    1
    35    29    10   ar
    36    34     5    1
    37    26    16   ar
    38     1    35    1
    39     1    36    1
    40     1    37    1
    41     2    38    1
    42     6    39    1
    43     6    40    1
    44     7    41    1
    45     9    42    1
    46     9    43    1
    47     9    44    1
    48    11    45    1
    49    13    46    1
    50    17    47    1
    51    18    48    1
    52    25    49    1
    53    27    50    1
    54    28    51    1
    55    33    52    1
    56    33    53    1
