
     RDKit          3D

 53 56  0  0  0  0  0  0  0  0999 V2000
   -7.2976   -2.3303   -1.6308 C   0  0  0  0  0  0  0  0  0  0  0  0
   -6.6392   -1.2621   -0.9071 N   0  0  0  0  0  0  0  0  0  0  0  0
   -5.2968   -1.3477   -0.4570 C   0  0  0  0  0  0  0  0  0  0  0  0
   -4.6508   -2.3951   -0.6965 O   0  0  0  0  0  0  0  0  0  0  0  0
   -4.6489   -0.2403    0.2807 C   0  0  2  0  0  0  0  0  0  0  0  0
   -4.5307    1.0905   -0.3871 C   0  0  0  0  0  0  0  0  0  0  0  0
   -3.3325    0.3107   -0.0994 C   0  0  1  0  0  0  0  0  0  0  0  0
   -2.3675    0.5550    1.0051 C   0  0  1  0  0  0  0  0  0  0  0  0
   -1.9682   -0.8226    1.5565 C   0  0  0  0  0  0  0  0  0  0  0  0
   -1.1267    1.1836    0.5011 C   0  0  0  0  0  0  0  0  0  0  0  0
    0.0870    0.5371    0.5142 C   0  0  0  0  0  0  0  0  0  0  0  0
    1.2395    1.1684    0.0233 C   0  0  0  0  0  0  0  0  0  0  0  0
    2.5248    0.4621    0.0530 C   0  0  0  0  0  0  0  0  0  0  0  0
    3.4272    0.5043   -0.8978 C   0  0  0  0  0  0  0  0  0  0  0  0
    3.1321    1.2678   -1.9925 F   0  0  0  0  0  0  0  0  0  0  0  0
    4.7134   -0.2071   -0.8573 C   0  0  0  0  0  0  0  0  0  0  0  0
    5.1151   -0.9970    0.1858 C   0  0  0  0  0  0  0  0  0  0  0  0
    6.3436   -1.6454    0.1669 C   0  0  0  0  0  0  0  0  0  0  0  0
    7.1823   -1.4954   -0.9222 C   0  0  0  0  0  0  0  0  0  0  0  0
    8.3969   -2.1396   -0.9350 O   0  0  0  0  0  0  0  0  0  0  0  0
    9.5732   -1.5548   -0.4239 C   0  0  0  0  0  0  0  0  0  0  0  0
    9.3381   -1.2883    0.9286 F   0  0  0  0  0  0  0  0  0  0  0  0
   10.6119   -2.4613   -0.5585 F   0  0  0  0  0  0  0  0  0  0  0  0
    9.9446   -0.4149   -1.1054 F   0  0  0  0  0  0  0  0  0  0  0  0
    6.7285   -0.6893   -1.9439 C   0  0  0  0  0  0  0  0  0  0  0  0
    5.5422   -0.0653   -1.9218 N   0  0  0  0  0  0  0  0  0  0  0  0
    1.1718    2.4470   -0.4795 C   0  0  0  0  0  0  0  0  0  0  0  0
   -0.0384    3.0961   -0.4943 C   0  0  0  0  0  0  0  0  0  0  0  0
   -1.1524    2.4614   -0.0099 C   0  0  0  0  0  0  0  0  0  0  0  0
   -2.3328    3.1171   -0.0303 F   0  0  0  0  0  0  0  0  0  0  0  0
   -2.8554    1.3917    2.0769 N   0  0  0  0  0  0  0  0  0  0  0  0
   -3.9939    1.2404    2.6573 C   0  0  0  0  0  0  0  0  0  0  0  0
   -4.3828    2.1122    3.6994 N   0  0  0  0  0  0  0  0  0  0  0  0
   -5.0177   -0.1012    2.0693 S   0  0  0  0  0  0  0  0  0  0  0  0
   -7.2278   -2.2094   -2.7330 H   0  0  0  0  0  0  0  0  0  0  0  0
   -8.3840   -2.3441   -1.3568 H   0  0  0  0  0  0  0  0  0  0  0  0
   -6.8776   -3.3362   -1.3746 H   0  0  0  0  0  0  0  0  0  0  0  0
   -7.2277   -0.4015   -0.7317 H   0  0  0  0  0  0  0  0  0  0  0  0
   -4.8382    1.1868   -1.4636 H   0  0  0  0  0  0  0  0  0  0  0  0
   -4.7422    2.0057    0.1848 H   0  0  0  0  0  0  0  0  0  0  0  0
   -2.8484   -0.2187   -0.9740 H   0  0  0  0  0  0  0  0  0  0  0  0
   -1.5940   -1.4003    0.6920 H   0  0  0  0  0  0  0  0  0  0  0  0
   -1.2034   -0.7487    2.3446 H   0  0  0  0  0  0  0  0  0  0  0  0
   -2.8564   -1.3915    1.9204 H   0  0  0  0  0  0  0  0  0  0  0  0
    0.1792   -0.4591    0.8980 H   0  0  0  0  0  0  0  0  0  0  0  0
    2.7229   -0.1294    0.9298 H   0  0  0  0  0  0  0  0  0  0  0  0
    4.4662   -1.1172    1.0361 H   0  0  0  0  0  0  0  0  0  0  0  0
    6.6674   -2.2726    0.9903 H   0  0  0  0  0  0  0  0  0  0  0  0
    7.4164   -0.5882   -2.7977 H   0  0  0  0  0  0  0  0  0  0  0  0
    2.0843    2.9159   -0.8510 H   0  0  0  0  0  0  0  0  0  0  0  0
   -0.0850    4.1023   -0.8914 H   0  0  0  0  0  0  0  0  0  0  0  0
   -4.9551    1.7865    4.5337 H   0  0  0  0  0  0  0  0  0  0  0  0
   -4.1367    3.1318    3.7227 H   0  0  0  0  0  0  0  0  0  0  0  0
  1  2  1  0
  2  3  1  0
  3  4  2  0
  5  3  1  6
  5  6  1  0
  6  7  1  0
  7  8  1  0
  8  9  1  1
  8 10  1  0
 10 11  2  0
 11 12  1  0
 12 13  1  0
 13 14  2  0
 14 15  1  0
 14 16  1  0
 16 17  2  0
 17 18  1  0
 18 19  2  0
 19 20  1  0
 20 21  1  0
 21 22  1  0
 21 23  1  0
 21 24  1  0
 19 25  1  0
 25 26  2  0
 12 27  2  0
 27 28  1  0
 28 29  2  0
 29 30  1  0
  8 31  1  0
 31 32  2  0
 32 33  1  0
 32 34  1  0
  7  5  1  0
 29 10  1  0
 34  5  1  0
 26 16  1  0
  1 35  1  0
  1 36  1  0
  1 37  1  0
  2 38  1  0
  6 39  1  0
  6 40  1  0
  7 41  1  6
  9 42  1  0
  9 43  1  0
  9 44  1  0
 11 45  1  0
 13 46  1  0
 17 47  1  0
 18 48  1  0
 25 49  1  0
 27 50  1  0
 28 51  1  0
 33 52  1  0
 33 53  1  0
M  END
$$$$
