
     RDKit          3D

 39 40  0  0  0  0  0  0  0  0999 V2000
    1.0552   -1.2849    1.6079 O   0  0  0  0  0  0  0  0  0  0  0  0
    0.0257   -0.5310    1.4835 C   0  0  0  0  0  0  0  0  0  0  0  0
    0.2144    0.5149    0.5176 N   0  0  0  0  0  0  0  0  0  0  0  0
    1.4293    0.6675   -0.2126 C   0  0  0  0  0  0  0  0  0  0  0  0
    2.4611    1.4479    0.2625 C   0  0  0  0  0  0  0  0  0  0  0  0
    3.6522    1.5996   -0.4497 C   0  0  0  0  0  0  0  0  0  0  0  0
    3.8193    0.9615   -1.6592 C   0  0  0  0  0  0  0  0  0  0  0  0
    5.3271    1.1741   -2.5262 S   0  0  0  0  0  6  0  0  0  0  0  0
    5.1236    1.1051   -4.0052 O   0  0  0  0  0  0  0  0  0  0  0  0
    5.9643    2.4951   -2.2024 O   0  0  0  0  0  0  0  0  0  0  0  0
    6.4414   -0.0173   -2.0661 O   0  0  0  0  0  1  0  0  0  0  0  0
    2.7993    0.1790   -2.1474 C   0  0  0  0  0  0  0  0  0  0  0  0
    1.6117    0.0363   -1.4228 C   0  0  0  0  0  0  0  0  0  0  0  0
   -1.1972   -0.7414    2.2615 C   0  0  0  0  0  0  0  0  0  0  0  0
   -0.8776   -1.8736    3.2696 C   0  0  0  0  0  0  0  0  0  0  0  0
   -0.4128   -3.3782    2.4004 S   0  0  0  0  0  0  0  0  0  0  0  0
   -2.3739   -1.2505    1.4851 C   0  0  0  0  0  0  0  0  0  0  0  0
   -2.8576   -0.4446    0.3917 C   0  0  0  0  0  0  0  0  0  0  0  0
   -2.3858   -0.6535   -0.8862 C   0  0  0  0  0  0  0  0  0  0  0  0
   -2.8495    0.1234   -1.9514 C   0  0  0  0  0  0  0  0  0  0  0  0
   -3.7823    1.1106   -1.7567 C   0  0  0  0  0  0  0  0  0  0  0  0
   -4.2583    1.3270   -0.4905 C   0  0  0  0  0  0  0  0  0  0  0  0
   -3.7868    0.5509    0.5369 C   0  0  0  0  0  0  0  0  0  0  0  0
   -0.5981    1.1706    0.3858 H   0  0  0  0  0  0  0  0  0  0  0  0
    2.3379    1.9462    1.2010 H   0  0  0  0  0  0  0  0  0  0  0  0
    4.4644    2.2124   -0.0784 H   0  0  0  0  0  0  0  0  0  0  0  0
    2.9554   -0.3104   -3.0977 H   0  0  0  0  0  0  0  0  0  0  0  0
    0.8099   -0.5870   -1.8202 H   0  0  0  0  0  0  0  0  0  0  0  0
   -1.5101    0.0965    2.8867 H   0  0  0  0  0  0  0  0  0  0  0  0
    0.0171   -1.5030    3.8199 H   0  0  0  0  0  0  0  0  0  0  0  0
   -1.7333   -2.0340    3.9430 H   0  0  0  0  0  0  0  0  0  0  0  0
    0.9875   -3.5702    2.3914 H   0  0  0  0  0  0  0  0  0  0  0  0
   -2.1961   -2.3134    1.1476 H   0  0  0  0  0  0  0  0  0  0  0  0
   -3.2106   -1.3557    2.2371 H   0  0  0  0  0  0  0  0  0  0  0  0
   -1.6528   -1.4034   -1.1435 H   0  0  0  0  0  0  0  0  0  0  0  0
   -2.4901   -0.0258   -2.9651 H   0  0  0  0  0  0  0  0  0  0  0  0
   -4.1482    1.7194   -2.5805 H   0  0  0  0  0  0  0  0  0  0  0  0
   -4.9981    2.0990   -0.2920 H   0  0  0  0  0  0  0  0  0  0  0  0
   -4.1773    0.7410    1.5246 H   0  0  0  0  0  0  0  0  0  0  0  0
  1  2  2  0
  2  3  1  0
  3  4  1  0
  4  5  2  0
  5  6  1  0
  6  7  2  0
  7  8  1  0
  8  9  2  0
  8 10  2  0
  8 11  1  0
  7 12  1  0
 12 13  2  0
  2 14  1  0
 14 15  1  0
 15 16  1  0
 14 17  1  0
 17 18  1  0
 18 19  2  0
 19 20  1  0
 20 21  2  0
 21 22  1  0
 22 23  2  0
 13  4  1  0
 23 18  1  0
  3 24  1  0
  5 25  1  0
  6 26  1  0
 12 27  1  0
 13 28  1  0
 14 29  1  0
 15 30  1  0
 15 31  1  0
 16 32  1  0
 17 33  1  0
 17 34  1  0
 19 35  1  0
 20 36  1  0
 21 37  1  0
 22 38  1  0
 23 39  1  0
M  CHG  1  11  -1
M  END
$$$$
