@<TRIPOS>MOLECULE
*****
 39 40 0 0 0
SMALL
GASTEIGER

@<TRIPOS>ATOM
      1 O           1.0552   -1.2849    1.6079 O.2     1  UNL1       -0.2751
      2 C           0.0257   -0.5310    1.4835 C.2     1  UNL1        0.2214
      3 N           0.2144    0.5149    0.5176 N.am    1  UNL1       -0.2852
      4 C           1.4293    0.6675   -0.2126 C.ar    1  UNL1        0.0335
      5 C           2.4611    1.4479    0.2625 C.ar    1  UNL1       -0.0387
      6 C           3.6522    1.5996   -0.4497 C.ar    1  UNL1       -0.0361
      7 C           3.8193    0.9615   -1.6592 C.ar    1  UNL1        0.0767
      8 S           5.3271    1.1741   -2.5262 S.3     1  UNL1       -0.0512
      9 O           5.1236    1.1051   -4.0052 O.2     1  UNL1       -0.1803
     10 O           5.9643    2.4951   -2.2024 O.2     1  UNL1       -0.1803
     11 O           6.4414   -0.0173   -2.0661 O.co2   1  UNL1       -0.7202
     12 C           2.7993    0.1790   -2.1474 C.ar    1  UNL1       -0.0361
     13 C           1.6117    0.0363   -1.4228 C.ar    1  UNL1       -0.0387
     14 C          -1.1972   -0.7414    2.2615 C.3     1  UNL1        0.0485
     15 C          -0.8776   -1.8736    3.2696 C.3     1  UNL1        0.0021
     16 S          -0.4128   -3.3782    2.4004 S.3     1  UNL1       -0.1775
     17 C          -2.3739   -1.2505    1.4851 C.3     1  UNL1       -0.0158
     18 C          -2.8576   -0.4446    0.3917 C.ar    1  UNL1       -0.0466
     19 C          -2.3858   -0.6535   -0.8862 C.ar    1  UNL1       -0.0586
     20 C          -2.8495    0.1234   -1.9514 C.ar    1  UNL1       -0.0615
     21 C          -3.7823    1.1106   -1.7567 C.ar    1  UNL1       -0.0617
     22 C          -4.2583    1.3270   -0.4905 C.ar    1  UNL1       -0.0615
     23 C          -3.7868    0.5509    0.5369 C.ar    1  UNL1       -0.0586
     24 H          -0.5981    1.1706    0.3858 H       1  UNL1        0.1548
     25 H           2.3379    1.9462    1.2010 H       1  UNL1        0.0637
     26 H           4.4644    2.2124   -0.0784 H       1  UNL1        0.0637
     27 H           2.9554   -0.3104   -3.0977 H       1  UNL1        0.0637
     28 H           0.8099   -0.5870   -1.8202 H       1  UNL1        0.0637
     29 H          -1.5101    0.0965    2.8867 H       1  UNL1        0.0405
     30 H           0.0171   -1.5030    3.8199 H       1  UNL1        0.0381
     31 H          -1.7333   -2.0340    3.9430 H       1  UNL1        0.0381
     32 H           0.9875   -3.5702    2.3914 H       1  UNL1        0.1017
     33 H          -2.1961   -2.3134    1.1476 H       1  UNL1        0.0321
     34 H          -3.2106   -1.3557    2.2371 H       1  UNL1        0.0321
     35 H          -1.6528   -1.4034   -1.1435 H       1  UNL1        0.0620
     36 H          -2.4901   -0.0258   -2.9651 H       1  UNL1        0.0618
     37 H          -4.1482    1.7194   -2.5805 H       1  UNL1        0.0618
     38 H          -4.9981    2.0990   -0.2920 H       1  UNL1        0.0618
     39 H          -4.1773    0.7410    1.5246 H       1  UNL1        0.0620
@<TRIPOS>UNITY_ATOM_ATTR
11 1
charge -1
@<TRIPOS>BOND
     1     1     2    2
     2     2     3   am
     3     3     4    1
     4     4     5   ar
     5     5     6   ar
     6     6     7   ar
     7     7     8    1
     8     8     9    2
     9     8    10    2
    10     8    11    1
    11     7    12   ar
    12    12    13   ar
    13     2    14    1
    14    14    15    1
    15    15    16    1
    16    14    17    1
    17    17    18    1
    18    18    19   ar
    19    19    20   ar
    20    20    21   ar
    21    21    22   ar
    22    22    23   ar
    23    13     4   ar
    24    23    18   ar
    25     3    24    1
    26     5    25    1
    27     6    26    1
    28    12    27    1
    29    13    28    1
    30    14    29    1
    31    15    30    1
    32    15    31    1
    33    16    32    1
    34    17    33    1
    35    17    34    1
    36    19    35    1
    37    20    36    1
    38    21    37    1
    39    22    38    1
    40    23    39    1
