
     RDKit          3D

225230  0  0  0  0  0  0  0  0999 V2000
   -2.0819   -9.1035   -2.2100 C   0  0  0  0  0  0  0  0  0  0  0  0
   -1.0653   -8.1518   -1.6389 C   0  0  0  0  0  0  0  0  0  0  0  0
   -1.4427   -7.7561   -0.2979 N   0  0  0  0  0  0  0  0  0  0  0  0
   -0.6674   -6.8382    0.5096 C   0  0  0  0  0  0  0  0  0  0  0  0
   -1.0956   -6.7084    1.8307 N   0  0  0  0  0  0  0  0  0  0  0  0
   -0.1584   -6.3308    2.8676 C   0  0  0  0  0  0  0  0  0  0  0  0
    0.7988   -7.4974    3.0016 C   0  0  0  0  0  0  0  0  0  0  0  0
    0.2615   -6.3141   -0.1097 N   0  0  0  0  0  0  0  0  0  0  0  0
    1.2868   -5.3743    0.1856 C   0  0  0  0  0  0  0  0  0  0  0  0
    2.0601   -5.1417   -1.0980 C   0  0  0  0  0  0  0  0  0  0  0  0
    3.1419   -4.1619   -1.0504 C   0  0  0  0  0  0  0  0  0  0  0  0
    2.9252   -2.7632   -0.7009 C   0  0  0  0  0  0  0  0  0  0  0  0
    2.0427   -1.8806   -1.5388 C   0  0  1  0  0  0  0  0  0  0  0  0
    0.7002   -2.4546   -1.5395 N   0  0  0  0  0  0  0  0  0  0  0  0
    0.0553   -2.8679   -2.7562 C   0  0  0  0  0  0  0  0  0  0  0  0
    0.8484   -2.6716   -3.7159 O   0  0  0  0  0  0  0  0  0  0  0  0
   -1.2956   -3.4264   -2.8761 C   0  0  2  0  0  0  0  0  0  0  0  0
   -2.0964   -2.7183   -3.9700 C   0  0  0  0  0  0  0  0  0  0  0  0
   -1.4479   -2.8856   -5.2758 C   0  0  0  0  0  0  0  0  0  0  0  0
   -0.5848   -2.1148   -6.0093 C   0  0  0  0  0  0  0  0  0  0  0  0
   -0.0437   -2.4408   -7.2217 C   0  0  0  0  0  0  0  0  0  0  0  0
   -0.3722   -3.6468   -7.7962 C   0  0  0  0  0  0  0  0  0  0  0  0
    0.1433   -4.0256   -9.0148 O   0  0  0  0  0  0  0  0  0  0  0  0
   -1.2314   -4.4662   -7.1180 C   0  0  0  0  0  0  0  0  0  0  0  0
   -1.7584   -4.1113   -5.8997 C   0  0  0  0  0  0  0  0  0  0  0  0
   -2.0530   -3.4711   -1.6591 N   0  0  0  0  0  0  0  0  0  0  0  0
   -3.0458   -4.3360   -1.1413 C   0  0  0  0  0  0  0  0  0  0  0  0
   -3.2992   -5.2773   -1.9200 O   0  0  0  0  0  0  0  0  0  0  0  0
   -3.6939   -4.0999    0.2002 C   0  0  2  0  0  0  0  0  0  0  0  0
   -5.1587   -4.2764    0.1736 C   0  0  0  0  0  0  0  0  0  0  0  0
   -5.5325   -5.5080   -0.4080 O   0  0  0  0  0  0  0  0  0  0  0  0
   -3.2233   -2.8573    0.7887 N   0  0  0  0  0  0  0  0  0  0  0  0
   -3.4287   -1.6537    0.0095 C   0  0  0  0  0  0  0  0  0  0  0  0
   -4.0297   -1.7738   -1.0886 O   0  0  0  0  0  0  0  0  0  0  0  0
   -2.8514   -0.4945    0.6930 C   0  0  1  0  0  0  0  0  0  0  0  0
   -3.3892    0.7903    0.1772 C   0  0  0  0  0  0  0  0  0  0  0  0
   -3.1562    1.0397   -1.2676 C   0  0  0  0  0  0  0  0  0  0  0  0
   -3.9712    0.8531   -2.3638 C   0  0  0  0  0  0  0  0  0  0  0  0
   -3.4730    1.1398   -3.6223 C   0  0  0  0  0  0  0  0  0  0  0  0
   -2.2050    1.6090   -3.8939 C   0  0  0  0  0  0  0  0  0  0  0  0
   -1.3884    1.7982   -2.8139 N   0  0  0  0  0  0  0  0  0  0  0  0
   -1.8675    1.5195   -1.5701 C   0  0  0  0  0  0  0  0  0  0  0  0
   -2.6856   -0.5957    2.1093 N   0  0  0  0  0  0  0  0  0  0  0  0
   -1.6792   -0.8085    3.0278 C   0  0  0  0  0  0  0  0  0  0  0  0
   -0.5349   -0.9831    2.4809 O   0  0  0  0  0  0  0  0  0  0  0  0
   -0.8112   -1.0062    4.1356 C   0  0  1  0  0  0  0  0  0  0  0  0
   -1.3737   -2.0305    5.1560 C   0  0  0  0  0  0  0  0  0  0  0  0
   -2.6856   -1.5624    5.7009 C   0  0  0  0  0  0  0  0  0  0  0  0
   -3.9671   -1.8335    5.3685 C   0  0  0  0  0  0  0  0  0  0  0  0
   -5.0966   -1.3024    5.9474 C   0  0  0  0  0  0  0  0  0  0  0  0
   -4.9125   -0.3864    6.9884 C   0  0  0  0  0  0  0  0  0  0  0  0
   -6.3165    0.3269    7.7560 Cl  0  0  0  0  0  0  0  0  0  0  0  0
   -3.6485   -0.0398    7.4054 C   0  0  0  0  0  0  0  0  0  0  0  0
   -2.5530   -0.6344    6.7547 C   0  0  0  0  0  0  0  0  0  0  0  0
    0.5475   -1.3962    3.8509 N   0  0  0  0  0  0  0  0  0  0  0  0
    1.4142   -2.3357    4.4258 C   0  0  0  0  0  0  0  0  0  0  0  0
    1.0726   -3.0819    5.3731 O   0  0  0  0  0  0  0  0  0  0  0  0
    2.8360   -2.6714    4.0982 C   0  0  1  0  0  0  0  0  0  0  0  0
    3.7327   -1.4735    4.3771 C   0  0  0  0  0  0  0  0  0  0  0  0
    5.1400   -1.7943    4.0520 C   0  0  0  0  0  0  0  0  0  0  0  0
    5.7634   -1.5037    2.8663 C   0  0  0  0  0  0  0  0  0  0  0  0
    7.0550   -1.8140    2.5389 C   0  0  0  0  0  0  0  0  0  0  0  0
    7.5964   -1.4689    1.3088 C   0  0  0  0  0  0  0  0  0  0  0  0
    8.9002   -1.7958    1.0229 C   0  0  0  0  0  0  0  0  0  0  0  0
    9.6199   -2.4618    1.9828 C   0  0  0  0  0  0  0  0  0  0  0  0
    9.0748   -2.8087    3.2182 C   0  0  0  0  0  0  0  0  0  0  0  0
    7.7687   -2.4838    3.5154 C   0  0  0  0  0  0  0  0  0  0  0  0
    7.2401   -2.8270    4.7439 C   0  0  0  0  0  0  0  0  0  0  0  0
    5.9298   -2.4659    4.9719 C   0  0  0  0  0  0  0  0  0  0  0  0
    3.2693   -3.8391    4.7711 N   0  0  0  0  0  0  0  0  0  0  0  0
    3.6931   -5.1666    4.8640 C   0  0  0  0  0  0  0  0  0  0  0  0
    4.0878   -6.0926    5.9241 C   0  0  0  0  0  0  0  0  0  0  0  0
    3.7335   -5.6946    3.6853 O   0  0  0  0  0  0  0  0  0  0  0  0
    1.9968   -0.5750   -0.7710 C   0  0  0  0  0  0  0  0  0  0  0  0
    0.8493   -0.8229   -0.2639 O   0  0  0  0  0  0  0  0  0  0  0  0
    2.6824    0.6061   -0.4830 N   0  0  0  0  0  0  0  0  0  0  0  0
    2.3667    1.7672    0.4133 C   0  0  1  0  0  0  0  0  0  0  0  0
    3.4878    1.8993    1.3516 C   0  0  0  0  0  0  0  0  0  0  0  0
    3.5637    2.9358    2.3568 C   0  0  0  0  0  0  0  0  0  0  0  0
    3.6590    4.3733    1.9331 C   0  0  0  0  0  0  0  0  0  0  0  0
    4.7823    2.7241    3.3058 C   0  0  0  0  0  0  0  0  0  0  0  0
    1.7950    2.8540   -0.3163 C   0  0  0  0  0  0  0  0  0  0  0  0
    1.6735    3.0272   -1.5705 O   0  0  0  0  0  0  0  0  0  0  0  0
    1.1975    4.0446    0.1368 N   0  0  0  0  0  0  0  0  0  0  0  0
    0.5707    5.2759    0.1431 C   0  0  1  0  0  0  0  0  0  0  0  0
   -0.3986    5.6277    1.1544 C   0  0  0  0  0  0  0  0  0  0  0  0
   -1.7110    4.9220    1.2710 C   0  0  0  0  0  0  0  0  0  0  0  0
   -2.5266    5.1107    0.0116 C   0  0  0  0  0  0  0  0  0  0  0  0
   -3.9229    4.5023    0.2201 C   0  0  0  0  0  0  0  0  0  0  0  0
   -4.7087    4.6184   -0.9193 N   0  0  0  0  0  0  0  0  0  0  0  0
   -5.7290    4.3999   -1.5108 C   0  0  0  0  0  0  0  0  0  0  0  0
   -6.9903    3.7668   -1.3687 N   0  0  0  0  0  0  0  0  0  0  0  0
   -7.0801    3.1750   -0.0261 C   0  0  0  0  0  0  0  0  0  0  0  0
   -8.4264    2.4832    0.1133 C   0  0  0  0  0  0  0  0  0  0  0  0
   -5.5689    5.0047   -2.8346 N   0  0  0  0  0  0  0  0  0  0  0  0
   -4.2613    5.2324   -3.4257 C   0  0  0  0  0  0  0  0  0  0  0  0
   -4.3330    5.8704   -4.7703 C   0  0  0  0  0  0  0  0  0  0  0  0
    1.3854    6.4954   -0.2344 C   0  0  0  0  0  0  0  0  0  0  0  0
    0.8594    7.5283    0.3370 O   0  0  0  0  0  0  0  0  0  0  0  0
    2.5522    6.5294   -1.1019 N   0  0  0  0  0  0  0  0  0  0  0  0
    3.4589    5.7087   -1.8959 C   0  0  0  0  0  0  0  0  0  0  0  0
    4.6973    6.5780   -2.0774 C   0  0  0  0  0  0  0  0  0  0  0  0
    3.9903    7.9087   -2.3738 C   0  0  0  0  0  0  0  0  0  0  0  0
    2.9485    7.9441   -1.2969 C   0  0  1  0  0  0  0  0  0  0  0  0
    1.7586    8.6991   -1.8149 C   0  0  0  0  0  0  0  0  0  0  0  0
    1.1433    7.6144   -2.1508 O   0  0  0  0  0  0  0  0  0  0  0  0
    1.1499    9.9598   -2.0326 N   0  0  0  0  0  0  0  0  0  0  0  0
   -0.1635    9.9741   -2.6166 C   0  0  2  0  0  0  0  0  0  0  0  0
   -0.2253   10.7300   -3.9052 C   0  0  0  0  0  0  0  0  0  0  0  0
   -1.1057   10.6100   -1.6428 C   0  0  0  0  0  0  0  0  0  0  0  0
   -2.5019   10.8229   -1.6946 N   0  0  0  0  0  0  0  0  0  0  0  0
    0.0140   10.7032   -1.0551 O   0  0  0  0  0  0  0  0  0  0  0  0
   -1.6290   -9.6892   -3.0285 H   0  0  0  0  0  0  0  0  0  0  0  0
   -2.9390   -8.4841   -2.5971 H   0  0  0  0  0  0  0  0  0  0  0  0
   -2.5207   -9.7596   -1.4257 H   0  0  0  0  0  0  0  0  0  0  0  0
   -1.0114   -7.3047   -2.3504 H   0  0  0  0  0  0  0  0  0  0  0  0
   -0.0949   -8.7289   -1.6157 H   0  0  0  0  0  0  0  0  0  0  0  0
   -2.3474   -8.1821    0.0803 H   0  0  0  0  0  0  0  0  0  0  0  0
   -2.1098   -6.8963    2.0752 H   0  0  0  0  0  0  0  0  0  0  0  0
    0.4117   -5.4288    2.6626 H   0  0  0  0  0  0  0  0  0  0  0  0
   -0.6805   -6.2737    3.8571 H   0  0  0  0  0  0  0  0  0  0  0  0
    1.5950   -7.3246    3.7210 H   0  0  0  0  0  0  0  0  0  0  0  0
    0.2450   -8.4165    3.3552 H   0  0  0  0  0  0  0  0  0  0  0  0
    1.1563   -7.7651    1.9702 H   0  0  0  0  0  0  0  0  0  0  0  0
    2.0029   -5.7636    0.9745 H   0  0  0  0  0  0  0  0  0  0  0  0
    0.8474   -4.4587    0.5832 H   0  0  0  0  0  0  0  0  0  0  0  0
    2.5626   -6.1640   -1.2656 H   0  0  0  0  0  0  0  0  0  0  0  0
    1.3874   -5.0487   -1.9187 H   0  0  0  0  0  0  0  0  0  0  0  0
    3.9302   -4.5641   -0.3415 H   0  0  0  0  0  0  0  0  0  0  0  0
    3.6407   -4.1734   -2.0789 H   0  0  0  0  0  0  0  0  0  0  0  0
    2.5811   -2.6022    0.3592 H   0  0  0  0  0  0  0  0  0  0  0  0
    3.9315   -2.2181   -0.6945 H   0  0  0  0  0  0  0  0  0  0  0  0
    2.4481   -1.7318   -2.5473 H   0  0  0  0  0  0  0  0  0  0  0  0
    0.2226   -2.5534   -0.6258 H   0  0  0  0  0  0  0  0  0  0  0  0
   -1.2843   -4.4965   -3.2525 H   0  0  0  0  0  0  0  0  0  0  0  0
   -3.0985   -3.1771   -4.0095 H   0  0  0  0  0  0  0  0  0  0  0  0
   -2.1528   -1.6284   -3.7645 H   0  0  0  0  0  0  0  0  0  0  0  0
   -0.3669   -1.1725   -5.5297 H   0  0  0  0  0  0  0  0  0  0  0  0
    0.6291   -1.7502   -7.6886 H   0  0  0  0  0  0  0  0  0  0  0  0
    0.9296   -4.6789   -9.0710 H   0  0  0  0  0  0  0  0  0  0  0  0
   -1.4750   -5.4050   -7.5764 H   0  0  0  0  0  0  0  0  0  0  0  0
   -2.4326   -4.8460   -5.4578 H   0  0  0  0  0  0  0  0  0  0  0  0
   -1.6636   -2.6588   -1.1456 H   0  0  0  0  0  0  0  0  0  0  0  0
   -3.2366   -4.9290    0.8204 H   0  0  0  0  0  0  0  0  0  0  0  0
   -5.6458   -4.2807    1.1517 H   0  0  0  0  0  0  0  0  0  0  0  0
   -5.6061   -3.4914   -0.4946 H   0  0  0  0  0  0  0  0  0  0  0  0
   -6.4370   -5.3908   -0.7874 H   0  0  0  0  0  0  0  0  0  0  0  0
   -2.7577   -2.8756    1.7535 H   0  0  0  0  0  0  0  0  0  0  0  0
   -1.7290   -0.4289    0.3468 H   0  0  0  0  0  0  0  0  0  0  0  0
   -2.8064    1.5795    0.7537 H   0  0  0  0  0  0  0  0  0  0  0  0
   -4.4723    0.9244    0.3338 H   0  0  0  0  0  0  0  0  0  0  0  0
   -4.9407    0.5058   -2.1375 H   0  0  0  0  0  0  0  0  0  0  0  0
   -4.1060    0.9891   -4.4774 H   0  0  0  0  0  0  0  0  0  0  0  0
   -1.8545    1.8189   -4.8945 H   0  0  0  0  0  0  0  0  0  0  0  0
   -1.0497    1.7449   -0.8659 H   0  0  0  0  0  0  0  0  0  0  0  0
   -3.3816   -0.5294    2.9210 H   0  0  0  0  0  0  0  0  0  0  0  0
   -0.7387   -0.0695    4.7876 H   0  0  0  0  0  0  0  0  0  0  0  0
   -1.5174   -2.9784    4.6430 H   0  0  0  0  0  0  0  0  0  0  0  0
   -0.7270   -2.1190    6.0400 H   0  0  0  0  0  0  0  0  0  0  0  0
   -4.0363   -2.5542    4.5617 H   0  0  0  0  0  0  0  0  0  0  0  0
   -6.0498   -1.6083    5.5818 H   0  0  0  0  0  0  0  0  0  0  0  0
   -3.4436    0.6670    8.2148 H   0  0  0  0  0  0  0  0  0  0  0  0
   -1.5601   -0.3358    7.1209 H   0  0  0  0  0  0  0  0  0  0  0  0
    1.1517   -0.9682    3.0792 H   0  0  0  0  0  0  0  0  0  0  0  0
    2.8451   -2.8364    3.0071 H   0  0  0  0  0  0  0  0  0  0  0  0
    3.4043   -0.6703    3.6868 H   0  0  0  0  0  0  0  0  0  0  0  0
    3.6239   -1.0654    5.3859 H   0  0  0  0  0  0  0  0  0  0  0  0
    5.1651   -0.9731    2.1178 H   0  0  0  0  0  0  0  0  0  0  0  0
    7.0016   -0.9534    0.5861 H   0  0  0  0  0  0  0  0  0  0  0  0
    9.3742   -1.5592    0.0859 H   0  0  0  0  0  0  0  0  0  0  0  0
   10.6496   -2.7085    1.7340 H   0  0  0  0  0  0  0  0  0  0  0  0
    9.7304   -3.3289    3.8893 H   0  0  0  0  0  0  0  0  0  0  0  0
    7.8258   -3.3498    5.4780 H   0  0  0  0  0  0  0  0  0  0  0  0
    5.5329   -2.7455    5.9395 H   0  0  0  0  0  0  0  0  0  0  0  0
    3.2617   -3.4631    5.7813 H   0  0  0  0  0  0  0  0  0  0  0  0
    3.7528   -5.7834    6.9353 H   0  0  0  0  0  0  0  0  0  0  0  0
    5.1714   -6.3848    5.8888 H   0  0  0  0  0  0  0  0  0  0  0  0
    3.5297   -7.0577    5.7392 H   0  0  0  0  0  0  0  0  0  0  0  0
    3.5405    0.4703   -1.1021 H   0  0  0  0  0  0  0  0  0  0  0  0
    1.4961    1.3171    1.0246 H   0  0  0  0  0  0  0  0  0  0  0  0
    3.5429    0.8958    1.8996 H   0  0  0  0  0  0  0  0  0  0  0  0
    4.4640    1.9569    0.7344 H   0  0  0  0  0  0  0  0  0  0  0  0
    2.7019    2.9078    3.0977 H   0  0  0  0  0  0  0  0  0  0  0  0
    3.8149    4.4796    0.8451 H   0  0  0  0  0  0  0  0  0  0  0  0
    4.5968    4.8619    2.3661 H   0  0  0  0  0  0  0  0  0  0  0  0
    2.8563    5.0259    2.3358 H   0  0  0  0  0  0  0  0  0  0  0  0
    5.1224    3.6733    3.7322 H   0  0  0  0  0  0  0  0  0  0  0  0
    5.5681    2.3581    2.6546 H   0  0  0  0  0  0  0  0  0  0  0  0
    4.5052    2.0804    4.1543 H   0  0  0  0  0  0  0  0  0  0  0  0
    1.1612    3.9075    1.2064 H   0  0  0  0  0  0  0  0  0  0  0  0
   -0.1032    5.3006   -0.8717 H   0  0  0  0  0  0  0  0  0  0  0  0
    0.0732    5.5107    2.1976 H   0  0  0  0  0  0  0  0  0  0  0  0
   -0.6503    6.7271    1.1621 H   0  0  0  0  0  0  0  0  0  0  0  0
   -2.2763    5.4115    2.0906 H   0  0  0  0  0  0  0  0  0  0  0  0
   -1.6381    3.8625    1.5040 H   0  0  0  0  0  0  0  0  0  0  0  0
   -2.0583    4.6915   -0.8831 H   0  0  0  0  0  0  0  0  0  0  0  0
   -2.6194    6.2078   -0.1190 H   0  0  0  0  0  0  0  0  0  0  0  0
   -3.9081    3.5430    0.7262 H   0  0  0  0  0  0  0  0  0  0  0  0
   -4.3646    5.2050    1.0354 H   0  0  0  0  0  0  0  0  0  0  0  0
   -7.7497    3.7186   -2.0831 H   0  0  0  0  0  0  0  0  0  0  0  0
   -6.2444    2.5181    0.1796 H   0  0  0  0  0  0  0  0  0  0  0  0
   -7.0499    4.0160    0.6919 H   0  0  0  0  0  0  0  0  0  0  0  0
   -9.2441    3.0860   -0.3110 H   0  0  0  0  0  0  0  0  0  0  0  0
   -8.6627    2.2429    1.1480 H   0  0  0  0  0  0  0  0  0  0  0  0
   -8.4105    1.5284   -0.4734 H   0  0  0  0  0  0  0  0  0  0  0  0
   -6.3856    5.3073   -3.4546 H   0  0  0  0  0  0  0  0  0  0  0  0
   -3.8067    4.2132   -3.5913 H   0  0  0  0  0  0  0  0  0  0  0  0
   -3.6720    5.8091   -2.7110 H   0  0  0  0  0  0  0  0  0  0  0  0
   -5.1021    5.3455   -5.3939 H   0  0  0  0  0  0  0  0  0  0  0  0
   -4.6590    6.9267   -4.6829 H   0  0  0  0  0  0  0  0  0  0  0  0
   -3.3620    5.8188   -5.3256 H   0  0  0  0  0  0  0  0  0  0  0  0
    3.7575    4.7736   -1.4458 H   0  0  0  0  0  0  0  0  0  0  0  0
    2.9803    5.5322   -2.8875 H   0  0  0  0  0  0  0  0  0  0  0  0
    5.2770    6.6342   -1.1564 H   0  0  0  0  0  0  0  0  0  0  0  0
    5.2185    6.2594   -2.9789 H   0  0  0  0  0  0  0  0  0  0  0  0
    4.6934    8.7442   -2.3373 H   0  0  0  0  0  0  0  0  0  0  0  0
    3.5328    7.7556   -3.3900 H   0  0  0  0  0  0  0  0  0  0  0  0
    3.3665    8.3392   -0.3794 H   0  0  0  0  0  0  0  0  0  0  0  0
    1.9216   10.5612   -1.6613 H   0  0  0  0  0  0  0  0  0  0  0  0
   -0.4754    8.9318   -2.8316 H   0  0  0  0  0  0  0  0  0  0  0  0
    0.7139   10.5213   -4.4951 H   0  0  0  0  0  0  0  0  0  0  0  0
   -0.2856   11.8186   -3.7167 H   0  0  0  0  0  0  0  0  0  0  0  0
   -1.1002   10.4102   -4.5400 H   0  0  0  0  0  0  0  0  0  0  0  0
   -2.2925   11.8294   -1.9428 H   0  0  0  0  0  0  0  0  0  0  0  0
   -2.9263    9.9184   -1.4703 H   0  0  0  0  0  0  0  0  0  0  0  0
  1  2  1  0
  2  3  1  0
  3  4  1  0
  4  5  1  0
  5  6  1  0
  6  7  1  0
  4  8  2  3
  8  9  1  0
  9 10  1  0
 10 11  1  0
 11 12  1  0
 12 13  1  0
 13 14  1  0
 14 15  1  0
 15 16  2  0
 15 17  1  0
 17 18  1  0
 18 19  1  0
 19 20  2  0
 20 21  1  0
 21 22  2  0
 22 23  1  0
 22 24  1  0
 24 25  2  0
 17 26  1  0
 26 27  1  0
 27 28  2  0
 27 29  1  0
 29 30  1  0
 30 31  1  0
 29 32  1  0
 32 33  1  0
 33 34  2  0
 33 35  1  0
 35 36  1  0
 36 37  1  0
 37 38  2  0
 38 39  1  0
 39 40  2  0
 40 41  1  0
 41 42  2  0
 35 43  1  0
 43 44  1  0
 44 45  2  0
 44 46  1  0
 46 47  1  0
 47 48  1  0
 48 49  2  0
 49 50  1  0
 50 51  2  0
 51 52  1  0
 51 53  1  0
 53 54  2  0
 46 55  1  0
 55 56  1  0
 56 57  2  0
 56 58  1  0
 58 59  1  0
 59 60  1  0
 60 61  2  0
 61 62  1  0
 62 63  2  0
 63 64  1  0
 64 65  2  0
 65 66  1  0
 66 67  2  0
 67 68  1  0
 68 69  2  0
 58 70  1  0
 70 71  1  0
 71 72  1  0
 71 73  2  0
 13 74  1  0
 74 75  2  0
 74 76  1  0
 76 77  1  0
 77 78  1  0
 78 79  1  0
 79 80  1  0
 79 81  1  0
 77 82  1  0
 82 83  2  0
 82 84  1  0
 84 85  1  0
 85 86  1  0
 86 87  1  0
 87 88  1  0
 88 89  1  0
 89 90  1  0
 90 91  2  3
 91 92  1  0
 92 93  1  0
 93 94  1  0
 91 95  1  0
 95 96  1  0
 96 97  1  0
 85 98  1  0
 98 99  2  0
 98100  1  0
100101  1  0
101102  1  0
102103  1  0
103104  1  0
104105  1  0
105106  2  0
105107  1  0
107108  1  0
108109  1  0
108110  1  0
110111  1  0
110112  2  0
 25 19  1  0
 42 37  1  0
 54 48  1  0
 69 60  1  0
104100  1  0
 67 62  1  0
  1113  1  0
  1114  1  0
  1115  1  0
  2116  1  0
  2117  1  0
  3118  1  0
  5119  1  0
  6120  1  0
  6121  1  0
  7122  1  0
  7123  1  0
  7124  1  0
  9125  1  0
  9126  1  0
 10127  1  0
 10128  1  0
 11129  1  0
 11130  1  0
 12131  1  0
 12132  1  0
 13133  1  6
 14134  1  0
 17135  1  6
 18136  1  0
 18137  1  0
 20138  1  0
 21139  1  0
 23140  1  0
 24141  1  0
 25142  1  0
 26143  1  0
 29144  1  1
 30145  1  0
 30146  1  0
 31147  1  0
 32148  1  0
 35149  1  6
 36150  1  0
 36151  1  0
 38152  1  0
 39153  1  0
 40154  1  0
 42155  1  0
 43156  1  0
 46157  1  1
 47158  1  0
 47159  1  0
 49160  1  0
 50161  1  0
 53162  1  0
 54163  1  0
 55164  1  0
 58165  1  6
 59166  1  0
 59167  1  0
 61168  1  0
 63169  1  0
 64170  1  0
 65171  1  0
 66172  1  0
 68173  1  0
 69174  1  0
 70175  1  0
 72176  1  0
 72177  1  0
 72178  1  0
 76179  1  0
 77180  1  1
 78181  1  0
 78182  1  0
 79183  1  0
 80184  1  0
 80185  1  0
 80186  1  0
 81187  1  0
 81188  1  0
 81189  1  0
 84190  1  0
 85191  1  6
 86192  1  0
 86193  1  0
 87194  1  0
 87195  1  0
 88196  1  0
 88197  1  0
 89198  1  0
 89199  1  0
 92200  1  0
 93201  1  0
 93202  1  0
 94203  1  0
 94204  1  0
 94205  1  0
 95206  1  0
 96207  1  0
 96208  1  0
 97209  1  0
 97210  1  0
 97211  1  0
101212  1  0
101213  1  0
102214  1  0
102215  1  0
103216  1  0
103217  1  0
104218  1  1
107219  1  0
108220  1  6
109221  1  0
109222  1  0
109223  1  0
111224  1  0
111225  1  0
M  END
$$$$
