@<TRIPOS>MOLECULE
*****
 225 230 0 0 0
SMALL
GASTEIGER

@<TRIPOS>ATOM
      1 C          -2.0819   -9.1035   -2.2100 C.3     1  UNL1       -0.0343
      2 C          -1.0653   -8.1518   -1.6389 C.3     1  UNL1        0.0618
      3 N          -1.4427   -7.7561   -0.2979 N.pl3   1  UNL1       -0.2761
      4 C          -0.6674   -6.8382    0.5096 C.cat   1  UNL1        0.3810
      5 N          -1.0956   -6.7084    1.8307 N.pl3   1  UNL1       -0.2761
      6 C          -0.1584   -6.3308    2.8676 C.3     1  UNL1        0.0618
      7 C           0.7988   -7.4974    3.0016 C.3     1  UNL1       -0.0343
      8 N           0.2615   -6.3141   -0.1097 N.pl3   1  UNL1       -0.1135
      9 C           1.2868   -5.3743    0.1856 C.3     1  UNL1        0.1047
     10 C           2.0601   -5.1417   -1.0980 C.3     1  UNL1       -0.0186
     11 C           3.1419   -4.1619   -1.0504 C.3     1  UNL1       -0.0479
     12 C           2.9252   -2.7632   -0.7009 C.3     1  UNL1       -0.0259
     13 C           2.0427   -1.8806   -1.5388 C.3     1  UNL1        0.0994
     14 N           0.7002   -2.4546   -1.5395 N.am    1  UNL1       -0.3025
     15 C           0.0553   -2.8679   -2.7562 C.2     1  UNL1        0.2343
     16 O           0.8484   -2.6716   -3.7159 O.2     1  UNL1       -0.2738
     17 C          -1.2956   -3.4264   -2.8761 C.3     1  UNL1        0.1034
     18 C          -2.0964   -2.7183   -3.9700 C.3     1  UNL1       -0.0007
     19 C          -1.4479   -2.8856   -5.2758 C.ar    1  UNL1       -0.0449
     20 C          -0.5848   -2.1148   -6.0093 C.ar    1  UNL1       -0.0551
     21 C          -0.0437   -2.4408   -7.2217 C.ar    1  UNL1       -0.0199
     22 C          -0.3722   -3.6468   -7.7962 C.ar    1  UNL1        0.1169
     23 O           0.1433   -4.0256   -9.0148 O.3     1  UNL1       -0.5068
     24 C          -1.2314   -4.4662   -7.1180 C.ar    1  UNL1       -0.0199
     25 C          -1.7584   -4.1113   -5.8997 C.ar    1  UNL1       -0.0551
     26 N          -2.0530   -3.4711   -1.6591 N.am    1  UNL1       -0.3021
     27 C          -3.0458   -4.3360   -1.1413 C.2     1  UNL1        0.2362
     28 O          -3.2992   -5.2773   -1.9200 O.2     1  UNL1       -0.2737
     29 CA         -3.6939   -4.0999    0.2002 C.3     1  UNL1        0.1226
     30 C          -5.1587   -4.2764    0.1736 C.3     1  UNL1        0.0711
     31 O          -5.5325   -5.5080   -0.4080 O.3     1  UNL1       -0.3927
     32 N          -3.2233   -2.8573    0.7887 N.am    1  UNL1       -0.3006
     33 C          -3.4287   -1.6537    0.0095 C.2     1  UNL1        0.2343
     34 O          -4.0297   -1.7738   -1.0886 O.2     1  UNL1       -0.2738
     35 CA         -2.8514   -0.4945    0.6930 C.3     1  UNL1        0.1034
     36 C          -3.3892    0.7903    0.1772 C.3     1  UNL1        0.0008
     37 C          -3.1562    1.0397   -1.2676 C.ar    1  UNL1       -0.0270
     38 C          -3.9712    0.8531   -2.3638 C.ar    1  UNL1       -0.0556
     39 C          -3.4730    1.1398   -3.6223 C.ar    1  UNL1       -0.0433
     40 C          -2.2050    1.6090   -3.8939 C.ar    1  UNL1        0.0276
     41 N          -1.3884    1.7982   -2.8139 N.ar    1  UNL1       -0.2630
     42 C          -1.8675    1.5195   -1.5701 C.ar    1  UNL1        0.0308
     43 N          -2.6856   -0.5957    2.1093 N.am    1  UNL1       -0.3022
     44 C          -1.6792   -0.8085    3.0278 C.2     1  UNL1        0.2343
     45 O          -0.5349   -0.9831    2.4809 O.2     1  UNL1       -0.2738
     46 CA         -0.8112   -1.0062    4.1356 C.3     1  UNL1        0.1034
     47 C          -1.3737   -2.0305    5.1560 C.3     1  UNL1       -0.0007
     48 C          -2.6856   -1.5624    5.7009 C.ar    1  UNL1       -0.0451
     49 C          -3.9671   -1.8335    5.3685 C.ar    1  UNL1       -0.0571
     50 C          -5.0966   -1.3024    5.9474 C.ar    1  UNL1       -0.0431
     51 C          -4.9125   -0.3864    6.9884 C.ar    1  UNL1        0.0410
     52 CL         -6.3165    0.3269    7.7560 Cl      1  UNL1       -0.0835
     53 C          -3.6485   -0.0398    7.4054 C.ar    1  UNL1       -0.0431
     54 C          -2.5530   -0.6344    6.7547 C.ar    1  UNL1       -0.0571
     55 N           0.5475   -1.3962    3.8509 N.am    1  UNL1       -0.3022
     56 C           1.4142   -2.3357    4.4258 C.2     1  UNL1        0.2343
     57 O           1.0726   -3.0819    5.3731 O.2     1  UNL1       -0.2738
     58 CA          2.8360   -2.6714    4.0982 C.3     1  UNL1        0.1033
     59 C           3.7327   -1.4735    4.3771 C.3     1  UNL1       -0.0006
     60 C           5.1400   -1.7943    4.0520 C.ar    1  UNL1       -0.0445
     61 C           5.7634   -1.5037    2.8663 C.ar    1  UNL1       -0.0508
     62 C           7.0550   -1.8140    2.5389 C.ar    1  UNL1       -0.0176
     63 C           7.5964   -1.4689    1.3088 C.ar    1  UNL1       -0.0540
     64 C           8.9002   -1.7958    1.0229 C.ar    1  UNL1       -0.0612
     65 C           9.6199   -2.4618    1.9828 C.ar    1  UNL1       -0.0612
     66 C           9.0748   -2.8087    3.2182 C.ar    1  UNL1       -0.0540
     67 C           7.7687   -2.4838    3.5154 C.ar    1  UNL1       -0.0179
     68 C           7.2401   -2.8270    4.7439 C.ar    1  UNL1       -0.0538
     69 C           5.9298   -2.4659    4.9719 C.ar    1  UNL1       -0.0579
     70 N           3.2693   -3.8391    4.7711 N.am    1  UNL1       -0.3039
     71 C           3.6931   -5.1666    4.8640 C.2     1  UNL1        0.2105
     72 C           4.0878   -6.0926    5.9241 C.3     1  UNL1        0.0122
     73 O           3.7335   -5.6946    3.6853 O.2     1  UNL1       -0.2761
     74 C           1.9968   -0.5750   -0.7710 C.2     1  UNL1        0.2339
     75 O           0.8493   -0.8229   -0.2639 O.2     1  UNL1       -0.2738
     76 N           2.6824    0.6061   -0.4830 N.am    1  UNL1       -0.3025
     77 C           2.3667    1.7672    0.4133 C.3     1  UNL1        0.0996
     78 C           3.4878    1.8993    1.3516 C.3     1  UNL1       -0.0236
     79 C           3.5637    2.9358    2.3568 C.3     1  UNL1       -0.0446
     80 C           3.6590    4.3733    1.9331 C.3     1  UNL1       -0.0626
     81 C           4.7823    2.7241    3.3058 C.3     1  UNL1       -0.0626
     82 C           1.7950    2.8540   -0.3163 C.2     1  UNL1        0.2340
     83 O           1.6735    3.0272   -1.5705 O.2     1  UNL1       -0.2738
     84 N           1.1975    4.0446    0.1368 N.am    1  UNL1       -0.3025
     85 C           0.5707    5.2759    0.1431 C.3     1  UNL1        0.0996
     86 C          -0.3986    5.6277    1.1544 C.3     1  UNL1       -0.0259
     87 C          -1.7110    4.9220    1.2710 C.3     1  UNL1       -0.0479
     88 C          -2.5266    5.1107    0.0116 C.3     1  UNL1       -0.0186
     89 C          -3.9229    4.5023    0.2201 C.3     1  UNL1        0.1047
     90 N          -4.7087    4.6184   -0.9193 N.pl3   1  UNL1       -0.1135
     91 C          -5.7290    4.3999   -1.5108 C.cat   1  UNL1        0.3810
     92 N          -6.9903    3.7668   -1.3687 N.pl3   1  UNL1       -0.2761
     93 C          -7.0801    3.1750   -0.0261 C.3     1  UNL1        0.0618
     94 C          -8.4264    2.4832    0.1133 C.3     1  UNL1       -0.0343
     95 N          -5.5689    5.0047   -2.8346 N.pl3   1  UNL1       -0.2761
     96 C          -4.2613    5.2324   -3.4257 C.3     1  UNL1        0.0618
     97 C          -4.3330    5.8704   -4.7703 C.3     1  UNL1       -0.0343
     98 C           1.3854    6.4954   -0.2344 C.2     1  UNL1        0.2365
     99 O           0.8594    7.5283    0.3370 O.2     1  UNL1       -0.2735
    100 N           2.5522    6.5294   -1.1019 N.am    1  UNL1       -0.2884
    101 C           3.4589    5.7087   -1.8959 C.3     1  UNL1        0.0156
    102 C           4.6973    6.5780   -2.0774 C.3     1  UNL1       -0.0350
    103 C           3.9903    7.9087   -2.3738 C.3     1  UNL1       -0.0243
    104 C           2.9485    7.9441   -1.2969 C.3     1  UNL1        0.1023
    105 C           1.7586    8.6991   -1.8149 C.2     1  UNL1        0.2342
    106 O           1.1433    7.6144   -2.1508 O.2     1  UNL1       -0.2738
    107 N           1.1499    9.9598   -2.0326 N.am    1  UNL1       -0.3027
    108 C          -0.1635    9.9741   -2.6166 C.3     1  UNL1        0.0964
    109 C          -0.2253   10.7300   -3.9052 C.3     1  UNL1       -0.0381
    110 C          -1.1057   10.6100   -1.6428 C.2     1  UNL1        0.2306
    111 N          -2.5019   10.8229   -1.6946 N.am    1  UNL1       -0.3278
    112 O           0.0140   10.7032   -1.0551 O.2     1  UNL1       -0.2740
    113 H          -1.6290   -9.6892   -3.0285 H       1  UNL1        0.0260
    114 H          -2.9390   -8.4841   -2.5971 H       1  UNL1        0.0260
    115 H          -2.5207   -9.7596   -1.4257 H       1  UNL1        0.0260
    116 H          -1.0114   -7.3047   -2.3504 H       1  UNL1        0.0652
    117 H          -0.0949   -8.7289   -1.6157 H       1  UNL1        0.0652
    118 H          -2.3474   -8.1821    0.0803 H       1  UNL1        0.2579
    119 H          -2.1098   -6.8963    2.0752 H       1  UNL1        0.2579
    120 H           0.4117   -5.4288    2.6626 H       1  UNL1        0.0652
    121 H          -0.6805   -6.2737    3.8571 H       1  UNL1        0.0652
    122 H           1.5950   -7.3246    3.7210 H       1  UNL1        0.0260
    123 H           0.2450   -8.4165    3.3552 H       1  UNL1        0.0260
    124 H           1.1563   -7.7651    1.9702 H       1  UNL1        0.0260
    125 H           2.0029   -5.7636    0.9745 H       1  UNL1        0.0693
    126 H           0.8474   -4.4587    0.5832 H       1  UNL1        0.0693
    127 H           2.5626   -6.1640   -1.2656 H       1  UNL1        0.0297
    128 H           1.3874   -5.0487   -1.9187 H       1  UNL1        0.0297
    129 H           3.9302   -4.5641   -0.3415 H       1  UNL1        0.0267
    130 H           3.6407   -4.1734   -2.0789 H       1  UNL1        0.0267
    131 H           2.5811   -2.6022    0.3592 H       1  UNL1        0.0288
    132 H           3.9315   -2.2181   -0.6945 H       1  UNL1        0.0288
    133 H           2.4481   -1.7318   -2.5473 H       1  UNL1        0.0594
    134 H           0.2226   -2.5534   -0.6258 H       1  UNL1        0.1495
    135 H          -1.2843   -4.4965   -3.2525 H       1  UNL1        0.0598
    136 H          -3.0985   -3.1771   -4.0095 H       1  UNL1        0.0336
    137 H          -2.1528   -1.6284   -3.7645 H       1  UNL1        0.0336
    138 H          -0.3669   -1.1725   -5.5297 H       1  UNL1        0.0621
    139 H           0.6291   -1.7502   -7.6886 H       1  UNL1        0.0654
    140 H           0.9296   -4.6789   -9.0710 H       1  UNL1        0.2921
    141 H          -1.4750   -5.4050   -7.5764 H       1  UNL1        0.0654
    142 H          -2.4326   -4.8460   -5.4578 H       1  UNL1        0.0621
    143 H          -1.6636   -2.6588   -1.1456 H       1  UNL1        0.1495
    144 HA         -3.2366   -4.9290    0.8204 H       1  UNL1        0.0618
    145 H1         -5.6458   -4.2807    1.1517 H       1  UNL1        0.0580
    146 H2         -5.6061   -3.4914   -0.4946 H       1  UNL1        0.0580
    147 H          -6.4370   -5.3908   -0.7874 H       1  UNL1        0.2095
    148 H          -2.7577   -2.8756    1.7535 H       1  UNL1        0.1496
    149 HA         -1.7290   -0.4289    0.3468 H       1  UNL1        0.0598
    150 H          -2.8064    1.5795    0.7537 H       1  UNL1        0.0336
    151 H          -4.4723    0.9244    0.3338 H       1  UNL1        0.0336
    152 H          -4.9407    0.5058   -2.1375 H       1  UNL1        0.0621
    153 H          -4.1060    0.9891   -4.4774 H       1  UNL1        0.0633
    154 H          -1.8545    1.8189   -4.8945 H       1  UNL1        0.0829
    155 H          -1.0497    1.7449   -0.8659 H       1  UNL1        0.0832
    156 H          -3.3816   -0.5294    2.9210 H       1  UNL1        0.1495
    157 HA         -0.7387   -0.0695    4.7876 H       1  UNL1        0.0598
    158 H          -1.5174   -2.9784    4.6430 H       1  UNL1        0.0336
    159 H          -0.7270   -2.1190    6.0400 H       1  UNL1        0.0336
    160 H          -4.0363   -2.5542    4.5617 H       1  UNL1        0.0621
    161 H          -6.0498   -1.6083    5.5818 H       1  UNL1        0.0632
    162 H          -3.4436    0.6670    8.2148 H       1  UNL1        0.0632
    163 H          -1.5601   -0.3358    7.1209 H       1  UNL1        0.0621
    164 H           1.1517   -0.9682    3.0792 H       1  UNL1        0.1495
    165 HA          2.8451   -2.8364    3.0071 H       1  UNL1        0.0598
    166 H           3.4043   -0.6703    3.6868 H       1  UNL1        0.0336
    167 H           3.6239   -1.0654    5.3859 H       1  UNL1        0.0336
    168 H           5.1651   -0.9731    2.1178 H       1  UNL1        0.0626
    169 H           7.0016   -0.9534    0.5861 H       1  UNL1        0.0624
    170 H           9.3742   -1.5592    0.0859 H       1  UNL1        0.0618
    171 H          10.6496   -2.7085    1.7340 H       1  UNL1        0.0618
    172 H           9.7304   -3.3289    3.8893 H       1  UNL1        0.0624
    173 H           7.8258   -3.3498    5.4780 H       1  UNL1        0.0624
    174 H           5.5329   -2.7455    5.9395 H       1  UNL1        0.0620
    175 H           3.2617   -3.4631    5.7813 H       1  UNL1        0.1495
    176 H           3.7528   -5.7834    6.9353 H       1  UNL1        0.0322
    177 H           5.1714   -6.3848    5.8888 H       1  UNL1        0.0322
    178 H           3.5297   -7.0577    5.7392 H       1  UNL1        0.0322
    179 H           3.5405    0.4703   -1.1021 H       1  UNL1        0.1495
    180 H           1.4961    1.3171    1.0246 H       1  UNL1        0.0594
    181 H           3.5429    0.8958    1.8996 H       1  UNL1        0.0290
    182 H           4.4640    1.9569    0.7344 H       1  UNL1        0.0290
    183 H           2.7019    2.9078    3.0977 H       1  UNL1        0.0296
    184 H           3.8149    4.4796    0.8451 H       1  UNL1        0.0232
    185 H           4.5968    4.8619    2.3661 H       1  UNL1        0.0232
    186 H           2.8563    5.0259    2.3358 H       1  UNL1        0.0232
    187 H           5.1224    3.6733    3.7322 H       1  UNL1        0.0232
    188 H           5.5681    2.3581    2.6546 H       1  UNL1        0.0232
    189 H           4.5052    2.0804    4.1543 H       1  UNL1        0.0232
    190 H           1.1612    3.9075    1.2064 H       1  UNL1        0.1495
    191 H          -0.1032    5.3006   -0.8717 H       1  UNL1        0.0594
    192 H           0.0732    5.5107    2.1976 H       1  UNL1        0.0288
    193 H          -0.6503    6.7271    1.1621 H       1  UNL1        0.0288
    194 H          -2.2763    5.4115    2.0906 H       1  UNL1        0.0267
    195 H          -1.6381    3.8625    1.5040 H       1  UNL1        0.0267
    196 H          -2.0583    4.6915   -0.8831 H       1  UNL1        0.0297
    197 H          -2.6194    6.2078   -0.1190 H       1  UNL1        0.0297
    198 H          -3.9081    3.5430    0.7262 H       1  UNL1        0.0693
    199 H          -4.3646    5.2050    1.0354 H       1  UNL1        0.0693
    200 H          -7.7497    3.7186   -2.0831 H       1  UNL1        0.2579
    201 H          -6.2444    2.5181    0.1796 H       1  UNL1        0.0652
    202 H          -7.0499    4.0160    0.6919 H       1  UNL1        0.0652
    203 H          -9.2441    3.0860   -0.3110 H       1  UNL1        0.0260
    204 H          -8.6627    2.2429    1.1480 H       1  UNL1        0.0260
    205 H          -8.4105    1.5284   -0.4734 H       1  UNL1        0.0260
    206 H          -6.3856    5.3073   -3.4546 H       1  UNL1        0.2579
    207 H          -3.8067    4.2132   -3.5913 H       1  UNL1        0.0652
    208 H          -3.6720    5.8091   -2.7110 H       1  UNL1        0.0652
    209 H          -5.1021    5.3455   -5.3939 H       1  UNL1        0.0260
    210 H          -4.6590    6.9267   -4.6829 H       1  UNL1        0.0260
    211 H          -3.3620    5.8188   -5.3256 H       1  UNL1        0.0260
    212 H           3.7575    4.7736   -1.4458 H       1  UNL1        0.0465
    213 H           2.9803    5.5322   -2.8875 H       1  UNL1        0.0465
    214 H           5.2770    6.6342   -1.1564 H       1  UNL1        0.0281
    215 H           5.2185    6.2594   -2.9789 H       1  UNL1        0.0281
    216 H           4.6934    8.7442   -2.3373 H       1  UNL1        0.0288
    217 H           3.5328    7.7556   -3.3900 H       1  UNL1        0.0288
    218 H           3.3665    8.3392   -0.3794 H       1  UNL1        0.0597
    219 H           1.9216   10.5612   -1.6613 H       1  UNL1        0.1495
    220 H          -0.4754    8.9318   -2.8316 H       1  UNL1        0.0592
    221 H           0.7139   10.5213   -4.4951 H       1  UNL1        0.0252
    222 H          -0.2856   11.8186   -3.7167 H       1  UNL1        0.0252
    223 H          -1.1002   10.4102   -4.5400 H       1  UNL1        0.0252
    224 H          -2.2925   11.8294   -1.9428 H       1  UNL1        0.1450
    225 H          -2.9263    9.9184   -1.4703 H       1  UNL1        0.1450
@<TRIPOS>BOND
     1     1     2    1
     2     2     3    1
     3     3     4    1
     4     4     5    1
     5     5     6    1
     6     6     7    1
     7     4     8    2
     8     8     9    1
     9     9    10    1
    10    10    11    1
    11    11    12    1
    12    12    13    1
    13    13    14    1
    14    14    15   am
    15    15    16    2
    16    15    17    1
    17    17    18    1
    18    18    19    1
    19    19    20   ar
    20    20    21   ar
    21    21    22   ar
    22    22    23    1
    23    22    24   ar
    24    24    25   ar
    25    17    26    1
    26    26    27   am
    27    27    28    2
    28    27    29    1
    29    29    30    1
    30    30    31    1
    31    29    32    1
    32    32    33   am
    33    33    34    2
    34    33    35    1
    35    35    36    1
    36    36    37    1
    37    37    38   ar
    38    38    39   ar
    39    39    40   ar
    40    40    41   ar
    41    41    42   ar
    42    35    43    1
    43    43    44   am
    44    44    45    2
    45    44    46    1
    46    46    47    1
    47    47    48    1
    48    48    49   ar
    49    49    50   ar
    50    50    51   ar
    51    51    52    1
    52    51    53   ar
    53    53    54   ar
    54    46    55    1
    55    55    56   am
    56    56    57    2
    57    56    58    1
    58    58    59    1
    59    59    60    1
    60    60    61   ar
    61    61    62   ar
    62    62    63   ar
    63    63    64   ar
    64    64    65   ar
    65    65    66   ar
    66    66    67   ar
    67    67    68   ar
    68    68    69   ar
    69    58    70    1
    70    70    71   am
    71    71    72    1
    72    71    73    2
    73    13    74    1
    74    74    75    2
    75    74    76   am
    76    76    77    1
    77    77    78    1
    78    78    79    1
    79    79    80    1
    80    79    81    1
    81    77    82    1
    82    82    83    2
    83    82    84   am
    84    84    85    1
    85    85    86    1
    86    86    87    1
    87    87    88    1
    88    88    89    1
    89    89    90    1
    90    90    91    2
    91    91    92    1
    92    92    93    1
    93    93    94    1
    94    91    95    1
    95    95    96    1
    96    96    97    1
    97    85    98    1
    98    98    99    2
    99    98   100   am
   100   100   101    1
   101   101   102    1
   102   102   103    1
   103   103   104    1
   104   104   105    1
   105   105   106    2
   106   105   107   am
   107   107   108    1
   108   108   109    1
   109   108   110    1
   110   110   111   am
   111   110   112    2
   112    25    19   ar
   113    42    37   ar
   114    54    48   ar
   115    69    60   ar
   116   104   100    1
   117    67    62   ar
   118     1   113    1
   119     1   114    1
   120     1   115    1
   121     2   116    1
   122     2   117    1
   123     3   118    1
   124     5   119    1
   125     6   120    1
   126     6   121    1
   127     7   122    1
   128     7   123    1
   129     7   124    1
   130     9   125    1
   131     9   126    1
   132    10   127    1
   133    10   128    1
   134    11   129    1
   135    11   130    1
   136    12   131    1
   137    12   132    1
   138    13   133    1
   139    14   134    1
   140    17   135    1
   141    18   136    1
   142    18   137    1
   143    20   138    1
   144    21   139    1
   145    23   140    1
   146    24   141    1
   147    25   142    1
   148    26   143    1
   149    29   144    1
   150    30   145    1
   151    30   146    1
   152    31   147    1
   153    32   148    1
   154    35   149    1
   155    36   150    1
   156    36   151    1
   157    38   152    1
   158    39   153    1
   159    40   154    1
   160    42   155    1
   161    43   156    1
   162    46   157    1
   163    47   158    1
   164    47   159    1
   165    49   160    1
   166    50   161    1
   167    53   162    1
   168    54   163    1
   169    55   164    1
   170    58   165    1
   171    59   166    1
   172    59   167    1
   173    61   168    1
   174    63   169    1
   175    64   170    1
   176    65   171    1
   177    66   172    1
   178    68   173    1
   179    69   174    1
   180    70   175    1
   181    72   176    1
   182    72   177    1
   183    72   178    1
   184    76   179    1
   185    77   180    1
   186    78   181    1
   187    78   182    1
   188    79   183    1
   189    80   184    1
   190    80   185    1
   191    80   186    1
   192    81   187    1
   193    81   188    1
   194    81   189    1
   195    84   190    1
   196    85   191    1
   197    86   192    1
   198    86   193    1
   199    87   194    1
   200    87   195    1
   201    88   196    1
   202    88   197    1
   203    89   198    1
   204    89   199    1
   205    92   200    1
   206    93   201    1
   207    93   202    1
   208    94   203    1
   209    94   204    1
   210    94   205    1
   211    95   206    1
   212    96   207    1
   213    96   208    1
   214    97   209    1
   215    97   210    1
   216    97   211    1
   217   101   212    1
   218   101   213    1
   219   102   214    1
   220   102   215    1
   221   103   216    1
   222   103   217    1
   223   104   218    1
   224   107   219    1
   225   108   220    1
   226   109   221    1
   227   109   222    1
   228   109   223    1
   229   111   224    1
   230   111   225    1
