@<TRIPOS>MOLECULE
*****
 64 69 0 0 0
SMALL
GASTEIGER

@<TRIPOS>ATOM
      1 C          -3.9272   -2.4312    1.4189 C.3     1  UNL1       -0.0380
      2 C          -4.9541   -1.9945    0.4686 C.ar    1  UNL1       -0.0279
      3 C          -5.7960   -2.9620   -0.0796 C.ar    1  UNL1       -0.0557
      4 C          -6.8183   -2.6361   -0.9646 C.ar    1  UNL1       -0.0433
      5 C          -7.0026   -1.3151   -1.3084 C.ar    1  UNL1        0.0279
      6 N          -6.1943   -0.4017   -0.7802 N.ar    1  UNL1       -0.2583
      7 C          -5.1795   -0.6914    0.0924 C.ar    1  UNL1        0.0581
      8 C          -4.3311    0.4202    0.5741 C.3     1  UNL1        0.0415
      9 N          -3.1259    0.6353   -0.1311 N.3     1  UNL1       -0.2965
     10 C          -2.1422   -0.3703   -0.1949 C.3     1  UNL1        0.0017
     11 C          -0.8806    0.2164   -0.8869 C.3     1  UNL1       -0.0095
     12 C          -0.2399    1.1543    0.1215 C.3     1  UNL1        0.1240
     13 C          -1.3089    1.7228    0.9957 C.3     1  UNL1       -0.0095
     14 C          -2.5672    1.9276    0.1874 C.3     1  UNL1        0.0017
     15 C           0.8005    0.4283    0.9137 C.2     1  UNL1        0.2516
     16 O           0.5879   -0.0816    2.0403 O.2     1  UNL1       -0.2724
     17 N           1.9822    0.4684    0.1230 N.am    1  UNL1       -0.1920
     18 C           3.0892   -0.4480    0.2198 C.ar    1  UNL1        0.0456
     19 C           3.0236   -1.5139    1.0826 C.ar    1  UNL1       -0.0378
     20 C           4.1269   -2.3606    1.1456 C.ar    1  UNL1       -0.0345
     21 C           5.2512   -2.1520    0.3778 C.ar    1  UNL1        0.0654
     22 N           6.3704   -3.0199    0.4522 N.ar    1  UNL1       -0.2399
     23 C           6.9516   -3.7580   -0.5092 C.ar    1  UNL1        0.0312
     24 C           8.0205   -4.4396    0.0517 C.ar    1  UNL1       -0.0238
     25 C           8.0487   -4.0763    1.3830 C.ar    1  UNL1        0.0498
     26 N           7.0340   -3.2129    1.5949 N.ar    1  UNL1       -0.1748
     27 C           5.3142   -1.0806   -0.4882 C.ar    1  UNL1       -0.0345
     28 C           4.2115   -0.2342   -0.5511 C.ar    1  UNL1       -0.0378
     29 C           1.8314    1.5685   -0.7654 C.2     1  UNL1        0.3219
     30 O           2.6175    1.9975   -1.6515 O.2     1  UNL1       -0.2512
     31 N           0.5516    2.1908   -0.5059 N.am    1  UNL1       -0.2240
     32 C           0.2076    3.5420   -0.8200 C.ar    1  UNL1        0.1364
     33 C           0.4009    4.5510    0.1026 C.ar    1  UNL1        0.0432
     34 C           0.0684    5.8537   -0.2166 C.ar    1  UNL1        0.2531
     35 O           0.2231    6.8042    0.5795 O.2     1  UNL1       -0.2678
     36 N          -0.4491    6.1514   -1.4336 N.ar    1  UNL1       -0.3133
     37 C          -0.6339    5.1568   -2.3277 C.ar    1  UNL1        0.0981
     38 N          -0.3050    3.8687   -2.0131 N.ar    1  UNL1       -0.2220
     39 H          -3.5326   -1.6396    2.0670 H       1  UNL1        0.0278
     40 H          -4.3232   -3.2985    2.0330 H       1  UNL1        0.0278
     41 H          -3.0784   -2.8737    0.8605 H       1  UNL1        0.0278
     42 H          -5.6333   -3.9904    0.2043 H       1  UNL1        0.0621
     43 H          -7.4614   -3.4170   -1.3777 H       1  UNL1        0.0633
     44 H          -7.8040   -1.0927   -1.9972 H       1  UNL1        0.0829
     45 H          -4.9430    1.3677    0.4491 H       1  UNL1        0.0491
     46 H          -4.1904    0.3701    1.6867 H       1  UNL1        0.0491
     47 H          -2.4793   -1.2326   -0.7692 H       1  UNL1        0.0427
     48 H          -1.7490   -0.7181    0.7819 H       1  UNL1        0.0427
     49 H          -0.2142   -0.6408   -1.0447 H       1  UNL1        0.0303
     50 H          -1.1674    0.7264   -1.8249 H       1  UNL1        0.0303
     51 H          -1.5573    1.0309    1.8308 H       1  UNL1        0.0303
     52 H          -0.9988    2.6707    1.4998 H       1  UNL1        0.0303
     53 H          -3.2930    2.5824    0.7192 H       1  UNL1        0.0427
     54 H          -2.3256    2.3936   -0.8068 H       1  UNL1        0.0427
     55 H           2.1585   -1.6937    1.6850 H       1  UNL1        0.0637
     56 H           4.1186   -3.2156    1.8133 H       1  UNL1        0.0639
     57 H           6.6235   -3.7994   -1.5450 H       1  UNL1        0.0831
     58 H           8.6903   -5.1093   -0.4326 H       1  UNL1        0.0648
     59 H           8.7381   -4.4048    2.1248 H       1  UNL1        0.0848
     60 H           6.1850   -0.9224   -1.0792 H       1  UNL1        0.0639
     61 H           4.3236    0.5825   -1.2439 H       1  UNL1        0.0637
     62 H           0.8104    4.3735    1.0884 H       1  UNL1        0.0706
     63 H          -0.7096    7.1229   -1.7053 H       1  UNL1        0.1698
     64 H          -1.0447    5.3497   -3.3146 H       1  UNL1        0.1028
@<TRIPOS>BOND
     1     1     2    1
     2     2     3   ar
     3     3     4   ar
     4     4     5   ar
     5     5     6   ar
     6     6     7   ar
     7     7     8    1
     8     8     9    1
     9     9    10    1
    10    10    11    1
    11    11    12    1
    12    12    13    1
    13    13    14    1
    14    12    15    1
    15    15    16    2
    16    15    17   am
    17    17    18    1
    18    18    19   ar
    19    19    20   ar
    20    20    21   ar
    21    21    22    1
    22    22    23   ar
    23    23    24   ar
    24    24    25   ar
    25    25    26   ar
    26    21    27   ar
    27    27    28   ar
    28    17    29   am
    29    29    30    2
    30    29    31   am
    31    31    32    1
    32    32    33   ar
    33    33    34   ar
    34    34    35    2
    35    34    36   ar
    36    36    37   ar
    37    37    38   ar
    38     7     2   ar
    39    14     9    1
    40    28    18   ar
    41    38    32   ar
    42    31    12    1
    43    26    22   ar
    44     1    39    1
    45     1    40    1
    46     1    41    1
    47     3    42    1
    48     4    43    1
    49     5    44    1
    50     8    45    1
    51     8    46    1
    52    10    47    1
    53    10    48    1
    54    11    49    1
    55    11    50    1
    56    13    51    1
    57    13    52    1
    58    14    53    1
    59    14    54    1
    60    19    55    1
    61    20    56    1
    62    23    57    1
    63    24    58    1
    64    25    59    1
    65    27    60    1
    66    28    61    1
    67    33    62    1
    68    36    63    1
    69    37    64    1
