
     RDKit          3D

 64 69  0  0  0  0  0  0  0  0999 V2000
   -3.9272   -2.4312    1.4189 C   0  0  0  0  0  0  0  0  0  0  0  0
   -4.9541   -1.9945    0.4686 C   0  0  0  0  0  0  0  0  0  0  0  0
   -5.7960   -2.9620   -0.0796 C   0  0  0  0  0  0  0  0  0  0  0  0
   -6.8183   -2.6361   -0.9646 C   0  0  0  0  0  0  0  0  0  0  0  0
   -7.0026   -1.3151   -1.3084 C   0  0  0  0  0  0  0  0  0  0  0  0
   -6.1943   -0.4017   -0.7802 N   0  0  0  0  0  0  0  0  0  0  0  0
   -5.1795   -0.6914    0.0924 C   0  0  0  0  0  0  0  0  0  0  0  0
   -4.3311    0.4202    0.5741 C   0  0  0  0  0  0  0  0  0  0  0  0
   -3.1259    0.6353   -0.1311 N   0  0  0  0  0  0  0  0  0  0  0  0
   -2.1422   -0.3703   -0.1949 C   0  0  0  0  0  0  0  0  0  0  0  0
   -0.8806    0.2164   -0.8869 C   0  0  0  0  0  0  0  0  0  0  0  0
   -0.2399    1.1543    0.1215 C   0  0  0  0  0  0  0  0  0  0  0  0
   -1.3089    1.7228    0.9957 C   0  0  0  0  0  0  0  0  0  0  0  0
   -2.5672    1.9276    0.1874 C   0  0  0  0  0  0  0  0  0  0  0  0
    0.8005    0.4283    0.9137 C   0  0  0  0  0  0  0  0  0  0  0  0
    0.5879   -0.0816    2.0403 O   0  0  0  0  0  0  0  0  0  0  0  0
    1.9822    0.4684    0.1230 N   0  0  0  0  0  0  0  0  0  0  0  0
    3.0892   -0.4480    0.2198 C   0  0  0  0  0  0  0  0  0  0  0  0
    3.0236   -1.5139    1.0826 C   0  0  0  0  0  0  0  0  0  0  0  0
    4.1269   -2.3606    1.1456 C   0  0  0  0  0  0  0  0  0  0  0  0
    5.2512   -2.1520    0.3778 C   0  0  0  0  0  0  0  0  0  0  0  0
    6.3704   -3.0199    0.4522 N   0  0  0  0  0  0  0  0  0  0  0  0
    6.9516   -3.7580   -0.5092 C   0  0  0  0  0  0  0  0  0  0  0  0
    8.0205   -4.4396    0.0517 C   0  0  0  0  0  0  0  0  0  0  0  0
    8.0487   -4.0763    1.3830 C   0  0  0  0  0  0  0  0  0  0  0  0
    7.0340   -3.2129    1.5949 N   0  0  0  0  0  0  0  0  0  0  0  0
    5.3142   -1.0806   -0.4882 C   0  0  0  0  0  0  0  0  0  0  0  0
    4.2115   -0.2342   -0.5511 C   0  0  0  0  0  0  0  0  0  0  0  0
    1.8314    1.5685   -0.7654 C   0  0  0  0  0  0  0  0  0  0  0  0
    2.6175    1.9975   -1.6515 O   0  0  0  0  0  0  0  0  0  0  0  0
    0.5516    2.1908   -0.5059 N   0  0  0  0  0  0  0  0  0  0  0  0
    0.2076    3.5420   -0.8200 C   0  0  0  0  0  0  0  0  0  0  0  0
    0.4009    4.5510    0.1026 C   0  0  0  0  0  0  0  0  0  0  0  0
    0.0684    5.8537   -0.2166 C   0  0  0  0  0  0  0  0  0  0  0  0
    0.2231    6.8042    0.5795 O   0  0  0  0  0  0  0  0  0  0  0  0
   -0.4491    6.1514   -1.4336 N   0  0  0  0  0  0  0  0  0  0  0  0
   -0.6339    5.1568   -2.3277 C   0  0  0  0  0  0  0  0  0  0  0  0
   -0.3050    3.8687   -2.0131 N   0  0  0  0  0  0  0  0  0  0  0  0
   -3.5326   -1.6396    2.0670 H   0  0  0  0  0  0  0  0  0  0  0  0
   -4.3232   -3.2985    2.0330 H   0  0  0  0  0  0  0  0  0  0  0  0
   -3.0784   -2.8737    0.8605 H   0  0  0  0  0  0  0  0  0  0  0  0
   -5.6333   -3.9904    0.2043 H   0  0  0  0  0  0  0  0  0  0  0  0
   -7.4614   -3.4170   -1.3777 H   0  0  0  0  0  0  0  0  0  0  0  0
   -7.8040   -1.0927   -1.9972 H   0  0  0  0  0  0  0  0  0  0  0  0
   -4.9430    1.3677    0.4491 H   0  0  0  0  0  0  0  0  0  0  0  0
   -4.1904    0.3701    1.6867 H   0  0  0  0  0  0  0  0  0  0  0  0
   -2.4793   -1.2326   -0.7692 H   0  0  0  0  0  0  0  0  0  0  0  0
   -1.7490   -0.7181    0.7819 H   0  0  0  0  0  0  0  0  0  0  0  0
   -0.2142   -0.6408   -1.0447 H   0  0  0  0  0  0  0  0  0  0  0  0
   -1.1674    0.7264   -1.8249 H   0  0  0  0  0  0  0  0  0  0  0  0
   -1.5573    1.0309    1.8308 H   0  0  0  0  0  0  0  0  0  0  0  0
   -0.9988    2.6707    1.4998 H   0  0  0  0  0  0  0  0  0  0  0  0
   -3.2930    2.5824    0.7192 H   0  0  0  0  0  0  0  0  0  0  0  0
   -2.3256    2.3936   -0.8068 H   0  0  0  0  0  0  0  0  0  0  0  0
    2.1585   -1.6937    1.6850 H   0  0  0  0  0  0  0  0  0  0  0  0
    4.1186   -3.2156    1.8133 H   0  0  0  0  0  0  0  0  0  0  0  0
    6.6235   -3.7994   -1.5450 H   0  0  0  0  0  0  0  0  0  0  0  0
    8.6903   -5.1093   -0.4326 H   0  0  0  0  0  0  0  0  0  0  0  0
    8.7381   -4.4048    2.1248 H   0  0  0  0  0  0  0  0  0  0  0  0
    6.1850   -0.9224   -1.0792 H   0  0  0  0  0  0  0  0  0  0  0  0
    4.3236    0.5825   -1.2439 H   0  0  0  0  0  0  0  0  0  0  0  0
    0.8104    4.3735    1.0884 H   0  0  0  0  0  0  0  0  0  0  0  0
   -0.7096    7.1229   -1.7053 H   0  0  0  0  0  0  0  0  0  0  0  0
   -1.0447    5.3497   -3.3146 H   0  0  0  0  0  0  0  0  0  0  0  0
  1  2  1  0
  2  3  2  0
  3  4  1  0
  4  5  2  0
  5  6  1  0
  6  7  2  0
  7  8  1  0
  8  9  1  0
  9 10  1  0
 10 11  1  0
 11 12  1  0
 12 13  1  0
 13 14  1  0
 12 15  1  0
 15 16  2  0
 15 17  1  0
 17 18  1  0
 18 19  2  0
 19 20  1  0
 20 21  2  0
 21 22  1  0
 22 23  1  0
 23 24  2  0
 24 25  1  0
 25 26  2  0
 21 27  1  0
 27 28  2  0
 17 29  1  0
 29 30  2  0
 29 31  1  0
 31 32  1  0
 32 33  2  0
 33 34  1  0
 34 35  2  0
 34 36  1  0
 36 37  1  0
 37 38  2  0
  7  2  1  0
 14  9  1  0
 28 18  1  0
 38 32  1  0
 31 12  1  0
 26 22  1  0
  1 39  1  0
  1 40  1  0
  1 41  1  0
  3 42  1  0
  4 43  1  0
  5 44  1  0
  8 45  1  0
  8 46  1  0
 10 47  1  0
 10 48  1  0
 11 49  1  0
 11 50  1  0
 13 51  1  0
 13 52  1  0
 14 53  1  0
 14 54  1  0
 19 55  1  0
 20 56  1  0
 23 57  1  0
 24 58  1  0
 25 59  1  0
 27 60  1  0
 28 61  1  0
 33 62  1  0
 36 63  1  0
 37 64  1  0
M  END
$$$$
