
     RDKit          3D

 43 46  0  0  0  0  0  0  0  0999 V2000
    3.1708   -0.5497    2.4903 C   0  0  0  0  0  0  0  0  0  0  0  0
    3.0020    0.1835    1.2310 N   0  0  0  0  0  0  0  0  0  0  0  0
    1.9345    0.9256    0.8923 C   0  0  0  0  0  0  0  0  0  0  0  0
    0.7474    1.1118    1.7670 C   0  0  0  0  0  0  0  0  0  0  0  0
   -0.2827    0.0685    1.5217 C   0  0  0  0  0  0  0  0  0  0  0  0
   -1.2394    0.2768    0.5977 N   0  0  0  0  0  0  0  0  0  0  0  0
   -2.2004   -0.5829    0.3016 C   0  0  0  0  0  0  0  0  0  0  0  0
   -3.1808   -0.2987   -0.6870 N   0  0  0  0  0  0  0  0  0  0  0  0
   -3.1516    0.9589   -1.4060 C   0  0  0  0  0  0  0  0  0  0  0  0
   -4.4367    1.6904   -1.0835 C   0  0  0  0  0  0  0  0  0  0  0  0
   -5.4876    0.8147   -0.9866 O   0  0  0  0  0  0  0  0  0  0  0  0
   -5.3403   -0.3700   -1.6621 C   0  0  0  0  0  0  0  0  0  0  0  0
   -4.2379   -1.2269   -1.0233 C   0  0  0  0  0  0  0  0  0  0  0  0
   -2.2324   -1.7834    0.9846 C   0  0  0  0  0  0  0  0  0  0  0  0
   -1.2627   -2.0370    1.9463 C   0  0  0  0  0  0  0  0  0  0  0  0
   -1.2316   -3.1121    2.6080 O   0  0  0  0  0  0  0  0  0  0  0  0
   -0.3199   -1.1022    2.1827 N   0  0  0  0  0  0  0  0  0  0  0  0
    2.1445    1.4407   -0.3354 N   0  0  0  0  0  0  0  0  0  0  0  0
    3.3503    1.0364   -0.8024 C   0  0  0  0  0  0  0  0  0  0  0  0
    4.0722    1.2409   -1.9563 C   0  0  0  0  0  0  0  0  0  0  0  0
    5.3134    0.6768   -2.1476 C   0  0  0  0  0  0  0  0  0  0  0  0
    5.8241   -0.1101   -1.1400 C   0  0  0  0  0  0  0  0  0  0  0  0
    5.1218   -0.3286    0.0209 C   0  0  0  0  0  0  0  0  0  0  0  0
    3.8770    0.2432    0.2008 C   0  0  0  0  0  0  0  0  0  0  0  0
    4.2526   -0.5940    2.7732 H   0  0  0  0  0  0  0  0  0  0  0  0
    2.6749    0.0135    3.3287 H   0  0  0  0  0  0  0  0  0  0  0  0
    2.7988   -1.5813    2.4206 H   0  0  0  0  0  0  0  0  0  0  0  0
    0.2936    2.0958    1.4647 H   0  0  0  0  0  0  0  0  0  0  0  0
    1.0151    1.2110    2.8336 H   0  0  0  0  0  0  0  0  0  0  0  0
   -2.3212    1.6103   -1.0624 H   0  0  0  0  0  0  0  0  0  0  0  0
   -3.0246    0.8267   -2.4989 H   0  0  0  0  0  0  0  0  0  0  0  0
   -4.2753    2.2078   -0.1093 H   0  0  0  0  0  0  0  0  0  0  0  0
   -4.6209    2.4317   -1.9044 H   0  0  0  0  0  0  0  0  0  0  0  0
   -5.0899   -0.1692   -2.7443 H   0  0  0  0  0  0  0  0  0  0  0  0
   -6.3003   -0.9218   -1.5886 H   0  0  0  0  0  0  0  0  0  0  0  0
   -3.9005   -1.9603   -1.7782 H   0  0  0  0  0  0  0  0  0  0  0  0
   -4.6806   -1.7300   -0.1607 H   0  0  0  0  0  0  0  0  0  0  0  0
   -2.9994   -2.5334    0.7861 H   0  0  0  0  0  0  0  0  0  0  0  0
    0.3980   -1.2957    2.8981 H   0  0  0  0  0  0  0  0  0  0  0  0
    3.6605    1.8638   -2.7461 H   0  0  0  0  0  0  0  0  0  0  0  0
    5.8766    0.8514   -3.0773 H   0  0  0  0  0  0  0  0  0  0  0  0
    6.7967   -0.5526   -1.2889 H   0  0  0  0  0  0  0  0  0  0  0  0
    5.4920   -0.9405    0.8324 H   0  0  0  0  0  0  0  0  0  0  0  0
  1  2  1  0
  2  3  1  0
  3  4  1  0
  4  5  1  0
  5  6  2  0
  6  7  1  0
  7  8  1  0
  8  9  1  0
  9 10  1  0
 10 11  1  0
 11 12  1  0
 12 13  1  0
  7 14  2  0
 14 15  1  0
 15 16  2  0
 15 17  1  0
  3 18  2  0
 18 19  1  0
 19 20  2  0
 20 21  1  0
 21 22  2  0
 22 23  1  0
 23 24  2  0
 24  2  1  0
 17  5  1  0
 24 19  1  0
 13  8  1  0
  1 25  1  0
  1 26  1  0
  1 27  1  0
  4 28  1  0
  4 29  1  0
  9 30  1  0
  9 31  1  0
 10 32  1  0
 10 33  1  0
 12 34  1  0
 12 35  1  0
 13 36  1  0
 13 37  1  0
 14 38  1  0
 17 39  1  0
 20 40  1  0
 21 41  1  0
 22 42  1  0
 23 43  1  0
M  END
$$$$
