@<TRIPOS>MOLECULE
*****
 43 46 0 0 0
SMALL
GASTEIGER

@<TRIPOS>ATOM
      1 C           3.1708   -0.5497    2.4903 C.3     1  UNL1        0.0135
      2 N           3.0020    0.1835    1.2310 N.ar    1  UNL1       -0.3303
      3 C           1.9345    0.9256    0.8923 C.ar    1  UNL1        0.1178
      4 C           0.7474    1.1118    1.7670 C.3     1  UNL1        0.0638
      5 C          -0.2827    0.0685    1.5217 C.ar    1  UNL1        0.1191
      6 N          -1.2394    0.2768    0.5977 N.ar    1  UNL1       -0.2186
      7 C          -2.2004   -0.5829    0.3016 C.ar    1  UNL1        0.1285
      8 N          -3.1808   -0.2987   -0.6870 N.pl3   1  UNL1       -0.3106
      9 C          -3.1516    0.9589   -1.4060 C.3     1  UNL1        0.0370
     10 C          -4.4367    1.6904   -1.0835 C.3     1  UNL1        0.0634
     11 O          -5.4876    0.8147   -0.9866 O.3     1  UNL1       -0.3767
     12 C          -5.3403   -0.3700   -1.6621 C.3     1  UNL1        0.0634
     13 C          -4.2379   -1.2269   -1.0233 C.3     1  UNL1        0.0370
     14 C          -2.2324   -1.7834    0.9846 C.ar    1  UNL1        0.0427
     15 C          -1.2627   -2.0370    1.9463 C.ar    1  UNL1        0.2533
     16 O          -1.2316   -3.1121    2.6080 O.2     1  UNL1       -0.2677
     17 N          -0.3199   -1.1022    2.1827 N.ar    1  UNL1       -0.3104
     18 N           2.1445    1.4407   -0.3354 N.ar    1  UNL1       -0.2319
     19 C           3.3503    1.0364   -0.8024 C.ar    1  UNL1        0.0893
     20 C           4.0722    1.2409   -1.9563 C.ar    1  UNL1       -0.0342
     21 C           5.3134    0.6768   -2.1476 C.ar    1  UNL1       -0.0596
     22 C           5.8241   -0.1101   -1.1400 C.ar    1  UNL1       -0.0597
     23 C           5.1218   -0.3286    0.0209 C.ar    1  UNL1       -0.0361
     24 C           3.8770    0.2432    0.2008 C.ar    1  UNL1        0.0686
     25 H           4.2526   -0.5940    2.7732 H       1  UNL1        0.0456
     26 H           2.6749    0.0135    3.3287 H       1  UNL1        0.0456
     27 H           2.7988   -1.5813    2.4206 H       1  UNL1        0.0456
     28 H           0.2936    2.0958    1.4647 H       1  UNL1        0.0422
     29 H           1.0151    1.2110    2.8336 H       1  UNL1        0.0422
     30 H          -2.3212    1.6103   -1.0624 H       1  UNL1        0.0487
     31 H          -3.0246    0.8267   -2.4989 H       1  UNL1        0.0487
     32 H          -4.2753    2.2078   -0.1093 H       1  UNL1        0.0575
     33 H          -4.6209    2.4317   -1.9044 H       1  UNL1        0.0575
     34 H          -5.0899   -0.1692   -2.7443 H       1  UNL1        0.0575
     35 H          -6.3003   -0.9218   -1.5886 H       1  UNL1        0.0575
     36 H          -3.9005   -1.9603   -1.7782 H       1  UNL1        0.0487
     37 H          -4.6806   -1.7300   -0.1607 H       1  UNL1        0.0487
     38 H          -2.9994   -2.5334    0.7861 H       1  UNL1        0.0706
     39 H           0.3980   -1.2957    2.8981 H       1  UNL1        0.1700
     40 H           3.6605    1.8638   -2.7461 H       1  UNL1        0.0639
     41 H           5.8766    0.8514   -3.0773 H       1  UNL1        0.0618
     42 H           6.7967   -0.5526   -1.2889 H       1  UNL1        0.0618
     43 H           5.4920   -0.9405    0.8324 H       1  UNL1        0.0639
@<TRIPOS>BOND
     1     1     2    1
     2     2     3   ar
     3     3     4    1
     4     4     5    1
     5     5     6   ar
     6     6     7   ar
     7     7     8    1
     8     8     9    1
     9     9    10    1
    10    10    11    1
    11    11    12    1
    12    12    13    1
    13     7    14   ar
    14    14    15   ar
    15    15    16    2
    16    15    17   ar
    17     3    18   ar
    18    18    19   ar
    19    19    20   ar
    20    20    21   ar
    21    21    22   ar
    22    22    23   ar
    23    23    24   ar
    24    24     2   ar
    25    17     5   ar
    26    24    19   ar
    27    13     8    1
    28     1    25    1
    29     1    26    1
    30     1    27    1
    31     4    28    1
    32     4    29    1
    33     9    30    1
    34     9    31    1
    35    10    32    1
    36    10    33    1
    37    12    34    1
    38    12    35    1
    39    13    36    1
    40    13    37    1
    41    14    38    1
    42    17    39    1
    43    20    40    1
    44    21    41    1
    45    22    42    1
    46    23    43    1
