@<TRIPOS>MOLECULE
*****
 40 43 0 0 0
SMALL
GASTEIGER

@<TRIPOS>ATOM
      1 C          -3.7230   -2.3721   -0.6281 C.3     1  UNL1        0.0573
      2 N          -2.7986   -1.3355   -0.1592 N.am    1  UNL1       -0.1614
      3 C          -2.2509   -0.3042   -0.9689 C.2     1  UNL1        0.3303
      4 O          -2.4927   -0.1506   -2.2040 O.2     1  UNL1       -0.2520
      5 C          -1.3842    0.4934   -0.0706 C.3     1  UNL1        0.2651
      6 C          -1.9354    1.8945    0.0932 C.ar    1  UNL1        0.0176
      7 C          -2.6241    2.5585   -0.8295 C.ar    1  UNL1       -0.0470
      8 C          -3.0768    3.8134   -0.6046 C.ar    1  UNL1       -0.0239
      9 S          -2.4693    4.1217    1.1174 S.2     1  UNL1       -0.1046
     10 C          -1.7080    2.5601    1.2968 C.ar    1  UNL1       -0.0166
     11 C           0.0168    0.5317   -0.5238 C.ar    1  UNL1        0.0113
     12 C           0.3072    1.1046   -1.7375 C.ar    1  UNL1       -0.0540
     13 C           1.6294    1.1174   -2.1212 C.ar    1  UNL1       -0.0607
     14 C           2.6264    0.5835   -1.3342 C.ar    1  UNL1       -0.0525
     15 C           2.3452    0.0031   -0.1084 C.ar    1  UNL1        0.0022
     16 C           3.4184   -0.5627    0.7191 C.ar    1  UNL1        0.0890
     17 C           3.2140   -1.1519    1.9392 C.ar    1  UNL1        0.0535
     18 N           4.2526   -1.6616    2.6643 N.ar    1  UNL1       -0.2596
     19 C           5.5118   -1.5980    2.1961 C.ar    1  UNL1        0.0457
     20 C           5.7029   -1.0023    0.9667 C.ar    1  UNL1        0.0464
     21 N           4.6758   -0.5017    0.2570 N.ar    1  UNL1       -0.2520
     22 C           1.0224   -0.0101    0.2765 C.ar    1  UNL1       -0.0448
     23 N          -1.5112   -0.1612    1.1938 N.2     1  UNL1       -0.0891
     24 C          -2.2954   -1.1795    1.1574 C.2     1  UNL1        0.3731
     25 N          -2.6376   -2.0500    2.2491 N.pl3   1  UNL1       -0.2512
     26 H          -4.2121   -1.9955   -1.5418 H       1  UNL1        0.0602
     27 H          -4.4370   -2.6270    0.1739 H       1  UNL1        0.0602
     28 H          -3.1714   -3.2952   -0.9133 H       1  UNL1        0.0602
     29 H          -2.8597    2.1041   -1.8391 H       1  UNL1        0.0627
     30 H          -3.6391    4.5487   -1.1612 H       1  UNL1        0.0693
     31 H          -1.1589    2.1815    2.1848 H       1  UNL1        0.0697
     32 H          -0.4234    1.5402   -2.4022 H       1  UNL1        0.0622
     33 H           1.9017    1.5626   -3.0763 H       1  UNL1        0.0618
     34 H           3.6622    0.6060   -1.6596 H       1  UNL1        0.0624
     35 H           2.2348   -1.2229    2.3459 H       1  UNL1        0.0851
     36 H           6.3173   -2.0115    2.7938 H       1  UNL1        0.0845
     37 H           6.7189   -0.9574    0.6019 H       1  UNL1        0.0845
     38 H           0.7463   -0.4501    1.2226 H       1  UNL1        0.0628
     39 H          -1.9542   -2.1779    3.0119 H       1  UNL1        0.2412
     40 H          -3.5410   -2.5462    2.2900 H       1  UNL1        0.2412
@<TRIPOS>BOND
     1     1     2    1
     2     2     3   am
     3     3     4    2
     4     3     5    1
     5     5     6    1
     6     6     7   ar
     7     7     8   ar
     8     8     9   ar
     9     9    10   ar
    10     5    11    1
    11    11    12   ar
    12    12    13   ar
    13    13    14   ar
    14    14    15   ar
    15    15    16    1
    16    16    17   ar
    17    17    18   ar
    18    18    19   ar
    19    19    20   ar
    20    20    21   ar
    21    15    22   ar
    22     5    23    1
    23    23    24    2
    24    24    25    1
    25    24     2    1
    26    10     6   ar
    27    22    11   ar
    28    21    16   ar
    29     1    26    1
    30     1    27    1
    31     1    28    1
    32     7    29    1
    33     8    30    1
    34    10    31    1
    35    12    32    1
    36    13    33    1
    37    14    34    1
    38    17    35    1
    39    19    36    1
    40    20    37    1
    41    22    38    1
    42    25    39    1
    43    25    40    1
