
     RDKit          3D

 54 57  0  0  0  0  0  0  0  0999 V2000
    9.4335    3.2373    1.6680 C   0  0  0  0  0  0  0  0  0  0  0  0
    8.8062    1.8575    1.2654 C   0  0  0  0  0  0  0  0  0  0  0  0
    8.2837    0.6543    0.9078 C   0  0  0  0  0  0  0  0  0  0  0  0
    7.6370   -0.7825    0.4995 C   0  0  0  0  0  0  0  0  0  0  0  0
    6.3620   -0.6759    0.7098 O   0  0  0  0  0  0  0  0  0  0  0  0
    5.1316   -0.6919    0.8711 C   0  0  0  0  0  0  0  0  0  0  0  0
    4.3898    0.4382    1.3413 C   0  0  0  0  0  0  0  0  0  0  0  0
    3.0277    0.3574    1.4446 N   0  0  0  0  0  0  0  0  0  0  0  0
    2.2767   -0.6690    1.1457 C   0  0  0  0  0  0  0  0  0  0  0  0
    0.8697   -0.8139    0.8510 C   0  0  0  0  0  0  0  0  0  0  0  0
    0.2262   -1.2537    2.0056 O   0  0  0  0  0  0  0  0  0  0  0  0
    0.1450   -0.6823   -0.2476 N   0  0  0  0  0  0  0  0  0  0  0  0
   -1.2691   -1.0860   -0.4258 C   0  0  0  0  0  0  0  0  0  0  0  0
   -1.4449   -2.2568   -1.1324 C   0  0  0  0  0  0  0  0  0  0  0  0
   -2.7792   -2.5810   -1.5173 C   0  0  0  0  0  0  0  0  0  0  0  0
   -3.7804   -1.7254   -1.1984 C   0  0  0  0  0  0  0  0  0  0  0  0
   -5.1134   -2.0366   -1.5092 F   0  0  0  0  0  0  0  0  0  0  0  0
   -3.6159   -0.5401   -0.5048 C   0  0  0  0  0  0  0  0  0  0  0  0
   -4.6396    0.4927   -0.6615 C   0  0  1  0  0  0  0  0  0  0  0  0
   -4.4668    0.9963   -2.1789 C   0  0  0  0  0  0  0  0  0  0  0  0
   -6.0190    0.0207   -0.6180 N   0  0  0  0  0  0  0  0  0  0  0  0
   -7.0062    0.6733   -0.2988 C   0  0  0  0  0  0  0  0  0  0  0  0
   -8.3195   -0.0641   -0.4529 N   0  0  0  0  0  0  0  0  0  0  0  0
   -6.9190    1.9498    0.1921 O   0  0  0  0  0  0  0  0  0  0  0  0
   -5.6564    2.4712    0.5607 C   0  0  2  0  0  0  0  0  0  0  0  0
   -4.6237    3.0225   -0.3531 C   0  0  0  0  0  0  0  0  0  0  0  0
   -4.4541    1.6320    0.2750 C   0  0  2  0  0  0  0  0  0  0  0  0
   -2.3071   -0.2387   -0.0973 C   0  0  0  0  0  0  0  0  0  0  0  0
    2.9954   -1.8243    0.6837 C   0  0  0  0  0  0  0  0  0  0  0  0
    2.1173   -3.0010    0.2860 C   0  0  0  0  0  0  0  0  0  0  0  0
    4.3226   -1.8267    0.5601 C   0  0  0  0  0  0  0  0  0  0  0  0
   10.1771    3.3148    0.8237 H   0  0  0  0  0  0  0  0  0  0  0  0
    9.8860    2.9365    2.6092 H   0  0  0  0  0  0  0  0  0  0  0  0
    8.5500    3.8737    1.5825 H   0  0  0  0  0  0  0  0  0  0  0  0
    8.0896   -0.8006   -0.5966 H   0  0  0  0  0  0  0  0  0  0  0  0
    8.2932   -1.5283    0.9174 H   0  0  0  0  0  0  0  0  0  0  0  0
    4.9342    1.3179    1.4989 H   0  0  0  0  0  0  0  0  0  0  0  0
    0.5794   -0.1163   -1.0984 H   0  0  0  0  0  0  0  0  0  0  0  0
   -0.7100   -2.9182   -1.6151 H   0  0  0  0  0  0  0  0  0  0  0  0
   -2.9001   -3.5514   -1.9503 H   0  0  0  0  0  0  0  0  0  0  0  0
   -5.4191    1.4112   -2.4804 H   0  0  0  0  0  0  0  0  0  0  0  0
   -3.6143    1.6715   -2.2526 H   0  0  0  0  0  0  0  0  0  0  0  0
   -4.2173    0.0339   -2.7258 H   0  0  0  0  0  0  0  0  0  0  0  0
   -9.0444    0.6163    0.0805 H   0  0  0  0  0  0  0  0  0  0  0  0
   -8.4732   -0.7910   -0.9667 H   0  0  0  0  0  0  0  0  0  0  0  0
   -5.6514    2.9658    1.5996 H   0  0  0  0  0  0  0  0  0  0  0  0
   -4.8928    3.0090   -1.4065 H   0  0  0  0  0  0  0  0  0  0  0  0
   -3.9614    3.8424    0.0163 H   0  0  0  0  0  0  0  0  0  0  0  0
   -3.7192    1.5712    1.1322 H   0  0  0  0  0  0  0  0  0  0  0  0
   -2.0908    0.5982    0.4887 H   0  0  0  0  0  0  0  0  0  0  0  0
    2.7330   -3.8700   -0.0578 H   0  0  0  0  0  0  0  0  0  0  0  0
    1.4150   -3.2924    1.0774 H   0  0  0  0  0  0  0  0  0  0  0  0
    1.5604   -2.6329   -0.6299 H   0  0  0  0  0  0  0  0  0  0  0  0
    4.8659   -2.7146    0.2246 H   0  0  0  0  0  0  0  0  0  0  0  0
  1  2  1  0
  2  3  3  0
  3  4  1  0
  4  5  1  0
  5  6  1  0
  6  7  2  0
  7  8  1  0
  8  9  2  0
  9 10  1  0
 10 11  2  0
 10 12  1  0
 12 13  1  0
 13 14  2  0
 14 15  1  0
 15 16  2  0
 16 17  1  0
 16 18  1  0
 18 19  1  0
 19 20  1  6
 19 21  1  0
 21 22  2  0
 22 23  1  0
 22 24  1  0
 24 25  1  0
 25 26  1  0
 26 27  1  0
 18 28  2  0
  9 29  1  0
 29 30  1  0
 29 31  2  0
 31  6  1  0
 28 13  1  0
 27 19  1  0
 27 25  1  0
  1 32  1  0
  1 33  1  0
  1 34  1  0
  4 35  1  0
  4 36  1  0
  7 37  1  0
 12 38  1  0
 14 39  1  0
 15 40  1  0
 20 41  1  0
 20 42  1  0
 20 43  1  0
 23 44  1  0
 23 45  1  0
 25 46  1  1
 26 47  1  0
 26 48  1  0
 27 49  1  1
 28 50  1  0
 30 51  1  0
 30 52  1  0
 30 53  1  0
 31 54  1  0
M  END
$$$$
