@<TRIPOS>MOLECULE
*****
 54 57 0 0 0
SMALL
GASTEIGER

@<TRIPOS>ATOM
      1 C           9.4335    3.2373    1.6680 C.3     1  UNL1       -0.0025
      2 C           8.8062    1.8575    1.2654 C.1     1  UNL1       -0.1022
      3 C           8.2837    0.6543    0.9078 C.1     1  UNL1       -0.0617
      4 C           7.6370   -0.7825    0.4995 C.3     1  UNL1        0.1499
      5 O           6.3620   -0.6759    0.7098 O.3     1  UNL1       -0.4780
      6 C           5.1316   -0.6919    0.8711 C.ar    1  UNL1        0.1402
      7 C           4.3898    0.4382    1.3413 C.ar    1  UNL1        0.0701
      8 N           3.0277    0.3574    1.4446 N.ar    1  UNL1       -0.2465
      9 C           2.2767   -0.6690    1.1457 C.ar    1  UNL1        0.1288
     10 C           0.8697   -0.8139    0.8510 C.2     1  UNL1        0.2668
     11 O           0.2262   -1.2537    2.0056 O.2     1  UNL1       -0.2682
     12 N           0.1450   -0.6823   -0.2476 N.am    1  UNL1       -0.2802
     13 C          -1.2691   -1.0860   -0.4258 C.ar    1  UNL1        0.0342
     14 C          -1.4449   -2.2568   -1.1324 C.ar    1  UNL1       -0.0377
     15 C          -2.7792   -2.5810   -1.5173 C.ar    1  UNL1       -0.0243
     16 C          -3.7804   -1.7254   -1.1984 C.ar    1  UNL1        0.1290
     17 F          -5.1134   -2.0366   -1.5092 F       1  UNL1       -0.2051
     18 C          -3.6159   -0.5401   -0.5048 C.ar    1  UNL1        0.0171
     19 C          -4.6396    0.4927   -0.6615 C.3     1  UNL1        0.0977
     20 C          -4.4668    0.9963   -2.1789 C.3     1  UNL1       -0.0350
     21 N          -6.0190    0.0207   -0.6180 N.2     1  UNL1       -0.2254
     22 C          -7.0062    0.6733   -0.2988 C.2     1  UNL1        0.2762
     23 N          -8.3195   -0.0641   -0.4529 N.pl3   1  UNL1       -0.3134
     24 O          -6.9190    1.9498    0.1921 O.2     1  UNL1       -0.4622
     25 C          -5.6564    2.4712    0.5607 C.3     1  UNL1        0.1089
     26 C          -4.6237    3.0225   -0.3531 C.3     1  UNL1       -0.0066
     27 C          -4.4541    1.6320    0.2750 C.3     1  UNL1        0.0288
     28 C          -2.3071   -0.2387   -0.0973 C.ar    1  UNL1       -0.0323
     29 C           2.9954   -1.8243    0.6837 C.ar    1  UNL1       -0.0165
     30 C           2.1173   -3.0010    0.2860 C.3     1  UNL1       -0.0374
     31 C           4.3226   -1.8267    0.5601 C.ar    1  UNL1       -0.0133
     32 H          10.1771    3.3148    0.8237 H       1  UNL1        0.0362
     33 H           9.8860    2.9365    2.6092 H       1  UNL1        0.0362
     34 H           8.5500    3.8737    1.5825 H       1  UNL1        0.0362
     35 H           8.0896   -0.8006   -0.5966 H       1  UNL1        0.0837
     36 H           8.2932   -1.5283    0.9174 H       1  UNL1        0.0837
     37 H           4.9342    1.3179    1.4989 H       1  UNL1        0.0867
     38 H           0.5794   -0.1163   -1.0984 H       1  UNL1        0.1552
     39 H          -0.7100   -2.9182   -1.6151 H       1  UNL1        0.0637
     40 H          -2.9001   -3.5514   -1.9503 H       1  UNL1        0.0647
     41 H          -5.4191    1.4112   -2.4804 H       1  UNL1        0.0256
     42 H          -3.6143    1.6715   -2.2526 H       1  UNL1        0.0256
     43 H          -4.2173    0.0339   -2.7258 H       1  UNL1        0.0256
     44 H          -9.0444    0.6163    0.0805 H       1  UNL1        0.1466
     45 H          -8.4732   -0.7910   -0.9667 H       1  UNL1        0.1466
     46 H          -5.6514    2.9658    1.5996 H       1  UNL1        0.0737
     47 H          -4.8928    3.0090   -1.4065 H       1  UNL1        0.0306
     48 H          -3.9614    3.8424    0.0163 H       1  UNL1        0.0306
     49 H          -3.7192    1.5712    1.1322 H       1  UNL1        0.0364
     50 H          -2.0908    0.5982    0.4887 H       1  UNL1        0.0640
     51 H           2.7330   -3.8700   -0.0578 H       1  UNL1        0.0278
     52 H           1.4150   -3.2924    1.0774 H       1  UNL1        0.0278
     53 H           1.5604   -2.6329   -0.6299 H       1  UNL1        0.0278
     54 H           4.8659   -2.7146    0.2246 H       1  UNL1        0.0658
@<TRIPOS>BOND
     1     1     2    1
     2     2     3    3
     3     3     4    1
     4     4     5    1
     5     5     6    1
     6     6     7   ar
     7     7     8   ar
     8     8     9   ar
     9     9    10    1
    10    10    11    2
    11    10    12   am
    12    12    13    1
    13    13    14   ar
    14    14    15   ar
    15    15    16   ar
    16    16    17    1
    17    16    18   ar
    18    18    19    1
    19    19    20    1
    20    19    21    1
    21    21    22    2
    22    22    23    1
    23    22    24    1
    24    24    25    1
    25    25    26    1
    26    26    27    1
    27    18    28   ar
    28     9    29   ar
    29    29    30    1
    30    29    31   ar
    31    31     6   ar
    32    28    13   ar
    33    27    19    1
    34    27    25    1
    35     1    32    1
    36     1    33    1
    37     1    34    1
    38     4    35    1
    39     4    36    1
    40     7    37    1
    41    12    38    1
    42    14    39    1
    43    15    40    1
    44    20    41    1
    45    20    42    1
    46    20    43    1
    47    23    44    1
    48    23    45    1
    49    25    46    1
    50    26    47    1
    51    26    48    1
    52    27    49    1
    53    28    50    1
    54    30    51    1
    55    30    52    1
    56    30    53    1
    57    31    54    1
