
     RDKit          3D

 37 40  0  0  0  0  0  0  0  0999 V2000
    1.9739   -1.6079    0.8975 O   0  0  0  0  0  0  0  0  0  0  0  0
    1.6713   -0.6674    0.1334 C   0  0  0  0  0  0  0  0  0  0  0  0
    2.6565    0.3069   -0.1653 N   0  0  0  0  0  0  0  0  0  0  0  0
    3.9847    0.3032    0.3348 C   0  0  0  0  0  0  0  0  0  0  0  0
    4.8501    1.3123   -0.0256 C   0  0  0  0  0  0  0  0  0  0  0  0
    6.1484    1.3273    0.4372 C   0  0  0  0  0  0  0  0  0  0  0  0
    6.6160    0.3223    1.2814 C   0  0  0  0  0  0  0  0  0  0  0  0
    7.8915    0.3301    1.7367 F   0  0  0  0  0  0  0  0  0  0  0  0
    5.7195   -0.6729    1.6226 C   0  0  0  0  0  0  0  0  0  0  0  0
    4.4729   -0.6570    1.1574 N   0  0  0  0  0  0  0  0  0  0  0  0
    0.3239   -0.5972   -0.4300 C   0  0  0  0  0  0  0  0  0  0  0  0
   -0.5867    0.3661   -0.1706 C   0  0  0  0  0  0  0  0  0  0  0  0
   -1.8378    0.3142   -0.8106 C   0  0  0  0  0  0  0  0  0  0  0  0
   -2.7657    1.2867   -0.5516 O   0  0  0  0  0  0  0  0  0  0  0  0
   -3.9709    1.0856    0.0590 C   0  0  0  0  0  0  0  0  0  0  0  0
   -4.3805   -0.1767    0.3921 C   0  0  0  0  0  0  0  0  0  0  0  0
   -5.5805   -0.3483    1.0009 N   0  0  0  0  0  0  0  0  0  0  0  0
   -6.3953    0.6467    1.2986 C   0  0  0  0  0  0  0  0  0  0  0  0
   -6.0208    1.9328    0.9811 C   0  0  0  0  0  0  0  0  0  0  0  0
   -6.8236    2.9893    1.2712 F   0  0  0  0  0  0  0  0  0  0  0  0
   -4.8040    2.1554    0.3583 C   0  0  0  0  0  0  0  0  0  0  0  0
   -4.3623    3.3740    0.0153 F   0  0  0  0  0  0  0  0  0  0  0  0
   -2.1323   -0.7033   -1.6865 C   0  0  0  0  0  0  0  0  0  0  0  0
   -1.2239   -1.6573   -1.9389 N   0  0  0  0  0  0  0  0  0  0  0  0
   -1.2821   -2.7273   -2.7398 N   0  0  0  0  0  0  0  0  0  0  0  0
   -0.1010   -3.3606   -2.6285 C   0  0  0  0  0  0  0  0  0  0  0  0
    0.6732   -2.6779   -1.7631 N   0  0  0  0  0  0  0  0  0  0  0  0
   -0.0229   -1.6148   -1.3305 C   0  0  0  0  0  0  0  0  0  0  0  0
    2.3348    1.0828   -0.8155 H   0  0  0  0  0  0  0  0  0  0  0  0
    4.5380    2.1313   -0.6842 H   0  0  0  0  0  0  0  0  0  0  0  0
    6.8733    2.1025    0.1848 H   0  0  0  0  0  0  0  0  0  0  0  0
    6.0075   -1.4680    2.2634 H   0  0  0  0  0  0  0  0  0  0  0  0
   -0.3454    1.1615    0.5157 H   0  0  0  0  0  0  0  0  0  0  0  0
   -3.7829   -1.0663    0.1828 H   0  0  0  0  0  0  0  0  0  0  0  0
   -7.3650    0.4671    1.7854 H   0  0  0  0  0  0  0  0  0  0  0  0
   -3.0998   -0.7209   -2.1593 H   0  0  0  0  0  0  0  0  0  0  0  0
    0.1480   -4.2743   -3.1668 H   0  0  0  0  0  0  0  0  0  0  0  0
  1  2  2  0
  2  3  1  0
  3  4  1  0
  4  5  2  0
  5  6  1  0
  6  7  2  0
  7  8  1  0
  7  9  1  0
  9 10  2  0
  2 11  1  0
 11 12  2  0
 12 13  1  0
 13 14  1  0
 14 15  1  0
 15 16  2  0
 16 17  1  0
 17 18  2  0
 18 19  1  0
 19 20  1  0
 19 21  2  0
 21 22  1  0
 13 23  2  0
 23 24  1  0
 24 25  1  0
 25 26  2  0
 26 27  1  0
 27 28  2  0
 10  4  1  0
 28 11  1  0
 21 15  1  0
 28 24  1  0
  3 29  1  0
  5 30  1  0
  6 31  1  0
  9 32  1  0
 12 33  1  0
 16 34  1  0
 18 35  1  0
 23 36  1  0
 26 37  1  0
M  END
$$$$
