@<TRIPOS>MOLECULE
*****
 37 40 0 0 0
SMALL
GASTEIGER

@<TRIPOS>ATOM
      1 O           1.9739   -1.6079    0.8975 O.2     1  UNL1       -0.2697
      2 C           1.6713   -0.6674    0.1334 C.2     1  UNL1        0.2530
      3 N           2.6565    0.3069   -0.1653 N.am    1  UNL1       -0.2663
      4 C           3.9847    0.3032    0.3348 C.ar    1  UNL1        0.1253
      5 C           4.8501    1.3123   -0.0256 C.ar    1  UNL1       -0.0188
      6 C           6.1484    1.3273    0.4372 C.ar    1  UNL1       -0.0217
      7 C           6.6160    0.3223    1.2814 C.ar    1  UNL1        0.1415
      8 F           7.8915    0.3301    1.7367 F       1  UNL1       -0.2039
      9 C           5.7195   -0.6729    1.6226 C.ar    1  UNL1        0.0649
     10 N           4.4729   -0.6570    1.1574 N.ar    1  UNL1       -0.2373
     11 C           0.3239   -0.5972   -0.4300 C.ar    1  UNL1        0.0847
     12 C          -0.5867    0.3661   -0.1706 C.ar    1  UNL1       -0.0021
     13 C          -1.8378    0.3142   -0.8106 C.ar    1  UNL1        0.1476
     14 O          -2.7657    1.2867   -0.5516 O.3     1  UNL1       -0.4500
     15 C          -3.9709    1.0856    0.0590 C.ar    1  UNL1        0.1843
     16 C          -4.3805   -0.1767    0.3921 C.ar    1  UNL1        0.0729
     17 N          -5.5805   -0.3483    1.0009 N.ar    1  UNL1       -0.2566
     18 C          -6.3953    0.6467    1.2986 C.ar    1  UNL1        0.0658
     19 C          -6.0208    1.9328    0.9811 C.ar    1  UNL1        0.1800
     20 F          -6.8236    2.9893    1.2712 F       1  UNL1       -0.2008
     21 C          -4.8040    2.1554    0.3583 C.ar    1  UNL1        0.2033
     22 F          -4.3623    3.3740    0.0153 F       1  UNL1       -0.1985
     23 C          -2.1323   -0.7033   -1.6865 C.ar    1  UNL1        0.0737
     24 N          -1.2239   -1.6573   -1.9389 N.ar    1  UNL1       -0.2161
     25 N          -1.2821   -2.7273   -2.7398 N.ar    1  UNL1       -0.1534
     26 C          -0.1010   -3.3606   -2.6285 C.ar    1  UNL1        0.1390
     27 N           0.6732   -2.6779   -1.7631 N.ar    1  UNL1       -0.2141
     28 C          -0.0229   -1.6148   -1.3305 C.ar    1  UNL1        0.1680
     29 H           2.3348    1.0828   -0.8155 H       1  UNL1        0.1566
     30 H           4.5380    2.1313   -0.6842 H       1  UNL1        0.0653
     31 H           6.8733    2.1025    0.1848 H       1  UNL1        0.0648
     32 H           6.0075   -1.4680    2.2634 H       1  UNL1        0.0859
     33 H          -0.3454    1.1615    0.5157 H       1  UNL1        0.0663
     34 H          -3.7829   -1.0663    0.1828 H       1  UNL1        0.0868
     35 H          -7.3650    0.4671    1.7854 H       1  UNL1        0.0860
     36 H          -3.0998   -0.7209   -2.1593 H       1  UNL1        0.0868
     37 H           0.1480   -4.2743   -3.1668 H       1  UNL1        0.1066
@<TRIPOS>BOND
     1     1     2    2
     2     2     3   am
     3     3     4    1
     4     4     5   ar
     5     5     6   ar
     6     6     7   ar
     7     7     8    1
     8     7     9   ar
     9     9    10   ar
    10     2    11    1
    11    11    12   ar
    12    12    13   ar
    13    13    14    1
    14    14    15    1
    15    15    16   ar
    16    16    17   ar
    17    17    18   ar
    18    18    19   ar
    19    19    20    1
    20    19    21   ar
    21    21    22    1
    22    13    23   ar
    23    23    24   ar
    24    24    25   ar
    25    25    26   ar
    26    26    27   ar
    27    27    28   ar
    28    10     4   ar
    29    28    11   ar
    30    21    15   ar
    31    28    24   ar
    32     3    29    1
    33     5    30    1
    34     6    31    1
    35     9    32    1
    36    12    33    1
    37    16    34    1
    38    18    35    1
    39    23    36    1
    40    26    37    1
