
     RDKit          3D

 52 55  0  0  0  0  0  0  0  0999 V2000
   -5.7344    0.7277   -0.1979 C   0  0  0  0  0  0  0  0  0  0  0  0
   -5.1058    1.0799   -1.4218 N   0  0  0  0  0  0  0  0  0  0  0  0
   -5.9981    1.6675   -2.4638 C   0  0  0  0  0  0  0  0  0  0  0  0
   -3.7565    0.9418   -1.7493 C   0  0  0  0  0  0  0  0  0  0  0  0
   -3.4699    1.3456   -2.9728 O   0  0  0  0  0  0  0  0  0  0  0  0
   -2.6245    0.4278   -0.9617 C   0  0  2  0  0  0  0  0  0  0  0  0
   -2.7001   -0.9697   -0.4408 C   0  0  0  0  0  0  0  0  0  0  0  0
   -2.6211    0.2481    0.4597 C   0  0  1  0  0  0  0  0  0  0  0  0
   -1.3458    0.4878    1.2272 C   0  0  1  0  0  0  0  0  0  0  0  0
   -1.7173    0.7931    2.6976 C   0  0  0  0  0  0  0  0  0  0  0  0
   -0.5069   -0.7514    1.3490 C   0  0  0  0  0  0  0  0  0  0  0  0
    0.8395   -0.6653    1.0643 C   0  0  0  0  0  0  0  0  0  0  0  0
    1.6965   -1.7424    1.1447 C   0  0  0  0  0  0  0  0  0  0  0  0
    3.1240   -1.6810    0.8493 C   0  0  0  0  0  0  0  0  0  0  0  0
    3.6104   -0.9599   -0.1296 C   0  0  0  0  0  0  0  0  0  0  0  0
    2.7125   -0.2550   -0.8793 F   0  0  0  0  0  0  0  0  0  0  0  0
    5.0348   -0.8824   -0.4382 C   0  0  0  0  0  0  0  0  0  0  0  0
    5.5147   -0.1118   -1.4573 C   0  0  0  0  0  0  0  0  0  0  0  0
    6.8393   -0.0749   -1.6933 N   0  0  0  0  0  0  0  0  0  0  0  0
    7.7411   -0.7657   -0.9719 C   0  0  0  0  0  0  0  0  0  0  0  0
    9.1525   -0.7004   -1.2439 C   0  0  0  0  0  0  0  0  0  0  0  0
   10.3092   -0.6309   -1.4552 N   0  0  0  0  0  0  0  0  0  0  0  0
    7.2207   -1.5368    0.0531 C   0  0  0  0  0  0  0  0  0  0  0  0
    5.8935   -1.5859    0.3048 N   0  0  0  0  0  0  0  0  0  0  0  0
    1.1057   -2.9504    1.5407 C   0  0  0  0  0  0  0  0  0  0  0  0
   -0.2364   -3.0403    1.8254 C   0  0  0  0  0  0  0  0  0  0  0  0
   -1.0719   -1.9423    1.7357 C   0  0  0  0  0  0  0  0  0  0  0  0
   -2.3948   -2.0609    2.0269 F   0  0  0  0  0  0  0  0  0  0  0  0
   -0.5477    1.5840    0.8198 N   0  0  0  0  0  0  0  0  0  0  0  0
   -0.2474    1.9141   -0.3768 C   0  0  0  0  0  0  0  0  0  0  0  0
    0.5528    3.0149   -0.7434 N   0  0  0  0  0  0  0  0  0  0  0  0
   -0.9609    0.8335   -1.6445 S   0  0  0  0  0  0  0  0  0  0  0  0
   -6.8750    0.7431   -0.3386 H   0  0  0  0  0  0  0  0  0  0  0  0
   -5.5328   -0.3045    0.1372 H   0  0  0  0  0  0  0  0  0  0  0  0
   -5.5249    1.4352    0.6474 H   0  0  0  0  0  0  0  0  0  0  0  0
   -6.9956    1.2218   -2.4228 H   0  0  0  0  0  0  0  0  0  0  0  0
   -5.5170    1.5792   -3.4532 H   0  0  0  0  0  0  0  0  0  0  0  0
   -6.0251    2.7486   -2.1999 H   0  0  0  0  0  0  0  0  0  0  0  0
   -3.6455   -1.5409   -0.5310 H   0  0  0  0  0  0  0  0  0  0  0  0
   -1.8210   -1.6340   -0.5714 H   0  0  0  0  0  0  0  0  0  0  0  0
   -3.5405    0.3755    1.0514 H   0  0  0  0  0  0  0  0  0  0  0  0
   -2.7183    1.2778    2.6790 H   0  0  0  0  0  0  0  0  0  0  0  0
   -1.8289   -0.1550    3.2653 H   0  0  0  0  0  0  0  0  0  0  0  0
   -0.9437    1.4355    3.1692 H   0  0  0  0  0  0  0  0  0  0  0  0
    1.2838    0.3003    0.7587 H   0  0  0  0  0  0  0  0  0  0  0  0
    3.8278   -2.2428    1.4472 H   0  0  0  0  0  0  0  0  0  0  0  0
    4.8553    0.4901   -2.1015 H   0  0  0  0  0  0  0  0  0  0  0  0
    7.8903   -2.1150    0.6701 H   0  0  0  0  0  0  0  0  0  0  0  0
    1.7715   -3.7993    1.6058 H   0  0  0  0  0  0  0  0  0  0  0  0
   -0.6802   -3.9911    2.1321 H   0  0  0  0  0  0  0  0  0  0  0  0
    0.5466    3.3718   -1.7286 H   0  0  0  0  0  0  0  0  0  0  0  0
    1.1655    3.5053   -0.0731 H   0  0  0  0  0  0  0  0  0  0  0  0
  1  2  1  0
  2  3  1  0
  2  4  1  0
  4  5  2  0
  6  4  1  1
  6  7  1  0
  7  8  1  0
  8  9  1  0
  9 10  1  1
  9 11  1  0
 11 12  2  0
 12 13  1  0
 13 14  1  0
 14 15  2  0
 15 16  1  0
 15 17  1  0
 17 18  2  0
 18 19  1  0
 19 20  2  0
 20 21  1  0
 21 22  3  0
 20 23  1  0
 23 24  2  0
 13 25  2  0
 25 26  1  0
 26 27  2  0
 27 28  1  0
  9 29  1  0
 29 30  2  0
 30 31  1  0
 30 32  1  0
  8  6  1  0
 27 11  1  0
 32  6  1  0
 24 17  1  0
  1 33  1  0
  1 34  1  0
  1 35  1  0
  3 36  1  0
  3 37  1  0
  3 38  1  0
  7 39  1  0
  7 40  1  0
  8 41  1  1
 10 42  1  0
 10 43  1  0
 10 44  1  0
 12 45  1  0
 14 46  1  0
 18 47  1  0
 23 48  1  0
 25 49  1  0
 26 50  1  0
 31 51  1  0
 31 52  1  0
M  END
$$$$
