@<TRIPOS>MOLECULE
*****
 52 55 0 0 0
SMALL
GASTEIGER

@<TRIPOS>ATOM
      1 C          -5.7344    0.7277   -0.1979 C.3     1  UNL1        0.0029
      2 N          -5.1058    1.0799   -1.4218 N.am    1  UNL1       -0.3064
      3 C          -5.9981    1.6675   -2.4638 C.3     1  UNL1        0.0029
      4 C          -3.7565    0.9418   -1.7493 C.2     1  UNL1        0.2319
      5 O          -3.4699    1.3456   -2.9728 O.2     1  UNL1       -0.2741
      6 C          -2.6245    0.4278   -0.9617 C.3     1  UNL1        0.1054
      7 C          -2.7001   -0.9697   -0.4408 C.3     1  UNL1       -0.0220
      8 C          -2.6211    0.2481    0.4597 C.3     1  UNL1        0.0134
      9 C          -1.3458    0.4878    1.2272 C.3     1  UNL1        0.0935
     10 C          -1.7173    0.7931    2.6976 C.3     1  UNL1       -0.0351
     11 C          -0.5069   -0.7514    1.3490 C.ar    1  UNL1        0.0158
     12 C           0.8395   -0.6653    1.0643 C.ar    1  UNL1       -0.0463
     13 C           1.6965   -1.7424    1.1447 C.ar    1  UNL1       -0.0217
     14 C           3.1240   -1.6810    0.8493 C.2     1  UNL1       -0.0171
     15 C           3.6104   -0.9599   -0.1296 C.2     1  UNL1        0.1506
     16 F           2.7125   -0.2550   -0.8793 F       1  UNL1       -0.2032
     17 C           5.0348   -0.8824   -0.4382 C.ar    1  UNL1        0.1170
     18 C           5.5147   -0.1118   -1.4573 C.ar    1  UNL1        0.0572
     19 N           6.8393   -0.0749   -1.6933 N.ar    1  UNL1       -0.2409
     20 C           7.7411   -0.7657   -0.9719 C.ar    1  UNL1        0.1581
     21 C           9.1525   -0.7004   -1.2439 C.1     1  UNL1        0.1206
     22 N          10.3092   -0.6309   -1.4552 N.1     1  UNL1       -0.1892
     23 C           7.2207   -1.5368    0.0531 C.ar    1  UNL1        0.0642
     24 N           5.8935   -1.5859    0.3048 N.ar    1  UNL1       -0.2483
     25 C           1.1057   -2.9504    1.5407 C.ar    1  UNL1       -0.0518
     26 C          -0.2364   -3.0403    1.8254 C.ar    1  UNL1       -0.0255
     27 C          -1.0719   -1.9423    1.7357 C.ar    1  UNL1        0.1289
     28 F          -2.3948   -2.0609    2.0269 F       1  UNL1       -0.2051
     29 N          -0.5477    1.5840    0.8198 N.2     1  UNL1       -0.2521
     30 C          -0.2474    1.9141   -0.3768 C.2     1  UNL1        0.1485
     31 N           0.5528    3.0149   -0.7434 N.pl3   1  UNL1       -0.3380
     32 S          -0.9609    0.8335   -1.6445 S.3     1  UNL1       -0.0746
     33 H          -6.8750    0.7431   -0.3386 H       1  UNL1        0.0428
     34 H          -5.5328   -0.3045    0.1372 H       1  UNL1        0.0428
     35 H          -5.5249    1.4352    0.6474 H       1  UNL1        0.0428
     36 H          -6.9956    1.2218   -2.4228 H       1  UNL1        0.0428
     37 H          -5.5170    1.5792   -3.4532 H       1  UNL1        0.0428
     38 H          -6.0251    2.7486   -2.1999 H       1  UNL1        0.0428
     39 H          -3.6455   -1.5409   -0.5310 H       1  UNL1        0.0287
     40 H          -1.8210   -1.6340   -0.5714 H       1  UNL1        0.0287
     41 H          -3.5405    0.3755    1.0514 H       1  UNL1        0.0346
     42 H          -2.7183    1.2778    2.6790 H       1  UNL1        0.0256
     43 H          -1.8289   -0.1550    3.2653 H       1  UNL1        0.0256
     44 H          -0.9437    1.4355    3.1692 H       1  UNL1        0.0256
     45 H           1.2838    0.3003    0.7587 H       1  UNL1        0.0628
     46 H           3.8278   -2.2428    1.4472 H       1  UNL1        0.0653
     47 H           4.8553    0.4901   -2.1015 H       1  UNL1        0.0852
     48 H           7.8903   -2.1150    0.6701 H       1  UNL1        0.0859
     49 H           1.7715   -3.7993    1.6058 H       1  UNL1        0.0624
     50 H          -0.6802   -3.9911    2.1321 H       1  UNL1        0.0646
     51 H           0.5466    3.3718   -1.7286 H       1  UNL1        0.1442
     52 H           1.1655    3.5053   -0.0731 H       1  UNL1        0.1442
@<TRIPOS>BOND
     1     1     2    1
     2     2     3    1
     3     2     4   am
     4     4     5    2
     5     6     4    1
     6     6     7    1
     7     7     8    1
     8     8     9    1
     9     9    10    1
    10     9    11    1
    11    11    12   ar
    12    12    13   ar
    13    13    14    1
    14    14    15    2
    15    15    16    1
    16    15    17    1
    17    17    18   ar
    18    18    19   ar
    19    19    20   ar
    20    20    21    1
    21    21    22    3
    22    20    23   ar
    23    23    24   ar
    24    13    25   ar
    25    25    26   ar
    26    26    27   ar
    27    27    28    1
    28     9    29    1
    29    29    30    2
    30    30    31    1
    31    30    32    1
    32     8     6    1
    33    27    11   ar
    34    32     6    1
    35    24    17   ar
    36     1    33    1
    37     1    34    1
    38     1    35    1
    39     3    36    1
    40     3    37    1
    41     3    38    1
    42     7    39    1
    43     7    40    1
    44     8    41    1
    45    10    42    1
    46    10    43    1
    47    10    44    1
    48    12    45    1
    49    14    46    1
    50    18    47    1
    51    23    48    1
    52    25    49    1
    53    26    50    1
    54    31    51    1
    55    31    52    1
