
     RDKit          3D

 37 40  0  0  0  0  0  0  0  0999 V2000
   -2.0935   -1.4434   -0.5989 C   0  0  2  0  0  0  0  0  0  0  0  0
   -2.8142   -2.5716   -0.1720 O   0  0  0  0  0  0  0  0  0  0  0  0
   -1.0551   -1.1113    0.4920 C   0  0  0  0  0  0  0  0  0  0  0  0
   -0.4981    0.1489    0.2094 C   0  0  0  0  0  0  0  0  0  0  0  0
   -1.4554    1.1901    0.1237 C   0  0  0  0  0  0  0  0  0  0  0  0
   -1.1297    2.5296   -0.0507 C   0  0  0  0  0  0  0  0  0  0  0  0
    0.1800    2.9063   -0.1511 C   0  0  0  0  0  0  0  0  0  0  0  0
    1.1537    1.9423   -0.0803 C   0  0  0  0  0  0  0  0  0  0  0  0
    0.7715    0.6330    0.0903 C   0  0  0  0  0  0  0  0  0  0  0  0
    1.8200   -0.2210    0.1257 C   0  0  0  0  0  0  0  0  0  0  0  0
    3.1173    0.1309    0.0251 C   0  0  0  0  0  0  0  0  0  0  0  0
    4.2036   -0.7269    0.0065 C   0  0  0  0  0  0  0  0  0  0  0  0
    3.8840   -2.0692    0.1002 C   0  0  0  0  0  0  0  0  0  0  0  0
    2.5637   -2.5313    0.2045 C   0  0  0  0  0  0  0  0  0  0  0  0
    1.5901   -1.5512    0.2092 C   0  0  0  0  0  0  0  0  0  0  0  0
    3.4711    1.4787   -0.1400 C   0  0  0  0  0  0  0  0  0  0  0  0
    2.4455    2.3956   -0.1939 C   0  0  0  0  0  0  0  0  0  0  0  0
   -2.9099    0.8034    0.1903 C   0  0  1  0  0  0  0  0  0  0  0  0
   -3.6273    1.9248   -0.2618 O   0  0  0  0  0  0  0  0  0  0  0  0
   -3.0738   -0.3459   -0.7767 C   0  0  2  0  0  0  0  0  0  0  0  0
   -4.4028   -0.7796   -0.6745 O   0  0  0  0  0  0  0  0  0  0  0  0
   -1.6320   -1.7006   -1.5453 H   0  0  0  0  0  0  0  0  0  0  0  0
   -2.2396   -3.3543   -0.0816 H   0  0  0  0  0  0  0  0  0  0  0  0
   -1.8878   -0.8054    1.3046 H   0  0  0  0  0  0  0  0  0  0  0  0
   -0.7607   -1.9115    1.1216 H   0  0  0  0  0  0  0  0  0  0  0  0
   -1.9109    3.2468   -0.1046 H   0  0  0  0  0  0  0  0  0  0  0  0
    0.3724    3.9548   -0.2807 H   0  0  0  0  0  0  0  0  0  0  0  0
    5.2056   -0.3889   -0.0731 H   0  0  0  0  0  0  0  0  0  0  0  0
    4.7535   -2.7338    0.0869 H   0  0  0  0  0  0  0  0  0  0  0  0
    2.5593   -3.6092    0.2638 H   0  0  0  0  0  0  0  0  0  0  0  0
    0.7374   -2.1273    0.2208 H   0  0  0  0  0  0  0  0  0  0  0  0
    4.4946    1.8069   -0.2234 H   0  0  0  0  0  0  0  0  0  0  0  0
    2.6768    3.4441   -0.3235 H   0  0  0  0  0  0  0  0  0  0  0  0
   -3.2592    0.5477    1.1869 H   0  0  0  0  0  0  0  0  0  0  0  0
   -3.7934    2.4727    0.5466 H   0  0  0  0  0  0  0  0  0  0  0  0
   -2.9165    0.1200   -1.7966 H   0  0  0  0  0  0  0  0  0  0  0  0
   -4.5402   -1.6940   -1.0198 H   0  0  0  0  0  0  0  0  0  0  0  0
  1  2  1  0
  1  3  1  0
  3  4  1  0
  4  5  2  0
  5  6  1  0
  6  7  2  0
  7  8  1  0
  8  9  2  0
  9 10  1  0
 10 11  2  0
 11 12  1  0
 12 13  2  0
 13 14  1  0
 14 15  2  0
 11 16  1  0
 16 17  2  0
  5 18  1  0
 18 19  1  0
 18 20  1  0
 20 21  1  0
 20  1  1  0
  9  4  1  0
 15 10  1  0
 17  8  1  0
  1 22  1  6
  2 23  1  0
  3 24  1  0
  3 25  1  0
  6 26  1  0
  7 27  1  0
 12 28  1  0
 13 29  1  0
 14 30  1  0
 15 31  1  0
 16 32  1  0
 17 33  1  0
 18 34  1  1
 19 35  1  0
 20 36  1  6
 21 37  1  0
M  END
$$$$
