@<TRIPOS>MOLECULE
*****
 10 9 0 0 0
SMALL
GASTEIGER

@<TRIPOS>ATOM
      1 C          -1.4562   -0.1754   -0.2444 C.3     1  UNL1        0.0052
      2 C          -0.2466    0.2671    0.4974 C.2     1  UNL1        0.2360
      3 O          -0.5160    0.7498    1.6044 O.2     1  UNL1       -0.2854
      4 C           1.0590    0.0876   -0.1399 C.2     1  UNL1        0.3723
      5 O           2.2306    0.4760    0.4904 O.3     1  UNL1       -0.4751
      6 O           1.2340   -0.4149   -1.2724 O.2     1  UNL1       -0.2419
      7 H          -1.2028   -0.8898   -1.0429 H       1  UNL1        0.0311
      8 H          -2.1830   -0.6739    0.4315 H       1  UNL1        0.0311
      9 H          -1.9695    0.7174   -0.7066 H       1  UNL1        0.0311
     10 H           3.0504   -0.1439    0.3824 H       1  UNL1        0.2955
@<TRIPOS>BOND
     1     1     2    1
     2     2     3    2
     3     2     4    1
     4     4     5    1
     5     4     6    2
     6     1     7    1
     7     1     8    1
     8     1     9    1
     9     5    10    1
