@<TRIPOS>MOLECULE
*****
 53 57 0 0 0
SMALL
GASTEIGER

@<TRIPOS>ATOM
      1 C           6.8783    0.4754   -2.2790 C.3     1  UNL1        0.0790
      2 O           6.4881    0.2190   -0.9498 O.3     1  UNL1       -0.4913
      3 C           5.1544    0.2498   -0.5397 C.ar    1  UNL1        0.1650
      4 C           4.1276    0.5340   -1.4111 C.ar    1  UNL1        0.0257
      5 C           2.8098    0.5486   -0.9338 C.ar    1  UNL1        0.1283
      6 C           2.5366    0.2829    0.3896 C.ar    1  UNL1        0.0122
      7 C           3.5657    0.0009    1.2500 C.ar    1  UNL1       -0.0088
      8 C           4.8699   -0.0165    0.7911 C.ar    1  UNL1        0.1620
      9 O           5.9527   -0.3026    1.6480 O.3     1  UNL1       -0.4914
     10 C           5.6293   -0.5695    2.9980 C.3     1  UNL1        0.0790
     11 C           1.1343    0.3037    0.8646 C.3     1  UNL1        0.0908
     12 C           0.5749   -1.0376    0.5860 C.2     1  UNL1        0.1778
     13 O           1.2237   -2.0892    0.7935 O.2     1  UNL1       -0.2912
     14 C          -0.7716   -1.1655    0.0529 C.ar    1  UNL1        0.0603
     15 C          -1.2888   -2.3862   -0.3424 C.ar    1  UNL1       -0.0442
     16 C          -2.5629   -2.4972   -0.8450 C.ar    1  UNL1       -0.0188
     17 C          -3.3910   -1.3864   -0.9789 C.ar    1  UNL1        0.1277
     18 C          -2.8602   -0.1889   -0.5819 C.ar    1  UNL1        0.0401
     19 C          -1.5744   -0.0475   -0.0702 C.ar    1  UNL1        0.1383
     20 O          -1.0631    1.1652    0.3217 O.3     1  UNL1       -0.4833
     21 C           0.3419    1.3997    0.1952 C.3     1  UNL1        0.1478
     22 C           0.6919    1.6426   -1.2305 C.3     1  UNL1        0.1273
     23 O           1.7219    0.8249   -1.7447 O.3     1  UNL1       -0.4879
     24 C          -3.8807    0.9009   -0.7816 C.3     1  UNL1        0.0167
     25 C          -5.1267    0.0524   -0.9261 C.3     1  UNL1        0.1067
     26 C          -5.8051   -0.1926    0.3880 C.3     1  UNL1       -0.0093
     27 C          -4.9471   -0.9010    1.3818 C.3     1  UNL1       -0.0593
     28 C          -6.2580    1.1201    1.0349 C.3     1  UNL1       -0.0593
     29 O          -4.6682   -1.1758   -1.4311 O.3     1  UNL1       -0.4878
     30 H           6.6510   -0.3532   -2.9649 H       1  UNL1        0.0660
     31 H           7.9767    0.7143   -2.2515 H       1  UNL1        0.0660
     32 H           6.3665    1.3746   -2.6927 H       1  UNL1        0.0660
     33 H           4.3341    0.7429   -2.4507 H       1  UNL1        0.0692
     34 H           3.3419   -0.2049    2.2803 H       1  UNL1        0.0659
     35 H           4.8265   -1.3359    3.1028 H       1  UNL1        0.0660
     36 H           5.2418    0.3792    3.4688 H       1  UNL1        0.0660
     37 H           6.4961   -0.9135    3.5798 H       1  UNL1        0.0660
     38 H           1.1096    0.4631    1.9772 H       1  UNL1        0.0468
     39 H          -0.6538   -3.2599   -0.2432 H       1  UNL1        0.0627
     40 H          -2.9473   -3.4761   -1.1505 H       1  UNL1        0.0654
     41 H           0.5574    2.3592    0.7509 H       1  UNL1        0.0778
     42 H           0.9955    2.6921   -1.4394 H       1  UNL1        0.0734
     43 H          -0.2236    1.4854   -1.8737 H       1  UNL1        0.0734
     44 H          -3.9108    1.5318    0.1445 H       1  UNL1        0.0351
     45 H          -3.6518    1.5001   -1.6626 H       1  UNL1        0.0351
     46 H          -5.8514    0.5422   -1.6397 H       1  UNL1        0.0739
     47 H          -6.7334   -0.7867    0.2622 H       1  UNL1        0.0331
     48 H          -4.7486   -1.9401    0.9912 H       1  UNL1        0.0233
     49 H          -5.5177   -1.1020    2.3357 H       1  UNL1        0.0233
     50 H          -3.9789   -0.4477    1.5876 H       1  UNL1        0.0233
     51 H          -6.6534    1.8169    0.2763 H       1  UNL1        0.0233
     52 H          -7.0866    0.8862    1.7315 H       1  UNL1        0.0233
     53 H          -5.4429    1.5686    1.6358 H       1  UNL1        0.0233
@<TRIPOS>BOND
     1     1     2    1
     2     2     3    1
     3     3     4   ar
     4     4     5   ar
     5     5     6   ar
     6     6     7   ar
     7     7     8   ar
     8     8     9    1
     9     9    10    1
    10     6    11    1
    11    11    12    1
    12    12    13    2
    13    12    14    1
    14    14    15   ar
    15    15    16   ar
    16    16    17   ar
    17    17    18   ar
    18    18    19   ar
    19    19    20    1
    20    20    21    1
    21    21    22    1
    22    22    23    1
    23    18    24    1
    24    24    25    1
    25    25    26    1
    26    26    27    1
    27    26    28    1
    28    25    29    1
    29     8     3   ar
    30    21    11    1
    31    23     5    1
    32    19    14   ar
    33    29    17    1
    34     1    30    1
    35     1    31    1
    36     1    32    1
    37     4    33    1
    38     7    34    1
    39    10    35    1
    40    10    36    1
    41    10    37    1
    42    11    38    1
    43    15    39    1
    44    16    40    1
    45    21    41    1
    46    22    42    1
    47    22    43    1
    48    24    44    1
    49    24    45    1
    50    25    46    1
    51    26    47    1
    52    27    48    1
    53    27    49    1
    54    27    50    1
    55    28    51    1
    56    28    52    1
    57    28    53    1
