
     RDKit          3D

 53 57  0  0  0  0  0  0  0  0999 V2000
    6.8783    0.4754   -2.2790 C   0  0  0  0  0  0  0  0  0  0  0  0
    6.4881    0.2190   -0.9498 O   0  0  0  0  0  0  0  0  0  0  0  0
    5.1544    0.2498   -0.5397 C   0  0  0  0  0  0  0  0  0  0  0  0
    4.1276    0.5340   -1.4111 C   0  0  0  0  0  0  0  0  0  0  0  0
    2.8098    0.5486   -0.9338 C   0  0  0  0  0  0  0  0  0  0  0  0
    2.5366    0.2829    0.3896 C   0  0  0  0  0  0  0  0  0  0  0  0
    3.5657    0.0009    1.2500 C   0  0  0  0  0  0  0  0  0  0  0  0
    4.8699   -0.0165    0.7911 C   0  0  0  0  0  0  0  0  0  0  0  0
    5.9527   -0.3026    1.6480 O   0  0  0  0  0  0  0  0  0  0  0  0
    5.6293   -0.5695    2.9980 C   0  0  0  0  0  0  0  0  0  0  0  0
    1.1343    0.3037    0.8646 C   0  0  0  0  0  0  0  0  0  0  0  0
    0.5749   -1.0376    0.5860 C   0  0  0  0  0  0  0  0  0  0  0  0
    1.2237   -2.0892    0.7935 O   0  0  0  0  0  0  0  0  0  0  0  0
   -0.7716   -1.1655    0.0529 C   0  0  0  0  0  0  0  0  0  0  0  0
   -1.2888   -2.3862   -0.3424 C   0  0  0  0  0  0  0  0  0  0  0  0
   -2.5629   -2.4972   -0.8450 C   0  0  0  0  0  0  0  0  0  0  0  0
   -3.3910   -1.3864   -0.9789 C   0  0  0  0  0  0  0  0  0  0  0  0
   -2.8602   -0.1889   -0.5819 C   0  0  0  0  0  0  0  0  0  0  0  0
   -1.5744   -0.0475   -0.0702 C   0  0  0  0  0  0  0  0  0  0  0  0
   -1.0631    1.1652    0.3217 O   0  0  0  0  0  0  0  0  0  0  0  0
    0.3419    1.3997    0.1952 C   0  0  0  0  0  0  0  0  0  0  0  0
    0.6919    1.6426   -1.2305 C   0  0  0  0  0  0  0  0  0  0  0  0
    1.7219    0.8249   -1.7447 O   0  0  0  0  0  0  0  0  0  0  0  0
   -3.8807    0.9009   -0.7816 C   0  0  0  0  0  0  0  0  0  0  0  0
   -5.1267    0.0524   -0.9261 C   0  0  0  0  0  0  0  0  0  0  0  0
   -5.8051   -0.1926    0.3880 C   0  0  0  0  0  0  0  0  0  0  0  0
   -4.9471   -0.9010    1.3818 C   0  0  0  0  0  0  0  0  0  0  0  0
   -6.2580    1.1201    1.0349 C   0  0  0  0  0  0  0  0  0  0  0  0
   -4.6682   -1.1758   -1.4311 O   0  0  0  0  0  0  0  0  0  0  0  0
    6.6510   -0.3532   -2.9649 H   0  0  0  0  0  0  0  0  0  0  0  0
    7.9767    0.7143   -2.2515 H   0  0  0  0  0  0  0  0  0  0  0  0
    6.3665    1.3746   -2.6927 H   0  0  0  0  0  0  0  0  0  0  0  0
    4.3341    0.7429   -2.4507 H   0  0  0  0  0  0  0  0  0  0  0  0
    3.3419   -0.2049    2.2803 H   0  0  0  0  0  0  0  0  0  0  0  0
    4.8265   -1.3359    3.1028 H   0  0  0  0  0  0  0  0  0  0  0  0
    5.2418    0.3792    3.4688 H   0  0  0  0  0  0  0  0  0  0  0  0
    6.4961   -0.9135    3.5798 H   0  0  0  0  0  0  0  0  0  0  0  0
    1.1096    0.4631    1.9772 H   0  0  0  0  0  0  0  0  0  0  0  0
   -0.6538   -3.2599   -0.2432 H   0  0  0  0  0  0  0  0  0  0  0  0
   -2.9473   -3.4761   -1.1505 H   0  0  0  0  0  0  0  0  0  0  0  0
    0.5574    2.3592    0.7509 H   0  0  0  0  0  0  0  0  0  0  0  0
    0.9955    2.6921   -1.4394 H   0  0  0  0  0  0  0  0  0  0  0  0
   -0.2236    1.4854   -1.8737 H   0  0  0  0  0  0  0  0  0  0  0  0
   -3.9108    1.5318    0.1445 H   0  0  0  0  0  0  0  0  0  0  0  0
   -3.6518    1.5001   -1.6626 H   0  0  0  0  0  0  0  0  0  0  0  0
   -5.8514    0.5422   -1.6397 H   0  0  0  0  0  0  0  0  0  0  0  0
   -6.7334   -0.7867    0.2622 H   0  0  0  0  0  0  0  0  0  0  0  0
   -4.7486   -1.9401    0.9912 H   0  0  0  0  0  0  0  0  0  0  0  0
   -5.5177   -1.1020    2.3357 H   0  0  0  0  0  0  0  0  0  0  0  0
   -3.9789   -0.4477    1.5876 H   0  0  0  0  0  0  0  0  0  0  0  0
   -6.6534    1.8169    0.2763 H   0  0  0  0  0  0  0  0  0  0  0  0
   -7.0866    0.8862    1.7315 H   0  0  0  0  0  0  0  0  0  0  0  0
   -5.4429    1.5686    1.6358 H   0  0  0  0  0  0  0  0  0  0  0  0
  1  2  1  0
  2  3  1  0
  3  4  2  0
  4  5  1  0
  5  6  2  0
  6  7  1  0
  7  8  2  0
  8  9  1  0
  9 10  1  0
  6 11  1  0
 11 12  1  0
 12 13  2  0
 12 14  1  0
 14 15  2  0
 15 16  1  0
 16 17  2  0
 17 18  1  0
 18 19  2  0
 19 20  1  0
 20 21  1  0
 21 22  1  0
 22 23  1  0
 18 24  1  0
 24 25  1  0
 25 26  1  0
 26 27  1  0
 26 28  1  0
 25 29  1  0
  8  3  1  0
 21 11  1  0
 23  5  1  0
 19 14  1  0
 29 17  1  0
  1 30  1  0
  1 31  1  0
  1 32  1  0
  4 33  1  0
  7 34  1  0
 10 35  1  0
 10 36  1  0
 10 37  1  0
 11 38  1  0
 15 39  1  0
 16 40  1  0
 21 41  1  0
 22 42  1  0
 22 43  1  0
 24 44  1  0
 24 45  1  0
 25 46  1  0
 26 47  1  0
 27 48  1  0
 27 49  1  0
 27 50  1  0
 28 51  1  0
 28 52  1  0
 28 53  1  0
M  END
$$$$
