@<TRIPOS>MOLECULE
*****
 55 57 0 0 0
SMALL
GASTEIGER

@<TRIPOS>ATOM
      1 C          -0.4740    0.0765   -0.9707 C.3     1  UNL1        0.1049
      2 C           0.9701    0.4626   -0.5933 C.3     1  UNL1        0.0896
      3 S           1.1435    0.6086    1.1520 S.O2    1  UNL1       -0.0274
      4 O           0.1876    1.6935    1.5957 O.2     1  UNL1       -0.1742
      5 O           0.6845   -0.6470    1.8353 O.2     1  UNL1       -0.1742
      6 C           2.7567    1.0494    1.6794 C.3     1  UNL1        0.0841
      7 C           3.8156    0.0812    1.2820 C.3     1  UNL1        0.0428
      8 C           5.1575    0.6016    1.8169 C.3     1  UNL1       -0.0247
      9 C           6.0647   -0.4806    1.2146 C.3     1  UNL1        0.0257
     10 C           5.3971   -0.6012   -0.1322 C.2     1  UNL1        0.2133
     11 O           6.1019   -1.2709   -0.9623 O.2     1  UNL1       -0.2758
     12 N           4.1214    0.0767   -0.1394 N.am    1  UNL1       -0.3109
     13 N          -1.3921    1.0492   -0.5239 N.3     1  UNL1       -0.2904
     14 C          -2.7613    0.8183   -0.8349 C.3     1  UNL1        0.1298
     15 C          -3.6085    1.9606   -0.3363 C.ar    1  UNL1       -0.0217
     16 C          -3.2421    3.2829   -0.5329 C.ar    1  UNL1       -0.0541
     17 C          -4.0055    4.3219   -0.0829 C.ar    1  UNL1       -0.0261
     18 C          -5.1709    4.1038    0.5849 C.ar    1  UNL1        0.1234
     19 F          -6.0311    5.0424    1.0896 F       1  UNL1       -0.2055
     20 C          -5.5740    2.8114    0.8030 C.ar    1  UNL1       -0.0261
     21 C          -4.7865    1.7816    0.3392 C.ar    1  UNL1       -0.0541
     22 C          -3.0574    0.6803   -2.2940 C.3     1  UNL1        0.4089
     23 F          -4.4378    0.4743   -2.4792 F       1  UNL1       -0.1686
     24 F          -2.6828    1.7433   -3.0443 F       1  UNL1       -0.1686
     25 F          -2.4908   -0.5173   -2.7489 F       1  UNL1       -0.1686
     26 C          -0.6866   -1.2849   -0.4258 C.2     1  UNL1        0.2328
     27 O          -1.5519   -1.5489    0.4155 O.2     1  UNL1       -0.2740
     28 N           0.1136   -2.3621   -0.8602 N.am    1  UNL1       -0.2960
     29 C           0.1158   -3.7502   -0.4960 C.3     1  UNL1        0.1215
     30 C          -1.2161   -4.5083   -0.7673 C.3     1  UNL1       -0.0154
     31 C          -0.6979   -4.2730    0.6102 C.3     1  UNL1       -0.0154
     32 C           1.3429   -4.5122   -0.8500 C.1     1  UNL1        0.0883
     33 N           2.3010   -5.1288   -1.1384 N.1     1  UNL1       -0.1943
     34 H          -0.4544    0.0262   -2.0688 H       1  UNL1        0.0573
     35 H           1.6068   -0.3579   -0.9522 H       1  UNL1        0.0520
     36 H           1.2306    1.4473   -1.0405 H       1  UNL1        0.0520
     37 H           2.9964    2.0557    1.2819 H       1  UNL1        0.0518
     38 H           2.7543    1.0870    2.7876 H       1  UNL1        0.0518
     39 H           3.6779   -0.9218    1.6864 H       1  UNL1        0.0514
     40 H           5.4061    1.5451    1.3229 H       1  UNL1        0.0288
     41 H           5.2023    0.5979    2.9116 H       1  UNL1        0.0288
     42 H           7.1022   -0.1301    1.1407 H       1  UNL1        0.0359
     43 H           5.9137   -1.3849    1.8308 H       1  UNL1        0.0359
     44 H           3.8957    0.3079   -1.1390 H       1  UNL1        0.1490
     45 H          -1.0427    2.0053   -0.7087 H       1  UNL1        0.1235
     46 H          -3.1292   -0.0584   -0.2455 H       1  UNL1        0.0600
     47 H          -2.3458    3.5305   -1.0464 H       1  UNL1        0.0622
     48 H          -3.7335    5.3605   -0.2284 H       1  UNL1        0.0646
     49 H          -6.4970    2.5447    1.3309 H       1  UNL1        0.0646
     50 H          -5.1145    0.7556    0.5170 H       1  UNL1        0.0622
     51 H           0.8407   -2.0996   -1.5930 H       1  UNL1        0.1502
     52 H          -1.0984   -5.4532   -1.3046 H       1  UNL1        0.0297
     53 H          -2.0569   -3.8719   -1.1179 H       1  UNL1        0.0297
     54 H          -1.2720   -3.6223    1.2858 H       1  UNL1        0.0297
     55 H          -0.2886   -5.1984    1.1112 H       1  UNL1        0.0297
@<TRIPOS>BOND
     1     1     2    1
     2     2     3    1
     3     3     4    2
     4     3     5    2
     5     3     6    1
     6     6     7    1
     7     7     8    1
     8     8     9    1
     9     9    10    1
    10    10    11    2
    11    10    12   am
    12     1    13    1
    13    13    14    1
    14    14    15    1
    15    15    16   ar
    16    16    17   ar
    17    17    18   ar
    18    18    19    1
    19    18    20   ar
    20    20    21   ar
    21    14    22    1
    22    22    23    1
    23    22    24    1
    24    22    25    1
    25     1    26    1
    26    26    27    2
    27    26    28   am
    28    28    29    1
    29    29    30    1
    30    30    31    1
    31    29    32    1
    32    32    33    3
    33    12     7    1
    34    21    15   ar
    35    31    29    1
    36     1    34    1
    37     2    35    1
    38     2    36    1
    39     6    37    1
    40     6    38    1
    41     7    39    1
    42     8    40    1
    43     8    41    1
    44     9    42    1
    45     9    43    1
    46    12    44    1
    47    13    45    1
    48    14    46    1
    49    16    47    1
    50    17    48    1
    51    20    49    1
    52    21    50    1
    53    28    51    1
    54    30    52    1
    55    30    53    1
    56    31    54    1
    57    31    55    1
