
     RDKit          3D

 55 57  0  0  0  0  0  0  0  0999 V2000
   -0.4740    0.0765   -0.9707 C   0  0  2  0  0  0  0  0  0  0  0  0
    0.9701    0.4626   -0.5933 C   0  0  0  0  0  0  0  0  0  0  0  0
    1.1435    0.6086    1.1520 S   0  0  0  0  0  0  0  0  0  0  0  0
    0.1876    1.6935    1.5957 O   0  0  0  0  0  0  0  0  0  0  0  0
    0.6845   -0.6470    1.8353 O   0  0  0  0  0  0  0  0  0  0  0  0
    2.7567    1.0494    1.6794 C   0  0  0  0  0  0  0  0  0  0  0  0
    3.8156    0.0812    1.2820 C   0  0  2  0  0  0  0  0  0  0  0  0
    5.1575    0.6016    1.8169 C   0  0  0  0  0  0  0  0  0  0  0  0
    6.0647   -0.4806    1.2146 C   0  0  0  0  0  0  0  0  0  0  0  0
    5.3971   -0.6012   -0.1322 C   0  0  0  0  0  0  0  0  0  0  0  0
    6.1019   -1.2709   -0.9623 O   0  0  0  0  0  0  0  0  0  0  0  0
    4.1214    0.0767   -0.1394 N   0  0  0  0  0  0  0  0  0  0  0  0
   -1.3921    1.0492   -0.5239 N   0  0  0  0  0  0  0  0  0  0  0  0
   -2.7613    0.8183   -0.8349 C   0  0  1  0  0  0  0  0  0  0  0  0
   -3.6085    1.9606   -0.3363 C   0  0  0  0  0  0  0  0  0  0  0  0
   -3.2421    3.2829   -0.5329 C   0  0  0  0  0  0  0  0  0  0  0  0
   -4.0055    4.3219   -0.0829 C   0  0  0  0  0  0  0  0  0  0  0  0
   -5.1709    4.1038    0.5849 C   0  0  0  0  0  0  0  0  0  0  0  0
   -6.0311    5.0424    1.0896 F   0  0  0  0  0  0  0  0  0  0  0  0
   -5.5740    2.8114    0.8030 C   0  0  0  0  0  0  0  0  0  0  0  0
   -4.7865    1.7816    0.3392 C   0  0  0  0  0  0  0  0  0  0  0  0
   -3.0574    0.6803   -2.2940 C   0  0  0  0  0  0  0  0  0  0  0  0
   -4.4378    0.4743   -2.4792 F   0  0  0  0  0  0  0  0  0  0  0  0
   -2.6828    1.7433   -3.0443 F   0  0  0  0  0  0  0  0  0  0  0  0
   -2.4908   -0.5173   -2.7489 F   0  0  0  0  0  0  0  0  0  0  0  0
   -0.6866   -1.2849   -0.4258 C   0  0  0  0  0  0  0  0  0  0  0  0
   -1.5519   -1.5489    0.4155 O   0  0  0  0  0  0  0  0  0  0  0  0
    0.1136   -2.3621   -0.8602 N   0  0  0  0  0  0  0  0  0  0  0  0
    0.1158   -3.7502   -0.4960 C   0  0  0  0  0  0  0  0  0  0  0  0
   -1.2161   -4.5083   -0.7673 C   0  0  0  0  0  0  0  0  0  0  0  0
   -0.6979   -4.2730    0.6102 C   0  0  0  0  0  0  0  0  0  0  0  0
    1.3429   -4.5122   -0.8500 C   0  0  0  0  0  0  0  0  0  0  0  0
    2.3010   -5.1288   -1.1384 N   0  0  0  0  0  0  0  0  0  0  0  0
   -0.4544    0.0262   -2.0688 H   0  0  0  0  0  0  0  0  0  0  0  0
    1.6068   -0.3579   -0.9522 H   0  0  0  0  0  0  0  0  0  0  0  0
    1.2306    1.4473   -1.0405 H   0  0  0  0  0  0  0  0  0  0  0  0
    2.9964    2.0557    1.2819 H   0  0  0  0  0  0  0  0  0  0  0  0
    2.7543    1.0870    2.7876 H   0  0  0  0  0  0  0  0  0  0  0  0
    3.6779   -0.9218    1.6864 H   0  0  0  0  0  0  0  0  0  0  0  0
    5.4061    1.5451    1.3229 H   0  0  0  0  0  0  0  0  0  0  0  0
    5.2023    0.5979    2.9116 H   0  0  0  0  0  0  0  0  0  0  0  0
    7.1022   -0.1301    1.1407 H   0  0  0  0  0  0  0  0  0  0  0  0
    5.9137   -1.3849    1.8308 H   0  0  0  0  0  0  0  0  0  0  0  0
    3.8957    0.3079   -1.1390 H   0  0  0  0  0  0  0  0  0  0  0  0
   -1.0427    2.0053   -0.7087 H   0  0  0  0  0  0  0  0  0  0  0  0
   -3.1292   -0.0584   -0.2455 H   0  0  0  0  0  0  0  0  0  0  0  0
   -2.3458    3.5305   -1.0464 H   0  0  0  0  0  0  0  0  0  0  0  0
   -3.7335    5.3605   -0.2284 H   0  0  0  0  0  0  0  0  0  0  0  0
   -6.4970    2.5447    1.3309 H   0  0  0  0  0  0  0  0  0  0  0  0
   -5.1145    0.7556    0.5170 H   0  0  0  0  0  0  0  0  0  0  0  0
    0.8407   -2.0996   -1.5930 H   0  0  0  0  0  0  0  0  0  0  0  0
   -1.0984   -5.4532   -1.3046 H   0  0  0  0  0  0  0  0  0  0  0  0
   -2.0569   -3.8719   -1.1179 H   0  0  0  0  0  0  0  0  0  0  0  0
   -1.2720   -3.6223    1.2858 H   0  0  0  0  0  0  0  0  0  0  0  0
   -0.2886   -5.1984    1.1112 H   0  0  0  0  0  0  0  0  0  0  0  0
  1  2  1  0
  2  3  1  0
  3  4  2  0
  3  5  2  0
  3  6  1  0
  6  7  1  0
  7  8  1  0
  8  9  1  0
  9 10  1  0
 10 11  2  0
 10 12  1  0
  1 13  1  0
 13 14  1  0
 14 15  1  0
 15 16  2  0
 16 17  1  0
 17 18  2  0
 18 19  1  0
 18 20  1  0
 20 21  2  0
 14 22  1  0
 22 23  1  0
 22 24  1  0
 22 25  1  0
  1 26  1  0
 26 27  2  0
 26 28  1  0
 28 29  1  0
 29 30  1  0
 30 31  1  0
 29 32  1  0
 32 33  3  0
 12  7  1  0
 21 15  1  0
 31 29  1  0
  1 34  1  6
  2 35  1  0
  2 36  1  0
  6 37  1  0
  6 38  1  0
  7 39  1  1
  8 40  1  0
  8 41  1  0
  9 42  1  0
  9 43  1  0
 12 44  1  0
 13 45  1  0
 14 46  1  1
 16 47  1  0
 17 48  1  0
 20 49  1  0
 21 50  1  0
 28 51  1  0
 30 52  1  0
 30 53  1  0
 31 54  1  0
 31 55  1  0
M  END
$$$$
