@<TRIPOS>MOLECULE
*****
 68 72 0 0 0
SMALL
GASTEIGER

@<TRIPOS>ATOM
      1 C          -7.1789   -0.2682   -2.5160 C.3     1  UNL1       -0.0445
      2 C          -6.8167   -0.5863   -1.0589 C.3     1  UNL1        0.0466
      3 C          -7.5846   -1.8739   -0.7286 C.3     1  UNL1       -0.0445
      4 C          -5.3722   -0.9256   -1.0053 C.3     1  UNL1       -0.0141
      5 C          -4.6644   -0.0981    0.0266 C.3     1  UNL1        0.0269
      6 N          -3.3597   -0.7176    0.2270 N.am    1  UNL1       -0.3084
      7 C          -2.1436   -0.0325    0.0699 C.2     1  UNL1        0.2443
      8 O          -2.2278    1.1974   -0.2680 O.2     1  UNL1       -0.2702
      9 C          -0.8278   -0.6066    0.2588 C.ar    1  UNL1        0.0373
     10 C          -0.7232   -1.9255    0.6337 C.ar    1  UNL1       -0.0496
     11 C           0.5307   -2.5181    0.8252 C.ar    1  UNL1       -0.0604
     12 C           1.6700   -1.7643    0.6341 C.ar    1  UNL1       -0.0525
     13 C           1.5882   -0.4437    0.2592 C.ar    1  UNL1        0.0029
     14 C           2.7895    0.3708    0.0511 C.ar    1  UNL1        0.0953
     15 C           2.8078    1.6945   -0.3252 C.ar    1  UNL1        0.0103
     16 C           4.1335    2.0594   -0.4050 C.ar    1  UNL1        0.1580
     17 N           4.6735    3.2485   -0.7345 N.ar    1  UNL1       -0.2359
     18 C           6.0014    3.4201   -0.7596 C.ar    1  UNL1        0.0332
     19 C           6.7844    2.3047   -0.4276 C.ar    1  UNL1       -0.0033
     20 C           6.2438    1.1064   -0.0962 C.ar    1  UNL1        0.1281
     21 N           7.0337   -0.0136    0.2155 N.pl3   1  UNL1       -0.2992
     22 C           8.4265   -0.1446    0.0666 C.ar    1  UNL1        0.0358
     23 C           9.0889    0.3153   -1.0388 C.ar    1  UNL1       -0.0403
     24 C          10.4738    0.2049   -1.1790 C.ar    1  UNL1       -0.0566
     25 C          11.2197   -0.3830   -0.1856 C.ar    1  UNL1       -0.0201
     26 C          10.5631   -0.8503    0.9313 C.ar    1  UNL1        0.1186
     27 O          11.3496   -1.4385    1.9140 O.3     1  UNL1       -0.5067
     28 C           9.1918   -0.7419    1.0727 C.ar    1  UNL1        0.0010
     29 N           4.8878    0.9944   -0.0882 N.ar    1  UNL1       -0.1998
     30 N           4.0718   -0.0041    0.1812 N.ar    1  UNL1       -0.1633
     31 C           0.3368    0.0997    0.0815 C.ar    1  UNL1       -0.0404
     32 C          -5.4793   -0.1467    1.3003 C.3     1  UNL1       -0.0141
     33 C          -6.8326    0.4587    1.1132 C.3     1  UNL1        0.0466
     34 C          -7.8867   -0.1802    1.9826 C.3     1  UNL1       -0.0445
     35 C          -6.7319    1.9190    1.5790 C.3     1  UNL1       -0.0445
     36 N          -7.2488    0.5098   -0.2650 N.3     1  UNL1       -0.1429
     37 O          -7.1333    1.7079   -0.8349 O.3     1  UNL1       -0.1183
     38 H          -7.5299   -1.1770   -3.0461 H       1  UNL1        0.0248
     39 H          -6.2737    0.0836   -3.0728 H       1  UNL1        0.0248
     40 H          -7.9097    0.5460   -2.5823 H       1  UNL1        0.0248
     41 H          -8.6155   -1.6796   -0.4335 H       1  UNL1        0.0248
     42 H          -7.6452   -2.5180   -1.6548 H       1  UNL1        0.0248
     43 H          -7.0333   -2.4882    0.0116 H       1  UNL1        0.0248
     44 H          -4.9012   -0.7625   -2.0135 H       1  UNL1        0.0301
     45 H          -5.1706   -1.9918   -0.7725 H       1  UNL1        0.0301
     46 H          -4.5358    0.9586   -0.2567 H       1  UNL1        0.0499
     47 H          -3.3497   -1.7207    0.5003 H       1  UNL1        0.1493
     48 H          -1.5581   -2.5897    0.8060 H       1  UNL1        0.0625
     49 H           0.6383   -3.5396    1.1159 H       1  UNL1        0.0618
     50 H           2.6660   -2.1916    0.7747 H       1  UNL1        0.0624
     51 H           1.9318    2.3064   -0.5148 H       1  UNL1        0.0677
     52 H           6.4635    4.3669   -1.0219 H       1  UNL1        0.0831
     53 H           7.8492    2.4896   -0.4453 H       1  UNL1        0.0667
     54 H           6.5379   -0.8725    0.6125 H       1  UNL1        0.1536
     55 H           8.4945    0.7690   -1.8409 H       1  UNL1        0.0636
     56 H          10.9465    0.5883   -2.0788 H       1  UNL1        0.0619
     57 H          12.3137   -0.4838   -0.2692 H       1  UNL1        0.0654
     58 H          11.3893   -0.9923    2.8110 H       1  UNL1        0.2921
     59 H           8.6882   -1.1093    1.9487 H       1  UNL1        0.0673
     60 H           0.2285    1.1490   -0.2177 H       1  UNL1        0.0632
     61 H          -4.8954    0.3238    2.1318 H       1  UNL1        0.0301
     62 H          -5.6066   -1.2146    1.5690 H       1  UNL1        0.0301
     63 H          -7.9837   -1.2649    1.8438 H       1  UNL1        0.0248
     64 H          -8.8749    0.2612    1.7390 H       1  UNL1        0.0248
     65 H          -7.6327    0.0441    3.0400 H       1  UNL1        0.0248
     66 H          -6.1369    2.0147    2.4999 H       1  UNL1        0.0248
     67 H          -6.3554    2.5110    0.7361 H       1  UNL1        0.0248
     68 H          -7.7937    2.2354    1.7337 H       1  UNL1        0.0248
@<TRIPOS>BOND
     1     1     2    1
     2     2     3    1
     3     2     4    1
     4     4     5    1
     5     5     6    1
     6     6     7   am
     7     7     8    2
     8     7     9    1
     9     9    10   ar
    10    10    11   ar
    11    11    12   ar
    12    12    13   ar
    13    13    14    1
    14    14    15   ar
    15    15    16   ar
    16    16    17   ar
    17    17    18   ar
    18    18    19   ar
    19    19    20   ar
    20    20    21    1
    21    21    22    1
    22    22    23   ar
    23    23    24   ar
    24    24    25   ar
    25    25    26   ar
    26    26    27    1
    27    26    28   ar
    28    20    29   ar
    29    29    30   ar
    30    13    31   ar
    31     5    32    1
    32    32    33    1
    33    33    34    1
    34    33    35    1
    35    33    36    1
    36    36    37    1
    37    36     2    1
    38    31     9   ar
    39    30    14   ar
    40    29    16   ar
    41    28    22   ar
    42     1    38    1
    43     1    39    1
    44     1    40    1
    45     3    41    1
    46     3    42    1
    47     3    43    1
    48     4    44    1
    49     4    45    1
    50     5    46    1
    51     6    47    1
    52    10    48    1
    53    11    49    1
    54    12    50    1
    55    15    51    1
    56    18    52    1
    57    19    53    1
    58    21    54    1
    59    23    55    1
    60    24    56    1
    61    25    57    1
    62    27    58    1
    63    28    59    1
    64    31    60    1
    65    32    61    1
    66    32    62    1
    67    34    63    1
    68    34    64    1
    69    34    65    1
    70    35    66    1
    71    35    67    1
    72    35    68    1
