@<TRIPOS>MOLECULE
*****
 29 29 0 0 0
SMALL
GASTEIGER

@<TRIPOS>ATOM
      1 C           1.7600   -1.0444    1.5416 C.3     1  UNL1       -0.0533
      2 C           1.9065   -0.7296    0.0635 C.3     1  UNL1        0.0417
      3 C           3.3528   -0.2992   -0.2057 C.3     1  UNL1        0.0015
      4 S           3.4729    0.0637   -1.9776 S.3     1  UNL1       -0.1775
      5 C           1.0627    0.4207   -0.2505 C.2     1  UNL1        0.2198
      6 O           1.4037    1.5589   -0.7197 O.2     1  UNL1       -0.2753
      7 N          -0.3511    0.5017   -0.0902 N.am    1  UNL1       -0.2878
      8 C          -0.9464    1.7737   -0.4830 C.3     1  UNL1        0.0156
      9 C          -2.4325    1.4157   -0.6168 C.3     1  UNL1       -0.0349
     10 C          -2.5313    0.5744    0.6577 C.3     1  UNL1       -0.0225
     11 C          -1.3940   -0.3950    0.3837 C.3     1  UNL1        0.1228
     12 C          -1.8293   -1.3336   -0.6915 C.2     1  UNL1        0.3255
     13 O          -2.8261   -2.2380   -0.3473 O.3     1  UNL1       -0.4793
     14 O          -1.4786   -1.5008   -1.9071 O.2     1  UNL1       -0.2489
     15 H           1.0560   -1.9213    1.6261 H       1  UNL1        0.0237
     16 H           1.2984   -0.1881    2.0706 H       1  UNL1        0.0237
     17 H           2.7473   -1.3218    1.9904 H       1  UNL1        0.0237
     18 H           1.6343   -1.5999   -0.5315 H       1  UNL1        0.0399
     19 H           4.0452   -1.1408    0.0212 H       1  UNL1        0.0381
     20 H           3.6241    0.5521    0.4219 H       1  UNL1        0.0381
     21 H           3.8603    1.4102   -2.2032 H       1  UNL1        0.1017
     22 H          -0.9220    2.4663    0.4090 H       1  UNL1        0.0465
     23 H          -0.5449    2.2021   -1.3949 H       1  UNL1        0.0465
     24 H          -2.5564    0.7600   -1.4986 H       1  UNL1        0.0281
     25 H          -3.0730    2.2953   -0.5822 H       1  UNL1        0.0281
     26 H          -3.5032    0.0978    0.7926 H       1  UNL1        0.0289
     27 H          -2.2154    1.2171    1.4934 H       1  UNL1        0.0289
     28 H          -1.1201   -0.9692    1.2828 H       1  UNL1        0.0616
     29 H          -3.4999   -2.6279   -0.9965 H       1  UNL1        0.2951
@<TRIPOS>BOND
     1     1     2    1
     2     2     3    1
     3     3     4    1
     4     2     5    1
     5     5     6    2
     6     5     7   am
     7     7     8    1
     8     8     9    1
     9     9    10    1
    10    10    11    1
    11    11    12    1
    12    12    13    1
    13    12    14    2
    14    11     7    1
    15     1    15    1
    16     1    16    1
    17     1    17    1
    18     2    18    1
    19     3    19    1
    20     3    20    1
    21     4    21    1
    22     8    22    1
    23     8    23    1
    24     9    24    1
    25     9    25    1
    26    10    26    1
    27    10    27    1
    28    11    28    1
    29    13    29    1
