
     RDKit          3D

 29 29  0  0  0  0  0  0  0  0999 V2000
    1.7600   -1.0444    1.5416 C   0  0  0  0  0  0  0  0  0  0  0  0
    1.9065   -0.7296    0.0635 C   0  0  2  0  0  0  0  0  0  0  0  0
    3.3528   -0.2992   -0.2057 C   0  0  0  0  0  0  0  0  0  0  0  0
    3.4729    0.0637   -1.9776 S   0  0  0  0  0  0  0  0  0  0  0  0
    1.0627    0.4207   -0.2505 C   0  0  0  0  0  0  0  0  0  0  0  0
    1.4037    1.5589   -0.7197 O   0  0  0  0  0  0  0  0  0  0  0  0
   -0.3511    0.5017   -0.0902 N   0  0  0  0  0  0  0  0  0  0  0  0
   -0.9464    1.7737   -0.4830 C   0  0  0  0  0  0  0  0  0  0  0  0
   -2.4325    1.4157   -0.6168 C   0  0  0  0  0  0  0  0  0  0  0  0
   -2.5313    0.5744    0.6577 C   0  0  0  0  0  0  0  0  0  0  0  0
   -1.3940   -0.3950    0.3837 C   0  0  1  0  0  0  0  0  0  0  0  0
   -1.8293   -1.3336   -0.6915 C   0  0  0  0  0  0  0  0  0  0  0  0
   -2.8261   -2.2380   -0.3473 O   0  0  0  0  0  0  0  0  0  0  0  0
   -1.4786   -1.5008   -1.9071 O   0  0  0  0  0  0  0  0  0  0  0  0
    1.0560   -1.9213    1.6261 H   0  0  0  0  0  0  0  0  0  0  0  0
    1.2984   -0.1881    2.0706 H   0  0  0  0  0  0  0  0  0  0  0  0
    2.7473   -1.3218    1.9904 H   0  0  0  0  0  0  0  0  0  0  0  0
    1.6343   -1.5999   -0.5315 H   0  0  0  0  0  0  0  0  0  0  0  0
    4.0452   -1.1408    0.0212 H   0  0  0  0  0  0  0  0  0  0  0  0
    3.6241    0.5521    0.4219 H   0  0  0  0  0  0  0  0  0  0  0  0
    3.8603    1.4102   -2.2032 H   0  0  0  0  0  0  0  0  0  0  0  0
   -0.9220    2.4663    0.4090 H   0  0  0  0  0  0  0  0  0  0  0  0
   -0.5449    2.2021   -1.3949 H   0  0  0  0  0  0  0  0  0  0  0  0
   -2.5564    0.7600   -1.4986 H   0  0  0  0  0  0  0  0  0  0  0  0
   -3.0730    2.2953   -0.5822 H   0  0  0  0  0  0  0  0  0  0  0  0
   -3.5032    0.0978    0.7926 H   0  0  0  0  0  0  0  0  0  0  0  0
   -2.2154    1.2171    1.4934 H   0  0  0  0  0  0  0  0  0  0  0  0
   -1.1201   -0.9692    1.2828 H   0  0  0  0  0  0  0  0  0  0  0  0
   -3.4999   -2.6279   -0.9965 H   0  0  0  0  0  0  0  0  0  0  0  0
  1  2  1  0
  2  3  1  0
  3  4  1  0
  2  5  1  0
  5  6  2  0
  5  7  1  0
  7  8  1  0
  8  9  1  0
  9 10  1  0
 10 11  1  0
 11 12  1  0
 12 13  1  0
 12 14  2  0
 11  7  1  0
  1 15  1  0
  1 16  1  0
  1 17  1  0
  2 18  1  6
  3 19  1  0
  3 20  1  0
  4 21  1  0
  8 22  1  0
  8 23  1  0
  9 24  1  0
  9 25  1  0
 10 26  1  0
 10 27  1  0
 11 28  1  1
 13 29  1  0
M  END
$$$$
