@<TRIPOS>MOLECULE
*****
 53 55 0 0 0
SMALL
GASTEIGER

@<TRIPOS>ATOM
      1 C          -1.7267    3.4445    1.4021 C.3     1  UNL1       -0.0266
      2 C          -2.2563    3.4027   -0.0099 C.3     1  UNL1        0.1492
      3 C          -1.8884    2.3446   -0.9535 C.2     1  UNL1        0.1871
      4 O          -1.4739    2.7494   -2.0508 O.2     1  UNL1       -0.2923
      5 C          -1.9720    0.8718   -0.7943 C.3     1  UNL1        0.0884
      6 C          -3.1397    0.4780    0.0348 C.3     1  UNL1       -0.0022
      7 C          -3.4623   -0.9266    0.2226 C.ar    1  UNL1       -0.0452
      8 C          -4.3372   -1.5617   -0.6863 C.ar    1  UNL1       -0.0585
      9 C          -4.7004   -2.8622   -0.5298 C.ar    1  UNL1       -0.0615
     10 C          -4.2139   -3.6026    0.5186 C.ar    1  UNL1       -0.0617
     11 C          -3.3568   -3.0136    1.4066 C.ar    1  UNL1       -0.0615
     12 C          -2.9959   -1.6897    1.2533 C.ar    1  UNL1       -0.0585
     13 N          -0.6993    0.2762   -0.5596 N.am    1  UNL1       -0.3037
     14 C          -0.1481   -0.8886   -1.1101 C.2     1  UNL1        0.2362
     15 O          -0.9002   -1.5451   -1.9082 O.2     1  UNL1       -0.2737
     16 CA          1.1728   -1.4256   -0.8836 C.3     1  UNL1        0.1228
     17 C           1.1440   -2.7301   -0.0506 C.3     1  UNL1        0.0711
     18 O           0.2053   -3.6197   -0.4490 O.3     1  UNL1       -0.3927
     19 N           2.1636   -0.5831   -0.2742 N.am    1  UNL1       -0.2969
     20 C           3.5087   -0.8385   -0.6424 C.2     1  UNL1        0.2611
     21 O           3.7770   -1.7867   -1.4865 O.2     1  UNL1       -0.2686
     22 CA          4.6536   -0.1226   -0.1371 C.ar    1  UNL1        0.1044
     23 C           5.5141   -0.7145    0.7829 C.ar    1  UNL1       -0.0330
     24 C           6.6587   -0.0960    1.2012 C.ar    1  UNL1       -0.0545
     25 C           6.9470    1.1553    0.6798 C.ar    1  UNL1        0.0028
     26 C           6.1050    1.7297   -0.2178 C.ar    1  UNL1        0.2493
     27 O           6.3737    2.8638   -0.6842 O.2     1  UNL1       -0.2679
     28 N           4.9893    1.1065   -0.6115 N.ar    1  UNL1       -0.3185
     29 C          -3.0212    4.5685   -0.5617 C.3     1  UNL1        0.0847
     30 O          -3.7046    3.5629    0.0642 O.3     1  UNL1       -0.3605
     31 H          -2.2354    4.2990    1.9670 H       1  UNL1        0.0262
     32 H          -0.6674    3.7029    1.4353 H       1  UNL1        0.0262
     33 H          -1.9689    2.5711    2.0168 H       1  UNL1        0.0262
     34 H          -2.2969    0.4932   -1.8482 H       1  UNL1        0.0581
     35 H          -3.1522    1.0003    0.9993 H       1  UNL1        0.0335
     36 H          -4.0791    0.9190   -0.5097 H       1  UNL1        0.0335
     37 H          -4.7029   -0.9880   -1.4966 H       1  UNL1        0.0620
     38 H          -5.3518   -3.3183   -1.2521 H       1  UNL1        0.0618
     39 H          -4.4938   -4.6624    0.6234 H       1  UNL1        0.0618
     40 H          -2.9358   -3.5959    2.2361 H       1  UNL1        0.0618
     41 H          -2.3199   -1.2808    1.9890 H       1  UNL1        0.0620
     42 H          -0.0683    0.7654    0.1403 H       1  UNL1        0.1495
     43 HA          1.6033   -1.7813   -1.8989 H       1  UNL1        0.0618
     44 H1          1.1377   -2.5454    1.0291 H       1  UNL1        0.0580
     45 H2          2.1768   -3.2507   -0.1959 H       1  UNL1        0.0580
     46 H          -0.2033   -4.1316    0.2899 H       1  UNL1        0.2095
     47 H           1.8728    0.1490    0.3735 H       1  UNL1        0.1499
     48 H           5.2237   -1.6835    1.1811 H       1  UNL1        0.0640
     49 H           7.3484   -0.5189    1.9144 H       1  UNL1        0.0620
     50 H           7.8975    1.6599    1.0002 H       1  UNL1        0.0671
     51 H           4.3252    1.5279   -1.2838 H       1  UNL1        0.1690
     52 H          -3.2339    4.5958   -1.6704 H       1  UNL1        0.0593
     53 H          -3.0916    5.5261   -0.0592 H       1  UNL1        0.0593
@<TRIPOS>BOND
     1     2     1    1
     2     2     3    1
     3     3     4    2
     4     3     5    1
     5     5     6    1
     6     6     7    1
     7     7     8   ar
     8     8     9   ar
     9     9    10   ar
    10    10    11   ar
    11    11    12   ar
    12     5    13    1
    13    13    14   am
    14    14    15    2
    15    14    16    1
    16    16    17    1
    17    17    18    1
    18    16    19    1
    19    19    20   am
    20    20    21    2
    21    20    22    1
    22    22    23   ar
    23    23    24   ar
    24    24    25   ar
    25    25    26   ar
    26    26    27    2
    27    26    28   ar
    28     2    29    1
    29    29    30    1
    30    30     2    1
    31    12     7   ar
    32    28    22   ar
    33     1    31    1
    34     1    32    1
    35     1    33    1
    36     5    34    1
    37     6    35    1
    38     6    36    1
    39     8    37    1
    40     9    38    1
    41    10    39    1
    42    11    40    1
    43    12    41    1
    44    13    42    1
    45    16    43    1
    46    17    44    1
    47    17    45    1
    48    18    46    1
    49    19    47    1
    50    23    48    1
    51    24    49    1
    52    25    50    1
    53    28    51    1
    54    29    52    1
    55    29    53    1
