
     RDKit          3D

 53 55  0  0  0  0  0  0  0  0999 V2000
   -1.7267    3.4445    1.4021 C   0  0  0  0  0  0  0  0  0  0  0  0
   -2.2563    3.4027   -0.0099 C   0  0  2  0  0  0  0  0  0  0  0  0
   -1.8884    2.3446   -0.9535 C   0  0  0  0  0  0  0  0  0  0  0  0
   -1.4739    2.7494   -2.0508 O   0  0  0  0  0  0  0  0  0  0  0  0
   -1.9720    0.8718   -0.7943 C   0  0  2  0  0  0  0  0  0  0  0  0
   -3.1397    0.4780    0.0348 C   0  0  0  0  0  0  0  0  0  0  0  0
   -3.4623   -0.9266    0.2226 C   0  0  0  0  0  0  0  0  0  0  0  0
   -4.3372   -1.5617   -0.6863 C   0  0  0  0  0  0  0  0  0  0  0  0
   -4.7004   -2.8622   -0.5298 C   0  0  0  0  0  0  0  0  0  0  0  0
   -4.2139   -3.6026    0.5186 C   0  0  0  0  0  0  0  0  0  0  0  0
   -3.3568   -3.0136    1.4066 C   0  0  0  0  0  0  0  0  0  0  0  0
   -2.9959   -1.6897    1.2533 C   0  0  0  0  0  0  0  0  0  0  0  0
   -0.6993    0.2762   -0.5596 N   0  0  0  0  0  0  0  0  0  0  0  0
   -0.1481   -0.8886   -1.1101 C   0  0  0  0  0  0  0  0  0  0  0  0
   -0.9002   -1.5451   -1.9082 O   0  0  0  0  0  0  0  0  0  0  0  0
    1.1728   -1.4256   -0.8836 C   0  0  2  0  0  0  0  0  0  0  0  0
    1.1440   -2.7301   -0.0506 C   0  0  0  0  0  0  0  0  0  0  0  0
    0.2053   -3.6197   -0.4490 O   0  0  0  0  0  0  0  0  0  0  0  0
    2.1636   -0.5831   -0.2742 N   0  0  0  0  0  0  0  0  0  0  0  0
    3.5087   -0.8385   -0.6424 C   0  0  0  0  0  0  0  0  0  0  0  0
    3.7770   -1.7867   -1.4865 O   0  0  0  0  0  0  0  0  0  0  0  0
    4.6536   -0.1226   -0.1371 C   0  0  0  0  0  0  0  0  0  0  0  0
    5.5141   -0.7145    0.7829 C   0  0  0  0  0  0  0  0  0  0  0  0
    6.6587   -0.0960    1.2012 C   0  0  0  0  0  0  0  0  0  0  0  0
    6.9470    1.1553    0.6798 C   0  0  0  0  0  0  0  0  0  0  0  0
    6.1050    1.7297   -0.2178 C   0  0  0  0  0  0  0  0  0  0  0  0
    6.3737    2.8638   -0.6842 O   0  0  0  0  0  0  0  0  0  0  0  0
    4.9893    1.1065   -0.6115 N   0  0  0  0  0  0  0  0  0  0  0  0
   -3.0212    4.5685   -0.5617 C   0  0  0  0  0  0  0  0  0  0  0  0
   -3.7046    3.5629    0.0642 O   0  0  0  0  0  0  0  0  0  0  0  0
   -2.2354    4.2990    1.9670 H   0  0  0  0  0  0  0  0  0  0  0  0
   -0.6674    3.7029    1.4353 H   0  0  0  0  0  0  0  0  0  0  0  0
   -1.9689    2.5711    2.0168 H   0  0  0  0  0  0  0  0  0  0  0  0
   -2.2969    0.4932   -1.8482 H   0  0  0  0  0  0  0  0  0  0  0  0
   -3.1522    1.0003    0.9993 H   0  0  0  0  0  0  0  0  0  0  0  0
   -4.0791    0.9190   -0.5097 H   0  0  0  0  0  0  0  0  0  0  0  0
   -4.7029   -0.9880   -1.4966 H   0  0  0  0  0  0  0  0  0  0  0  0
   -5.3518   -3.3183   -1.2521 H   0  0  0  0  0  0  0  0  0  0  0  0
   -4.4938   -4.6624    0.6234 H   0  0  0  0  0  0  0  0  0  0  0  0
   -2.9358   -3.5959    2.2361 H   0  0  0  0  0  0  0  0  0  0  0  0
   -2.3199   -1.2808    1.9890 H   0  0  0  0  0  0  0  0  0  0  0  0
   -0.0683    0.7654    0.1403 H   0  0  0  0  0  0  0  0  0  0  0  0
    1.6033   -1.7813   -1.8989 H   0  0  0  0  0  0  0  0  0  0  0  0
    1.1377   -2.5454    1.0291 H   0  0  0  0  0  0  0  0  0  0  0  0
    2.1768   -3.2507   -0.1959 H   0  0  0  0  0  0  0  0  0  0  0  0
   -0.2033   -4.1316    0.2899 H   0  0  0  0  0  0  0  0  0  0  0  0
    1.8728    0.1490    0.3735 H   0  0  0  0  0  0  0  0  0  0  0  0
    5.2237   -1.6835    1.1811 H   0  0  0  0  0  0  0  0  0  0  0  0
    7.3484   -0.5189    1.9144 H   0  0  0  0  0  0  0  0  0  0  0  0
    7.8975    1.6599    1.0002 H   0  0  0  0  0  0  0  0  0  0  0  0
    4.3252    1.5279   -1.2838 H   0  0  0  0  0  0  0  0  0  0  0  0
   -3.2339    4.5958   -1.6704 H   0  0  0  0  0  0  0  0  0  0  0  0
   -3.0916    5.5261   -0.0592 H   0  0  0  0  0  0  0  0  0  0  0  0
  2  1  1  1
  2  3  1  0
  3  4  2  0
  3  5  1  0
  5  6  1  0
  6  7  1  0
  7  8  2  0
  8  9  1  0
  9 10  2  0
 10 11  1  0
 11 12  2  0
  5 13  1  0
 13 14  1  0
 14 15  2  0
 14 16  1  0
 16 17  1  0
 17 18  1  0
 16 19  1  0
 19 20  1  0
 20 21  2  0
 20 22  1  0
 22 23  2  0
 23 24  1  0
 24 25  2  0
 25 26  1  0
 26 27  2  0
 26 28  1  0
  2 29  1  0
 29 30  1  0
 30  2  1  0
 12  7  1  0
 28 22  1  0
  1 31  1  0
  1 32  1  0
  1 33  1  0
  5 34  1  6
  6 35  1  0
  6 36  1  0
  8 37  1  0
  9 38  1  0
 10 39  1  0
 11 40  1  0
 12 41  1  0
 13 42  1  0
 16 43  1  6
 17 44  1  0
 17 45  1  0
 18 46  1  0
 19 47  1  0
 23 48  1  0
 24 49  1  0
 25 50  1  0
 28 51  1  0
 29 52  1  0
 29 53  1  0
M  END
$$$$
