
     RDKit          3D

 30 32  0  0  0  0  0  0  0  0999 V2000
    5.2680   -0.1791    1.7954 N   0  0  0  0  0  0  0  0  0  0  0  0
    4.5509    0.3392    0.6547 C   0  0  0  0  0  0  0  0  0  0  0  0
    4.8542    1.0936   -0.3497 N   0  0  0  0  0  0  0  0  0  0  0  0
    3.1343   -0.0361    0.5381 C   0  0  0  0  0  0  0  0  0  0  0  0
    2.1534    0.7407   -0.0546 C   0  0  0  0  0  0  0  0  0  0  0  0
    0.8502    0.2791   -0.1045 C   0  0  0  0  0  0  0  0  0  0  0  0
    0.4849   -0.9402    0.4198 C   0  0  0  0  0  0  0  0  0  0  0  0
    1.4379   -1.7479    1.0219 C   0  0  0  0  0  0  0  0  0  0  0  0
    2.7224   -1.2436    1.0466 C   0  0  0  0  0  0  0  0  0  0  0  0
   -0.8503   -1.1003    0.2142 N   0  0  0  0  0  0  0  0  0  0  0  0
   -1.3326   -0.0150   -0.4246 C   0  0  0  0  0  0  0  0  0  0  0  0
   -0.2794    0.8277   -0.6163 N   0  0  0  0  0  0  0  0  0  0  0  0
   -2.6954    0.2766   -0.8591 C   0  0  0  0  0  0  0  0  0  0  0  0
   -3.6857   -0.6493   -0.6130 C   0  0  0  0  0  0  0  0  0  0  0  0
   -3.4628   -1.8535    0.0293 O   0  0  0  0  0  0  0  0  0  0  0  0
   -4.9791   -0.3687   -1.0272 C   0  0  0  0  0  0  0  0  0  0  0  0
   -5.2260    0.8310   -1.6724 C   0  0  0  0  0  0  0  0  0  0  0  0
   -4.1709    1.7143   -1.8837 C   0  0  0  0  0  0  0  0  0  0  0  0
   -2.9054    1.4494   -1.4831 N   0  0  0  0  0  0  0  0  0  0  0  0
    5.3242    0.2736    2.7468 H   0  0  0  0  0  0  0  0  0  0  0  0
    5.6362   -1.0446    1.3341 H   0  0  0  0  0  0  0  0  0  0  0  0
    5.8039    1.4867   -0.4877 H   0  0  0  0  0  0  0  0  0  0  0  0
    2.4585    1.6914   -0.4592 H   0  0  0  0  0  0  0  0  0  0  0  0
    1.1933   -2.6956    1.4378 H   0  0  0  0  0  0  0  0  0  0  0  0
    3.4717   -1.8750    1.5182 H   0  0  0  0  0  0  0  0  0  0  0  0
   -0.2712    1.7790   -1.0843 H   0  0  0  0  0  0  0  0  0  0  0  0
   -3.1677   -1.8910    0.9818 H   0  0  0  0  0  0  0  0  0  0  0  0
   -5.8264   -1.0007   -0.8957 H   0  0  0  0  0  0  0  0  0  0  0  0
   -6.1916    1.1874   -2.0542 H   0  0  0  0  0  0  0  0  0  0  0  0
   -4.2998    2.6708   -2.3836 H   0  0  0  0  0  0  0  0  0  0  0  0
  1  2  1  0
  2  3  2  3
  2  4  1  0
  4  5  2  0
  5  6  1  0
  6  7  2  0
  7  8  1  0
  8  9  2  0
  7 10  1  0
 10 11  2  0
 11 12  1  0
 11 13  1  0
 13 14  2  0
 14 15  1  0
 14 16  1  0
 16 17  2  0
 17 18  1  0
 18 19  2  0
  9  4  1  0
 19 13  1  0
 12  6  1  0
  1 20  1  0
  1 21  1  0
  3 22  1  0
  5 23  1  0
  8 24  1  0
  9 25  1  0
 12 26  1  0
 15 27  1  0
 16 28  1  0
 17 29  1  0
 18 30  1  0
M  END
$$$$
