@<TRIPOS>MOLECULE
*****
 30 32 0 0 0
SMALL
GASTEIGER

@<TRIPOS>ATOM
      1 N           5.2680   -0.1791    1.7954 N.pl3   1  UNL1       -0.2466
      2 C           4.5509    0.3392    0.6547 C.2     1  UNL1        0.3082
      3 N           4.8542    1.0936   -0.3497 N.2     1  UNL1       -0.0994
      4 C           3.1343   -0.0361    0.5381 C.ar    1  UNL1        0.0668
      5 C           2.1534    0.7407   -0.0546 C.ar    1  UNL1       -0.0214
      6 C           0.8502    0.2791   -0.1045 C.ar    1  UNL1        0.0673
      7 C           0.4849   -0.9402    0.4198 C.ar    1  UNL1        0.0896
      8 C           1.4379   -1.7479    1.0219 C.ar    1  UNL1       -0.0334
      9 C           2.7224   -1.2436    1.0466 C.ar    1  UNL1       -0.0448
     10 N          -0.8503   -1.1003    0.2142 N.ar    1  UNL1       -0.2260
     11 C          -1.3326   -0.0150   -0.4246 C.ar    1  UNL1        0.1613
     12 N          -0.2794    0.8277   -0.6163 N.ar    1  UNL1       -0.3365
     13 C          -2.6954    0.2766   -0.8591 C.ar    1  UNL1        0.1471
     14 C          -3.6857   -0.6493   -0.6130 C.ar    1  UNL1        0.1457
     15 O          -3.4628   -1.8535    0.0293 O.3     1  UNL1       -0.5045
     16 C          -4.9791   -0.3687   -1.0272 C.ar    1  UNL1       -0.0165
     17 C          -5.2260    0.8310   -1.6724 C.ar    1  UNL1       -0.0401
     18 C          -4.1709    1.7143   -1.8837 C.ar    1  UNL1        0.0286
     19 N          -2.9054    1.4494   -1.4831 N.ar    1  UNL1       -0.2482
     20 H           5.3242    0.2736    2.7468 H       1  UNL1        0.2884
     21 H           5.6362   -1.0446    1.3341 H       1  UNL1        0.2884
     22 H           5.8039    1.4867   -0.4877 H       1  UNL1        0.3633
     23 H           2.4585    1.6914   -0.4592 H       1  UNL1        0.0647
     24 H           1.1933   -2.6956    1.4378 H       1  UNL1        0.0640
     25 H           3.4717   -1.8750    1.5182 H       1  UNL1        0.0627
     26 H          -0.2712    1.7790   -1.0843 H       1  UNL1        0.1674
     27 H          -3.1677   -1.8910    0.9818 H       1  UNL1        0.2922
     28 H          -5.8264   -1.0007   -0.8957 H       1  UNL1        0.0655
     29 H          -6.1916    1.1874   -2.0542 H       1  UNL1        0.0634
     30 H          -4.2998    2.6708   -2.3836 H       1  UNL1        0.0830
@<TRIPOS>BOND
     1     1     2    1
     2     2     3    2
     3     2     4    1
     4     4     5   ar
     5     5     6   ar
     6     6     7   ar
     7     7     8   ar
     8     8     9   ar
     9     7    10   ar
    10    10    11   ar
    11    11    12   ar
    12    11    13    1
    13    13    14   ar
    14    14    15    1
    15    14    16   ar
    16    16    17   ar
    17    17    18   ar
    18    18    19   ar
    19     9     4   ar
    20    19    13   ar
    21    12     6   ar
    22     1    20    1
    23     1    21    1
    24     3    22    1
    25     5    23    1
    26     8    24    1
    27     9    25    1
    28    12    26    1
    29    15    27    1
    30    16    28    1
    31    17    29    1
    32    18    30    1
