@<TRIPOS>MOLECULE
*****
 120 127 0 0 0
SMALL
GASTEIGER

@<TRIPOS>ATOM
      1 C          -7.9584   -2.2011    3.5341 C.3     1  UNL1       -0.0437
      2 C          -8.2381   -2.0975    2.1083 C.2     1  UNL1       -0.0739
      3 C          -9.3565   -2.5290    1.5812 C.2     1  UNL1       -0.0812
      4 C         -10.0271   -1.8921    0.3912 C.3     1  UNL1       -0.0122
      5 C         -10.8517   -0.6991    0.8432 C.3     1  UNL1       -0.0055
      6 C          -9.9381    0.4021    1.2614 C.ar    1  UNL1        0.0248
      7 N         -10.5195    1.3839    1.9887 N.ar    1  UNL1       -0.3259
      8 C          -9.8139    2.4317    2.4370 C.ar    1  UNL1        0.2489
      9 O         -10.4246    3.3169    3.1144 O.2     1  UNL1       -0.2679
     10 C          -8.4786    2.4818    2.1366 C.ar    1  UNL1        0.0031
     11 C          -7.8593    1.4957    1.3974 C.ar    1  UNL1       -0.0498
     12 C          -8.6195    0.4374    0.9562 C.ar    1  UNL1       -0.0039
     13 C          -7.9308   -0.6143    0.1661 C.3     1  UNL1        0.0711
     14 C          -7.2189   -1.4798    1.1984 C.3     1  UNL1       -0.0059
     15 C          -8.9729   -1.4469   -0.5590 C.3     1  UNL1       -0.0083
     16 C          -9.5445   -0.7642   -1.7302 C.3     1  UNL1       -0.0460
     17 C          -9.1575    0.6434   -1.9992 C.3     1  UNL1       -0.0368
     18 C          -7.7626    0.9918   -1.6320 C.3     1  UNL1        0.0156
     19 N          -7.1233   -0.0655   -0.8564 N.am    1  UNL1       -0.2900
     20 C          -5.8325   -0.4303   -1.2031 C.2     1  UNL1        0.2303
     21 O          -5.1837   -1.2905   -0.5747 O.2     1  UNL1       -0.2742
     22 C          -5.1127    0.1779   -2.3657 C.3     1  UNL1        0.0757
     23 N          -3.7776   -0.3469   -2.5565 N.3     1  UNL1       -0.2971
     24 C          -3.8060   -1.7510   -2.9489 C.3     1  UNL1       -0.0123
     25 C          -3.1715    0.3554   -3.6369 C.3     1  UNL1       -0.0009
     26 C          -1.8314    0.0533   -4.0880 C.3     1  UNL1       -0.0402
     27 C          -0.5902    0.2402   -3.3636 C.3     1  UNL1       -0.0519
     28 C          -0.1682   -0.3871   -2.1068 C.3     1  UNL1       -0.0530
     29 C          -0.9031   -0.1130   -0.8718 C.3     1  UNL1       -0.0530
     30 C          -0.2952   -0.6913    0.3558 C.3     1  UNL1       -0.0519
     31 C           0.9561   -0.1697    0.8937 C.3     1  UNL1       -0.0402
     32 C           2.1525   -0.1764    0.0528 C.3     1  UNL1       -0.0009
     33 N           3.3384    0.3040    0.8281 N.3     1  UNL1       -0.2971
     34 C           3.1644    1.7182    1.1108 C.3     1  UNL1       -0.0123
     35 C           4.5332    0.0348    0.0861 C.3     1  UNL1        0.0757
     36 C           5.7805    0.4320    0.7969 C.2     1  UNL1        0.2303
     37 O           5.6290    0.9315    1.9335 O.2     1  UNL1       -0.2742
     38 N           7.0507    0.2677    0.2495 N.am    1  UNL1       -0.2900
     39 C           7.1616   -0.3390   -1.0855 C.3     1  UNL1        0.0156
     40 C           8.2747    0.2663   -1.8867 C.3     1  UNL1       -0.0368
     41 C           8.6745    1.6274   -1.4253 C.3     1  UNL1       -0.0460
     42 C           8.8492    1.7859    0.0408 C.3     1  UNL1       -0.0083
     43 C          10.2611    2.0630    0.4621 C.3     1  UNL1       -0.0122
     44 C          10.2773    2.2652    1.9374 C.2     1  UNL1       -0.0812
     45 C           9.4897    1.5793    2.7564 C.2     1  UNL1       -0.0739
     46 C           9.9384    1.1837    4.1175 C.3     1  UNL1       -0.0437
     47 C           8.1071    1.2103    2.2610 C.3     1  UNL1       -0.0059
     48 C           8.2794    0.6412    0.8686 C.3     1  UNL1        0.0711
     49 C           9.2284   -0.5109    0.9377 C.ar    1  UNL1       -0.0039
     50 C           8.7121   -1.7222    1.3734 C.ar    1  UNL1       -0.0498
     51 C           9.5837   -2.7895    1.4369 C.ar    1  UNL1        0.0031
     52 C          10.9062   -2.6509    1.0819 C.ar    1  UNL1        0.2489
     53 O          11.6897   -3.6343    1.1454 O.2     1  UNL1       -0.2679
     54 N          11.3529   -1.4528    0.6663 N.ar    1  UNL1       -0.3259
     55 C          10.5285   -0.3672    0.5869 C.ar    1  UNL1        0.0248
     56 C          11.1634    0.8918    0.1111 C.3     1  UNL1       -0.0055
     57 H          -7.4215   -3.1321    3.8216 H       1  UNL1        0.0274
     58 H          -8.9355   -2.2677    4.0897 H       1  UNL1        0.0274
     59 H          -7.4709   -1.2979    3.9725 H       1  UNL1        0.0274
     60 H          -9.8431   -3.4124    2.0305 H       1  UNL1        0.0575
     61 H         -10.6831   -2.6298   -0.1073 H       1  UNL1        0.0350
     62 H         -11.4285   -1.0018    1.7376 H       1  UNL1        0.0333
     63 H         -11.5067   -0.3931    0.0129 H       1  UNL1        0.0333
     64 H         -11.5496    1.3503    2.2240 H       1  UNL1        0.1686
     65 H          -7.9310    3.3444    2.5161 H       1  UNL1        0.0672
     66 H          -6.8017    1.6094    1.2041 H       1  UNL1        0.0623
     67 H          -6.5463   -0.8877    1.8329 H       1  UNL1        0.0334
     68 H          -6.6148   -2.2929    0.7493 H       1  UNL1        0.0334
     69 H          -8.3986   -2.3604   -0.8956 H       1  UNL1        0.0331
     70 H         -10.6750   -0.8535   -1.7644 H       1  UNL1        0.0269
     71 H          -9.2471   -1.3444   -2.6616 H       1  UNL1        0.0269
     72 H          -9.8557    1.3124   -1.4528 H       1  UNL1        0.0280
     73 H          -9.3073    0.9313   -3.0765 H       1  UNL1        0.0280
     74 H          -7.1692    1.2581   -2.5250 H       1  UNL1        0.0465
     75 H          -7.7743    1.9212   -1.0133 H       1  UNL1        0.0465
     76 H          -5.0053    1.2686   -2.1864 H       1  UNL1        0.0522
     77 H          -5.6798    0.0753   -3.3094 H       1  UNL1        0.0522
     78 H          -3.6814   -1.8698   -4.0339 H       1  UNL1        0.0391
     79 H          -2.9109   -2.2197   -2.4436 H       1  UNL1        0.0391
     80 H          -4.6808   -2.2994   -2.6066 H       1  UNL1        0.0391
     81 H          -3.8870    0.2873   -4.5323 H       1  UNL1        0.0427
     82 H          -3.2093    1.4866   -3.4264 H       1  UNL1        0.0427
     83 H          -1.6966    0.6924   -5.0648 H       1  UNL1        0.0278
     84 H          -1.8033   -0.9895   -4.6163 H       1  UNL1        0.0278
     85 H           0.2495    0.0216   -4.1507 H       1  UNL1        0.0266
     86 H          -0.3929    1.3962   -3.2778 H       1  UNL1        0.0266
     87 H           0.9494   -0.4182   -2.0577 H       1  UNL1        0.0265
     88 H          -0.3332   -1.5688   -2.2364 H       1  UNL1        0.0265
     89 H          -1.9439   -0.5721   -0.9702 H       1  UNL1        0.0265
     90 H          -1.1528    0.9776   -0.7220 H       1  UNL1        0.0265
     91 H          -0.2398   -1.8326    0.2315 H       1  UNL1        0.0266
     92 H          -1.0965   -0.6001    1.1593 H       1  UNL1        0.0266
     93 H           0.7391    0.9015    1.2363 H       1  UNL1        0.0278
     94 H           1.1680   -0.7646    1.8472 H       1  UNL1        0.0278
     95 H           2.0918    0.6671   -0.7089 H       1  UNL1        0.0427
     96 H           2.3941   -1.1456   -0.3522 H       1  UNL1        0.0427
     97 H           2.8517    1.8215    2.1497 H       1  UNL1        0.0391
     98 H           4.0950    2.2337    0.8320 H       1  UNL1        0.0391
     99 H           2.3896    2.0941    0.3905 H       1  UNL1        0.0391
    100 H           4.6360   -1.0369   -0.1743 H       1  UNL1        0.0522
    101 H           4.4355    0.5785   -0.8977 H       1  UNL1        0.0522
    102 H           6.2002   -0.4111   -1.5953 H       1  UNL1        0.0465
    103 H           7.4682   -1.4041   -0.8622 H       1  UNL1        0.0465
    104 H           9.1537   -0.4032   -1.9758 H       1  UNL1        0.0280
    105 H           7.8873    0.3740   -2.9422 H       1  UNL1        0.0280
    106 H           7.9703    2.3836   -1.8661 H       1  UNL1        0.0269
    107 H           9.6671    1.8733   -1.8995 H       1  UNL1        0.0269
    108 H           8.2460    2.6885    0.3542 H       1  UNL1        0.0331
    109 H          10.6498    2.9660   -0.0462 H       1  UNL1        0.0350
    110 H          10.9619    3.0062    2.3935 H       1  UNL1        0.0575
    111 H           9.8274    2.0138    4.8450 H       1  UNL1        0.0274
    112 H          11.0081    0.8778    4.1334 H       1  UNL1        0.0274
    113 H           9.3578    0.2845    4.4243 H       1  UNL1        0.0274
    114 H           7.5284    2.1619    2.1520 H       1  UNL1        0.0334
    115 H           7.6419    0.5446    2.9776 H       1  UNL1        0.0334
    116 H           7.6771   -1.7982    1.6424 H       1  UNL1        0.0623
    117 H           9.1916   -3.7356    1.7745 H       1  UNL1        0.0672
    118 H          12.3597   -1.3915    0.4079 H       1  UNL1        0.1686
    119 H          11.3407    0.8976   -0.9832 H       1  UNL1        0.0333
    120 H          12.1212    1.0329    0.6489 H       1  UNL1        0.0333
@<TRIPOS>BOND
     1     1     2    1
     2     2     3    2
     3     3     4    1
     4     4     5    1
     5     5     6    1
     6     6     7   ar
     7     7     8   ar
     8     8     9    2
     9     8    10   ar
    10    10    11   ar
    11    11    12   ar
    12    12    13    1
    13    13    14    1
    14    13    15    1
    15    15    16    1
    16    16    17    1
    17    17    18    1
    18    18    19    1
    19    19    20   am
    20    20    21    2
    21    20    22    1
    22    22    23    1
    23    23    24    1
    24    23    25    1
    25    25    26    1
    26    26    27    1
    27    27    28    1
    28    28    29    1
    29    29    30    1
    30    30    31    1
    31    31    32    1
    32    32    33    1
    33    33    34    1
    34    33    35    1
    35    35    36    1
    36    36    37    2
    37    36    38   am
    38    38    39    1
    39    39    40    1
    40    40    41    1
    41    41    42    1
    42    42    43    1
    43    43    44    1
    44    44    45    2
    45    45    46    1
    46    45    47    1
    47    47    48    1
    48    48    49    1
    49    49    50   ar
    50    50    51   ar
    51    51    52   ar
    52    52    53    2
    53    52    54   ar
    54    54    55   ar
    55    55    56    1
    56    14     2    1
    57    48    38    1
    58    55    49   ar
    59    15     4    1
    60    48    42    1
    61    12     6   ar
    62    13    19    1
    63    56    43    1
    64     1    57    1
    65     1    58    1
    66     1    59    1
    67     3    60    1
    68     4    61    1
    69     5    62    1
    70     5    63    1
    71     7    64    1
    72    10    65    1
    73    11    66    1
    74    14    67    1
    75    14    68    1
    76    15    69    1
    77    16    70    1
    78    16    71    1
    79    17    72    1
    80    17    73    1
    81    18    74    1
    82    18    75    1
    83    22    76    1
    84    22    77    1
    85    24    78    1
    86    24    79    1
    87    24    80    1
    88    25    81    1
    89    25    82    1
    90    26    83    1
    91    26    84    1
    92    27    85    1
    93    27    86    1
    94    28    87    1
    95    28    88    1
    96    29    89    1
    97    29    90    1
    98    30    91    1
    99    30    92    1
   100    31    93    1
   101    31    94    1
   102    32    95    1
   103    32    96    1
   104    34    97    1
   105    34    98    1
   106    34    99    1
   107    35   100    1
   108    35   101    1
   109    39   102    1
   110    39   103    1
   111    40   104    1
   112    40   105    1
   113    41   106    1
   114    41   107    1
   115    42   108    1
   116    43   109    1
   117    44   110    1
   118    46   111    1
   119    46   112    1
   120    46   113    1
   121    47   114    1
   122    47   115    1
   123    50   116    1
   124    51   117    1
   125    54   118    1
   126    56   119    1
   127    56   120    1
