
     RDKit          3D

120127  0  0  0  0  0  0  0  0999 V2000
   -7.9584   -2.2011    3.5341 C   0  0  0  0  0  0  0  0  0  0  0  0
   -8.2381   -2.0975    2.1083 C   0  0  0  0  0  0  0  0  0  0  0  0
   -9.3565   -2.5290    1.5812 C   0  0  0  0  0  0  0  0  0  0  0  0
  -10.0271   -1.8921    0.3912 C   0  0  0  0  0  0  0  0  0  0  0  0
  -10.8517   -0.6991    0.8432 C   0  0  0  0  0  0  0  0  0  0  0  0
   -9.9381    0.4021    1.2614 C   0  0  0  0  0  0  0  0  0  0  0  0
  -10.5195    1.3839    1.9887 N   0  0  0  0  0  0  0  0  0  0  0  0
   -9.8139    2.4317    2.4370 C   0  0  0  0  0  0  0  0  0  0  0  0
  -10.4246    3.3169    3.1144 O   0  0  0  0  0  0  0  0  0  0  0  0
   -8.4786    2.4818    2.1366 C   0  0  0  0  0  0  0  0  0  0  0  0
   -7.8593    1.4957    1.3974 C   0  0  0  0  0  0  0  0  0  0  0  0
   -8.6195    0.4374    0.9562 C   0  0  0  0  0  0  0  0  0  0  0  0
   -7.9308   -0.6143    0.1661 C   0  0  1  0  0  0  0  0  0  0  0  0
   -7.2189   -1.4798    1.1984 C   0  0  0  0  0  0  0  0  0  0  0  0
   -8.9729   -1.4469   -0.5590 C   0  0  2  0  0  0  0  0  0  0  0  0
   -9.5445   -0.7642   -1.7302 C   0  0  0  0  0  0  0  0  0  0  0  0
   -9.1575    0.6434   -1.9992 C   0  0  0  0  0  0  0  0  0  0  0  0
   -7.7626    0.9918   -1.6320 C   0  0  0  0  0  0  0  0  0  0  0  0
   -7.1233   -0.0655   -0.8564 N   0  0  0  0  0  0  0  0  0  0  0  0
   -5.8325   -0.4303   -1.2031 C   0  0  0  0  0  0  0  0  0  0  0  0
   -5.1837   -1.2905   -0.5747 O   0  0  0  0  0  0  0  0  0  0  0  0
   -5.1127    0.1779   -2.3657 C   0  0  0  0  0  0  0  0  0  0  0  0
   -3.7776   -0.3469   -2.5565 N   0  0  0  0  0  0  0  0  0  0  0  0
   -3.8060   -1.7510   -2.9489 C   0  0  0  0  0  0  0  0  0  0  0  0
   -3.1715    0.3554   -3.6369 C   0  0  0  0  0  0  0  0  0  0  0  0
   -1.8314    0.0533   -4.0880 C   0  0  0  0  0  0  0  0  0  0  0  0
   -0.5902    0.2402   -3.3636 C   0  0  0  0  0  0  0  0  0  0  0  0
   -0.1682   -0.3871   -2.1068 C   0  0  0  0  0  0  0  0  0  0  0  0
   -0.9031   -0.1130   -0.8718 C   0  0  0  0  0  0  0  0  0  0  0  0
   -0.2952   -0.6913    0.3558 C   0  0  0  0  0  0  0  0  0  0  0  0
    0.9561   -0.1697    0.8937 C   0  0  0  0  0  0  0  0  0  0  0  0
    2.1525   -0.1764    0.0528 C   0  0  0  0  0  0  0  0  0  0  0  0
    3.3384    0.3040    0.8281 N   0  0  0  0  0  0  0  0  0  0  0  0
    3.1644    1.7182    1.1108 C   0  0  0  0  0  0  0  0  0  0  0  0
    4.5332    0.0348    0.0861 C   0  0  0  0  0  0  0  0  0  0  0  0
    5.7805    0.4320    0.7969 C   0  0  0  0  0  0  0  0  0  0  0  0
    5.6290    0.9315    1.9335 O   0  0  0  0  0  0  0  0  0  0  0  0
    7.0507    0.2677    0.2495 N   0  0  0  0  0  0  0  0  0  0  0  0
    7.1616   -0.3390   -1.0855 C   0  0  0  0  0  0  0  0  0  0  0  0
    8.2747    0.2663   -1.8867 C   0  0  0  0  0  0  0  0  0  0  0  0
    8.6745    1.6274   -1.4253 C   0  0  0  0  0  0  0  0  0  0  0  0
    8.8492    1.7859    0.0408 C   0  0  2  0  0  0  0  0  0  0  0  0
   10.2611    2.0630    0.4621 C   0  0  0  0  0  0  0  0  0  0  0  0
   10.2773    2.2652    1.9374 C   0  0  0  0  0  0  0  0  0  0  0  0
    9.4897    1.5793    2.7564 C   0  0  0  0  0  0  0  0  0  0  0  0
    9.9384    1.1837    4.1175 C   0  0  0  0  0  0  0  0  0  0  0  0
    8.1071    1.2103    2.2610 C   0  0  0  0  0  0  0  0  0  0  0  0
    8.2794    0.6412    0.8686 C   0  0  1  0  0  0  0  0  0  0  0  0
    9.2284   -0.5109    0.9377 C   0  0  0  0  0  0  0  0  0  0  0  0
    8.7121   -1.7222    1.3734 C   0  0  0  0  0  0  0  0  0  0  0  0
    9.5837   -2.7895    1.4369 C   0  0  0  0  0  0  0  0  0  0  0  0
   10.9062   -2.6509    1.0819 C   0  0  0  0  0  0  0  0  0  0  0  0
   11.6897   -3.6343    1.1454 O   0  0  0  0  0  0  0  0  0  0  0  0
   11.3529   -1.4528    0.6663 N   0  0  0  0  0  0  0  0  0  0  0  0
   10.5285   -0.3672    0.5869 C   0  0  0  0  0  0  0  0  0  0  0  0
   11.1634    0.8918    0.1111 C   0  0  0  0  0  0  0  0  0  0  0  0
   -7.4215   -3.1321    3.8216 H   0  0  0  0  0  0  0  0  0  0  0  0
   -8.9355   -2.2677    4.0897 H   0  0  0  0  0  0  0  0  0  0  0  0
   -7.4709   -1.2979    3.9725 H   0  0  0  0  0  0  0  0  0  0  0  0
   -9.8431   -3.4124    2.0305 H   0  0  0  0  0  0  0  0  0  0  0  0
  -10.6831   -2.6298   -0.1073 H   0  0  0  0  0  0  0  0  0  0  0  0
  -11.4285   -1.0018    1.7376 H   0  0  0  0  0  0  0  0  0  0  0  0
  -11.5067   -0.3931    0.0129 H   0  0  0  0  0  0  0  0  0  0  0  0
  -11.5496    1.3503    2.2240 H   0  0  0  0  0  0  0  0  0  0  0  0
   -7.9310    3.3444    2.5161 H   0  0  0  0  0  0  0  0  0  0  0  0
   -6.8017    1.6094    1.2041 H   0  0  0  0  0  0  0  0  0  0  0  0
   -6.5463   -0.8877    1.8329 H   0  0  0  0  0  0  0  0  0  0  0  0
   -6.6148   -2.2929    0.7493 H   0  0  0  0  0  0  0  0  0  0  0  0
   -8.3986   -2.3604   -0.8956 H   0  0  0  0  0  0  0  0  0  0  0  0
  -10.6750   -0.8535   -1.7644 H   0  0  0  0  0  0  0  0  0  0  0  0
   -9.2471   -1.3444   -2.6616 H   0  0  0  0  0  0  0  0  0  0  0  0
   -9.8557    1.3124   -1.4528 H   0  0  0  0  0  0  0  0  0  0  0  0
   -9.3073    0.9313   -3.0765 H   0  0  0  0  0  0  0  0  0  0  0  0
   -7.1692    1.2581   -2.5250 H   0  0  0  0  0  0  0  0  0  0  0  0
   -7.7743    1.9212   -1.0133 H   0  0  0  0  0  0  0  0  0  0  0  0
   -5.0053    1.2686   -2.1864 H   0  0  0  0  0  0  0  0  0  0  0  0
   -5.6798    0.0753   -3.3094 H   0  0  0  0  0  0  0  0  0  0  0  0
   -3.6814   -1.8698   -4.0339 H   0  0  0  0  0  0  0  0  0  0  0  0
   -2.9109   -2.2197   -2.4436 H   0  0  0  0  0  0  0  0  0  0  0  0
   -4.6808   -2.2994   -2.6066 H   0  0  0  0  0  0  0  0  0  0  0  0
   -3.8870    0.2873   -4.5323 H   0  0  0  0  0  0  0  0  0  0  0  0
   -3.2093    1.4866   -3.4264 H   0  0  0  0  0  0  0  0  0  0  0  0
   -1.6966    0.6924   -5.0648 H   0  0  0  0  0  0  0  0  0  0  0  0
   -1.8033   -0.9895   -4.6163 H   0  0  0  0  0  0  0  0  0  0  0  0
    0.2495    0.0216   -4.1507 H   0  0  0  0  0  0  0  0  0  0  0  0
   -0.3929    1.3962   -3.2778 H   0  0  0  0  0  0  0  0  0  0  0  0
    0.9494   -0.4182   -2.0577 H   0  0  0  0  0  0  0  0  0  0  0  0
   -0.3332   -1.5688   -2.2364 H   0  0  0  0  0  0  0  0  0  0  0  0
   -1.9439   -0.5721   -0.9702 H   0  0  0  0  0  0  0  0  0  0  0  0
   -1.1528    0.9776   -0.7220 H   0  0  0  0  0  0  0  0  0  0  0  0
   -0.2398   -1.8326    0.2315 H   0  0  0  0  0  0  0  0  0  0  0  0
   -1.0965   -0.6001    1.1593 H   0  0  0  0  0  0  0  0  0  0  0  0
    0.7391    0.9015    1.2363 H   0  0  0  0  0  0  0  0  0  0  0  0
    1.1680   -0.7646    1.8472 H   0  0  0  0  0  0  0  0  0  0  0  0
    2.0918    0.6671   -0.7089 H   0  0  0  0  0  0  0  0  0  0  0  0
    2.3941   -1.1456   -0.3522 H   0  0  0  0  0  0  0  0  0  0  0  0
    2.8517    1.8215    2.1497 H   0  0  0  0  0  0  0  0  0  0  0  0
    4.0950    2.2337    0.8320 H   0  0  0  0  0  0  0  0  0  0  0  0
    2.3896    2.0941    0.3905 H   0  0  0  0  0  0  0  0  0  0  0  0
    4.6360   -1.0369   -0.1743 H   0  0  0  0  0  0  0  0  0  0  0  0
    4.4355    0.5785   -0.8977 H   0  0  0  0  0  0  0  0  0  0  0  0
    6.2002   -0.4111   -1.5953 H   0  0  0  0  0  0  0  0  0  0  0  0
    7.4682   -1.4041   -0.8622 H   0  0  0  0  0  0  0  0  0  0  0  0
    9.1537   -0.4032   -1.9758 H   0  0  0  0  0  0  0  0  0  0  0  0
    7.8873    0.3740   -2.9422 H   0  0  0  0  0  0  0  0  0  0  0  0
    7.9703    2.3836   -1.8661 H   0  0  0  0  0  0  0  0  0  0  0  0
    9.6671    1.8733   -1.8995 H   0  0  0  0  0  0  0  0  0  0  0  0
    8.2460    2.6885    0.3542 H   0  0  0  0  0  0  0  0  0  0  0  0
   10.6498    2.9660   -0.0462 H   0  0  0  0  0  0  0  0  0  0  0  0
   10.9619    3.0062    2.3935 H   0  0  0  0  0  0  0  0  0  0  0  0
    9.8274    2.0138    4.8450 H   0  0  0  0  0  0  0  0  0  0  0  0
   11.0081    0.8778    4.1334 H   0  0  0  0  0  0  0  0  0  0  0  0
    9.3578    0.2845    4.4243 H   0  0  0  0  0  0  0  0  0  0  0  0
    7.5284    2.1619    2.1520 H   0  0  0  0  0  0  0  0  0  0  0  0
    7.6419    0.5446    2.9776 H   0  0  0  0  0  0  0  0  0  0  0  0
    7.6771   -1.7982    1.6424 H   0  0  0  0  0  0  0  0  0  0  0  0
    9.1916   -3.7356    1.7745 H   0  0  0  0  0  0  0  0  0  0  0  0
   12.3597   -1.3915    0.4079 H   0  0  0  0  0  0  0  0  0  0  0  0
   11.3407    0.8976   -0.9832 H   0  0  0  0  0  0  0  0  0  0  0  0
   12.1212    1.0329    0.6489 H   0  0  0  0  0  0  0  0  0  0  0  0
  1  2  1  0
  2  3  2  0
  3  4  1  0
  4  5  1  0
  5  6  1  0
  6  7  1  0
  7  8  1  0
  8  9  2  0
  8 10  1  0
 10 11  2  0
 11 12  1  0
 12 13  1  0
 13 14  1  0
 13 15  1  0
 15 16  1  0
 16 17  1  0
 17 18  1  0
 18 19  1  0
 19 20  1  0
 20 21  2  0
 20 22  1  0
 22 23  1  0
 23 24  1  0
 23 25  1  0
 25 26  1  0
 26 27  1  0
 27 28  1  0
 28 29  1  0
 29 30  1  0
 30 31  1  0
 31 32  1  0
 32 33  1  0
 33 34  1  0
 33 35  1  0
 35 36  1  0
 36 37  2  0
 36 38  1  0
 38 39  1  0
 39 40  1  0
 40 41  1  0
 41 42  1  0
 42 43  1  0
 43 44  1  0
 44 45  2  0
 45 46  1  0
 45 47  1  0
 47 48  1  0
 48 49  1  0
 49 50  1  0
 50 51  2  0
 51 52  1  0
 52 53  2  0
 52 54  1  0
 54 55  1  0
 55 56  1  0
 14  2  1  0
 48 38  1  6
 55 49  2  0
 15  4  1  0
 48 42  1  0
 12  6  2  0
 13 19  1  6
 56 43  1  0
  1 57  1  0
  1 58  1  0
  1 59  1  0
  3 60  1  0
  4 61  1  0
  5 62  1  0
  5 63  1  0
  7 64  1  0
 10 65  1  0
 11 66  1  0
 14 67  1  0
 14 68  1  0
 15 69  1  6
 16 70  1  0
 16 71  1  0
 17 72  1  0
 17 73  1  0
 18 74  1  0
 18 75  1  0
 22 76  1  0
 22 77  1  0
 24 78  1  0
 24 79  1  0
 24 80  1  0
 25 81  1  0
 25 82  1  0
 26 83  1  0
 26 84  1  0
 27 85  1  0
 27 86  1  0
 28 87  1  0
 28 88  1  0
 29 89  1  0
 29 90  1  0
 30 91  1  0
 30 92  1  0
 31 93  1  0
 31 94  1  0
 32 95  1  0
 32 96  1  0
 34 97  1  0
 34 98  1  0
 34 99  1  0
 35100  1  0
 35101  1  0
 39102  1  0
 39103  1  0
 40104  1  0
 40105  1  0
 41106  1  0
 41107  1  0
 42108  1  1
 43109  1  0
 44110  1  0
 46111  1  0
 46112  1  0
 46113  1  0
 47114  1  0
 47115  1  0
 50116  1  0
 51117  1  0
 54118  1  0
 56119  1  0
 56120  1  0
M  END
$$$$
