@<TRIPOS>MOLECULE
*****
 38 40 0 0 0
SMALL
GASTEIGER

@<TRIPOS>ATOM
      1 C           5.1712   -1.2513    0.8098 C.3     1  UNL1        0.0788
      2 O           4.1892   -1.5861   -0.1430 O.3     1  UNL1       -0.4951
      3 C           3.0318   -0.8462   -0.2517 C.ar    1  UNL1        0.1201
      4 C           2.0639   -1.1625   -1.1789 C.ar    1  UNL1       -0.0194
      5 C           0.8956   -0.4428   -1.3130 C.ar    1  UNL1       -0.0505
      6 C           0.6606    0.6450   -0.4966 C.ar    1  UNL1       -0.0139
      7 C           1.6324    0.9770    0.4473 C.ar    1  UNL1       -0.0505
      8 C           2.8064    0.2478    0.5766 C.ar    1  UNL1       -0.0194
      9 C          -0.4889    1.5417   -0.4607 C.ar    1  UNL1        0.0302
     10 C          -0.5500    2.9000   -0.7020 C.ar    1  UNL1        0.0413
     11 C           0.6076    3.7487   -1.0642 C.3     1  UNL1       -0.0223
     12 N          -1.8312    3.2548   -0.5418 N.ar    1  UNL1       -0.2807
     13 N          -2.5390    2.1990   -0.2209 N.ar    1  UNL1       -0.1729
     14 C          -1.7586    1.0993   -0.1545 C.ar    1  UNL1        0.1039
     15 C          -2.3034   -0.1986    0.1818 C.ar    1  UNL1        0.0443
     16 C          -2.0035   -0.9887    1.2723 C.ar    1  UNL1        0.1295
     17 O          -1.0535   -0.4506    2.1496 O.3     1  UNL1       -0.5060
     18 C          -2.5989   -2.2153    1.4763 C.ar    1  UNL1        0.0220
     19 C          -3.5325   -2.6348    0.5217 C.ar    1  UNL1        0.1204
     20 O          -4.1536   -3.8526    0.6822 O.3     1  UNL1       -0.5066
     21 C          -3.8680   -1.8808   -0.5882 C.ar    1  UNL1       -0.0193
     22 C          -3.2389   -0.6511   -0.7477 C.ar    1  UNL1       -0.0455
     23 H           4.8218   -1.4931    1.8256 H       1  UNL1        0.0660
     24 H           6.0424   -1.8889    0.6016 H       1  UNL1        0.0660
     25 H           5.4552   -0.1804    0.7212 H       1  UNL1        0.0660
     26 H           2.1973   -2.0039   -1.8431 H       1  UNL1        0.0654
     27 H           0.0934   -0.6266   -2.0118 H       1  UNL1        0.0625
     28 H           1.5802    1.8073    1.1553 H       1  UNL1        0.0625
     29 H           3.5802    0.4760    1.2960 H       1  UNL1        0.0654
     30 H           1.3179    3.1300   -1.6308 H       1  UNL1        0.0292
     31 H           1.1064    4.2086   -0.1862 H       1  UNL1        0.0292
     32 H           0.2805    4.5594   -1.7769 H       1  UNL1        0.0292
     33 H          -2.2075    4.2175   -0.6541 H       1  UNL1        0.1885
     34 H          -0.7463   -1.0146    2.9275 H       1  UNL1        0.2922
     35 H          -2.3387   -2.8039    2.3407 H       1  UNL1        0.0691
     36 H          -4.1842   -4.4968   -0.0770 H       1  UNL1        0.2921
     37 H          -4.5970   -2.2456   -1.3009 H       1  UNL1        0.0654
     38 H          -3.5403   -0.0969   -1.6416 H       1  UNL1        0.0626
@<TRIPOS>BOND
     1     1     2    1
     2     2     3    1
     3     3     4   ar
     4     4     5   ar
     5     5     6   ar
     6     6     7   ar
     7     7     8   ar
     8     6     9    1
     9     9    10   ar
    10    10    11    1
    11    10    12   ar
    12    12    13   ar
    13    13    14   ar
    14    14    15    1
    15    15    16   ar
    16    16    17    1
    17    16    18   ar
    18    18    19   ar
    19    19    20    1
    20    19    21   ar
    21    21    22   ar
    22     8     3   ar
    23    14     9   ar
    24    22    15   ar
    25     1    23    1
    26     1    24    1
    27     1    25    1
    28     4    26    1
    29     5    27    1
    30     7    28    1
    31     8    29    1
    32    11    30    1
    33    11    31    1
    34    11    32    1
    35    12    33    1
    36    17    34    1
    37    18    35    1
    38    20    36    1
    39    21    37    1
    40    22    38    1
