
     RDKit          3D

 38 40  0  0  0  0  0  0  0  0999 V2000
    5.1712   -1.2513    0.8098 C   0  0  0  0  0  0  0  0  0  0  0  0
    4.1892   -1.5861   -0.1430 O   0  0  0  0  0  0  0  0  0  0  0  0
    3.0318   -0.8462   -0.2517 C   0  0  0  0  0  0  0  0  0  0  0  0
    2.0639   -1.1625   -1.1789 C   0  0  0  0  0  0  0  0  0  0  0  0
    0.8956   -0.4428   -1.3130 C   0  0  0  0  0  0  0  0  0  0  0  0
    0.6606    0.6450   -0.4966 C   0  0  0  0  0  0  0  0  0  0  0  0
    1.6324    0.9770    0.4473 C   0  0  0  0  0  0  0  0  0  0  0  0
    2.8064    0.2478    0.5766 C   0  0  0  0  0  0  0  0  0  0  0  0
   -0.4889    1.5417   -0.4607 C   0  0  0  0  0  0  0  0  0  0  0  0
   -0.5500    2.9000   -0.7020 C   0  0  0  0  0  0  0  0  0  0  0  0
    0.6076    3.7487   -1.0642 C   0  0  0  0  0  0  0  0  0  0  0  0
   -1.8312    3.2548   -0.5418 N   0  0  0  0  0  0  0  0  0  0  0  0
   -2.5390    2.1990   -0.2209 N   0  0  0  0  0  0  0  0  0  0  0  0
   -1.7586    1.0993   -0.1545 C   0  0  0  0  0  0  0  0  0  0  0  0
   -2.3034   -0.1986    0.1818 C   0  0  0  0  0  0  0  0  0  0  0  0
   -2.0035   -0.9887    1.2723 C   0  0  0  0  0  0  0  0  0  0  0  0
   -1.0535   -0.4506    2.1496 O   0  0  0  0  0  0  0  0  0  0  0  0
   -2.5989   -2.2153    1.4763 C   0  0  0  0  0  0  0  0  0  0  0  0
   -3.5325   -2.6348    0.5217 C   0  0  0  0  0  0  0  0  0  0  0  0
   -4.1536   -3.8526    0.6822 O   0  0  0  0  0  0  0  0  0  0  0  0
   -3.8680   -1.8808   -0.5882 C   0  0  0  0  0  0  0  0  0  0  0  0
   -3.2389   -0.6511   -0.7477 C   0  0  0  0  0  0  0  0  0  0  0  0
    4.8218   -1.4931    1.8256 H   0  0  0  0  0  0  0  0  0  0  0  0
    6.0424   -1.8889    0.6016 H   0  0  0  0  0  0  0  0  0  0  0  0
    5.4552   -0.1804    0.7212 H   0  0  0  0  0  0  0  0  0  0  0  0
    2.1973   -2.0039   -1.8431 H   0  0  0  0  0  0  0  0  0  0  0  0
    0.0934   -0.6266   -2.0118 H   0  0  0  0  0  0  0  0  0  0  0  0
    1.5802    1.8073    1.1553 H   0  0  0  0  0  0  0  0  0  0  0  0
    3.5802    0.4760    1.2960 H   0  0  0  0  0  0  0  0  0  0  0  0
    1.3179    3.1300   -1.6308 H   0  0  0  0  0  0  0  0  0  0  0  0
    1.1064    4.2086   -0.1862 H   0  0  0  0  0  0  0  0  0  0  0  0
    0.2805    4.5594   -1.7769 H   0  0  0  0  0  0  0  0  0  0  0  0
   -2.2075    4.2175   -0.6541 H   0  0  0  0  0  0  0  0  0  0  0  0
   -0.7463   -1.0146    2.9275 H   0  0  0  0  0  0  0  0  0  0  0  0
   -2.3387   -2.8039    2.3407 H   0  0  0  0  0  0  0  0  0  0  0  0
   -4.1842   -4.4968   -0.0770 H   0  0  0  0  0  0  0  0  0  0  0  0
   -4.5970   -2.2456   -1.3009 H   0  0  0  0  0  0  0  0  0  0  0  0
   -3.5403   -0.0969   -1.6416 H   0  0  0  0  0  0  0  0  0  0  0  0
  1  2  1  0
  2  3  1  0
  3  4  2  0
  4  5  1  0
  5  6  2  0
  6  7  1  0
  7  8  2  0
  6  9  1  0
  9 10  2  0
 10 11  1  0
 10 12  1  0
 12 13  1  0
 13 14  2  0
 14 15  1  0
 15 16  2  0
 16 17  1  0
 16 18  1  0
 18 19  2  0
 19 20  1  0
 19 21  1  0
 21 22  2  0
  8  3  1  0
 14  9  1  0
 22 15  1  0
  1 23  1  0
  1 24  1  0
  1 25  1  0
  4 26  1  0
  5 27  1  0
  7 28  1  0
  8 29  1  0
 11 30  1  0
 11 31  1  0
 11 32  1  0
 12 33  1  0
 17 34  1  0
 18 35  1  0
 20 36  1  0
 21 37  1  0
 22 38  1  0
M  END
$$$$
