@<TRIPOS>MOLECULE
*****
 58 62 0 0 0
SMALL
GASTEIGER

@<TRIPOS>ATOM
      1 O          -1.2248    1.9038    0.9726 O.2     1  UNL1       -0.2526
      2 C          -0.9873    0.7251    0.6066 C.2     1  UNL1        0.3024
      3 N          -2.0918   -0.0734    0.2091 N.am    1  UNL1       -0.2964
      4 C          -3.4751    0.4110    0.2080 C.3     1  UNL1        0.0252
      5 C          -4.3323   -0.3816    1.1452 C.3     1  UNL1       -0.0304
      6 C          -5.6352    0.3749    1.4003 C.3     1  UNL1       -0.0257
      7 C          -6.5646   -0.1080    0.3175 C.ar    1  UNL1       -0.0441
      8 C          -7.8801   -0.0550    0.7036 C.ar    1  UNL1       -0.0583
      9 C          -8.8841   -0.4658   -0.1707 C.ar    1  UNL1       -0.0615
     10 C          -8.5663   -0.9265   -1.4238 C.ar    1  UNL1       -0.0615
     11 C          -7.2254   -0.9712   -1.7930 C.ar    1  UNL1       -0.0583
     12 C          -6.2263   -0.5732   -0.9511 C.ar    1  UNL1       -0.0441
     13 C          -4.8850   -0.6973   -1.5332 C.3     1  UNL1       -0.0257
     14 C          -3.9990    0.4802   -1.1908 C.3     1  UNL1       -0.0304
     15 N           0.3524    0.2299    0.5996 N.am    1  UNL1       -0.2856
     16 C           1.4290    1.1140    1.0232 C.3     1  UNL1        0.0168
     17 C           2.3887    0.2565    1.8264 C.3     1  UNL1       -0.0257
     18 C           3.0627   -0.6873    0.8384 C.3     1  UNL1        0.0410
     19 C           4.2847    0.0025    0.3005 C.ar    1  UNL1        0.2309
     20 N           5.5599   -0.3949    0.4569 N.ar    1  UNL1       -0.1898
     21 C           6.3866    0.4801   -0.1691 C.ar    1  UNL1        0.2204
     22 C           7.8410    0.4635   -0.2706 C.ar    1  UNL1        0.1111
     23 C           8.4714    0.8235   -1.4372 C.ar    1  UNL1       -0.0325
     24 C           9.8389    0.8263   -1.5874 C.ar    1  UNL1       -0.0582
     25 C          10.6214    0.4502   -0.5178 C.ar    1  UNL1       -0.0436
     26 C           9.9667    0.0888    0.6556 C.ar    1  UNL1        0.0284
     27 N           8.6232    0.0994    0.7621 N.ar    1  UNL1       -0.2517
     28 N           5.5709    1.4058   -0.7005 N.ar    1  UNL1       -0.0545
     29 O           4.3351    1.1009   -0.4088 O.2     1  UNL1       -0.3374
     30 C           2.1509   -1.0869   -0.2804 C.3     1  UNL1       -0.0257
     31 C           0.7050   -1.0951    0.1982 C.3     1  UNL1        0.0168
     32 H          -1.8657   -1.0534   -0.0919 H       1  UNL1        0.1505
     33 H          -3.3945    1.4788    0.5721 H       1  UNL1        0.0499
     34 H          -3.7817   -0.4121    2.1273 H       1  UNL1        0.0286
     35 H          -4.5118   -1.4060    0.7888 H       1  UNL1        0.0286
     36 H          -6.0352    0.2105    2.3995 H       1  UNL1        0.0314
     37 H          -5.4335    1.4399    1.1816 H       1  UNL1        0.0314
     38 H          -8.1346    0.3041    1.6818 H       1  UNL1        0.0620
     39 H          -9.9274   -0.4261    0.1290 H       1  UNL1        0.0618
     40 H          -9.3539   -1.2431   -2.0960 H       1  UNL1        0.0618
     41 H          -7.0256   -1.3399   -2.7866 H       1  UNL1        0.0620
     42 H          -4.4247   -1.6604   -1.2598 H       1  UNL1        0.0314
     43 H          -4.9953   -0.7061   -2.6423 H       1  UNL1        0.0314
     44 H          -4.5631    1.4174   -1.3362 H       1  UNL1        0.0286
     45 H          -3.1903    0.4908   -1.9578 H       1  UNL1        0.0286
     46 H           1.8976    1.5753    0.1519 H       1  UNL1        0.0465
     47 H           1.0269    1.8944    1.7108 H       1  UNL1        0.0465
     48 H           1.8234   -0.2975    2.5861 H       1  UNL1        0.0288
     49 H           3.1404    0.8933    2.3037 H       1  UNL1        0.0288
     50 H           3.3552   -1.6012    1.3934 H       1  UNL1        0.0397
     51 H           7.8338    1.1148   -2.2620 H       1  UNL1        0.0640
     52 H          10.3175    1.1122   -2.5126 H       1  UNL1        0.0619
     53 H          11.7096    0.4317   -0.5744 H       1  UNL1        0.0633
     54 H          10.6160   -0.2054    1.4886 H       1  UNL1        0.0830
     55 H           2.2273   -0.3967   -1.1440 H       1  UNL1        0.0288
     56 H           2.4373   -2.0887   -0.6353 H       1  UNL1        0.0288
     57 H           0.5776   -1.8409    1.0087 H       1  UNL1        0.0465
     58 H           0.0636   -1.4060   -0.6534 H       1  UNL1        0.0465
@<TRIPOS>BOND
     1     1     2    2
     2     2     3   am
     3     3     4    1
     4     4     5    1
     5     5     6    1
     6     6     7    1
     7     7     8   ar
     8     8     9   ar
     9     9    10   ar
    10    10    11   ar
    11    11    12   ar
    12    12    13    1
    13    13    14    1
    14     2    15   am
    15    15    16    1
    16    16    17    1
    17    17    18    1
    18    18    19    1
    19    19    20   ar
    20    20    21   ar
    21    21    22    1
    22    22    23   ar
    23    23    24   ar
    24    24    25   ar
    25    25    26   ar
    26    26    27   ar
    27    21    28   ar
    28    28    29   ar
    29    18    30    1
    30    30    31    1
    31    14     4    1
    32    31    15    1
    33    12     7   ar
    34    29    19   ar
    35    27    22   ar
    36     3    32    1
    37     4    33    1
    38     5    34    1
    39     5    35    1
    40     6    36    1
    41     6    37    1
    42     8    38    1
    43     9    39    1
    44    10    40    1
    45    11    41    1
    46    13    42    1
    47    13    43    1
    48    14    44    1
    49    14    45    1
    50    16    46    1
    51    16    47    1
    52    17    48    1
    53    17    49    1
    54    18    50    1
    55    23    51    1
    56    24    52    1
    57    25    53    1
    58    26    54    1
    59    30    55    1
    60    30    56    1
    61    31    57    1
    62    31    58    1
