
     RDKit          3D

 58 62  0  0  0  0  0  0  0  0999 V2000
   -1.2248    1.9038    0.9726 O   0  0  0  0  0  0  0  0  0  0  0  0
   -0.9873    0.7251    0.6066 C   0  0  0  0  0  0  0  0  0  0  0  0
   -2.0918   -0.0734    0.2091 N   0  0  0  0  0  0  0  0  0  0  0  0
   -3.4751    0.4110    0.2080 C   0  0  0  0  0  0  0  0  0  0  0  0
   -4.3323   -0.3816    1.1452 C   0  0  0  0  0  0  0  0  0  0  0  0
   -5.6352    0.3749    1.4003 C   0  0  0  0  0  0  0  0  0  0  0  0
   -6.5646   -0.1080    0.3175 C   0  0  0  0  0  0  0  0  0  0  0  0
   -7.8801   -0.0550    0.7036 C   0  0  0  0  0  0  0  0  0  0  0  0
   -8.8841   -0.4658   -0.1707 C   0  0  0  0  0  0  0  0  0  0  0  0
   -8.5663   -0.9265   -1.4238 C   0  0  0  0  0  0  0  0  0  0  0  0
   -7.2254   -0.9712   -1.7930 C   0  0  0  0  0  0  0  0  0  0  0  0
   -6.2263   -0.5732   -0.9511 C   0  0  0  0  0  0  0  0  0  0  0  0
   -4.8850   -0.6973   -1.5332 C   0  0  0  0  0  0  0  0  0  0  0  0
   -3.9990    0.4802   -1.1908 C   0  0  0  0  0  0  0  0  0  0  0  0
    0.3524    0.2299    0.5996 N   0  0  0  0  0  0  0  0  0  0  0  0
    1.4290    1.1140    1.0232 C   0  0  0  0  0  0  0  0  0  0  0  0
    2.3887    0.2565    1.8264 C   0  0  0  0  0  0  0  0  0  0  0  0
    3.0627   -0.6873    0.8384 C   0  0  0  0  0  0  0  0  0  0  0  0
    4.2847    0.0025    0.3005 C   0  0  0  0  0  0  0  0  0  0  0  0
    5.5599   -0.3949    0.4569 N   0  0  0  0  0  0  0  0  0  0  0  0
    6.3866    0.4801   -0.1691 C   0  0  0  0  0  0  0  0  0  0  0  0
    7.8410    0.4635   -0.2706 C   0  0  0  0  0  0  0  0  0  0  0  0
    8.4714    0.8235   -1.4372 C   0  0  0  0  0  0  0  0  0  0  0  0
    9.8389    0.8263   -1.5874 C   0  0  0  0  0  0  0  0  0  0  0  0
   10.6214    0.4502   -0.5178 C   0  0  0  0  0  0  0  0  0  0  0  0
    9.9667    0.0888    0.6556 C   0  0  0  0  0  0  0  0  0  0  0  0
    8.6232    0.0994    0.7621 N   0  0  0  0  0  0  0  0  0  0  0  0
    5.5709    1.4058   -0.7005 N   0  0  0  0  0  0  0  0  0  0  0  0
    4.3351    1.1009   -0.4088 O   0  0  0  0  0  0  0  0  0  0  0  0
    2.1509   -1.0869   -0.2804 C   0  0  0  0  0  0  0  0  0  0  0  0
    0.7050   -1.0951    0.1982 C   0  0  0  0  0  0  0  0  0  0  0  0
   -1.8657   -1.0534   -0.0919 H   0  0  0  0  0  0  0  0  0  0  0  0
   -3.3945    1.4788    0.5721 H   0  0  0  0  0  0  0  0  0  0  0  0
   -3.7817   -0.4121    2.1273 H   0  0  0  0  0  0  0  0  0  0  0  0
   -4.5118   -1.4060    0.7888 H   0  0  0  0  0  0  0  0  0  0  0  0
   -6.0352    0.2105    2.3995 H   0  0  0  0  0  0  0  0  0  0  0  0
   -5.4335    1.4399    1.1816 H   0  0  0  0  0  0  0  0  0  0  0  0
   -8.1346    0.3041    1.6818 H   0  0  0  0  0  0  0  0  0  0  0  0
   -9.9274   -0.4261    0.1290 H   0  0  0  0  0  0  0  0  0  0  0  0
   -9.3539   -1.2431   -2.0960 H   0  0  0  0  0  0  0  0  0  0  0  0
   -7.0256   -1.3399   -2.7866 H   0  0  0  0  0  0  0  0  0  0  0  0
   -4.4247   -1.6604   -1.2598 H   0  0  0  0  0  0  0  0  0  0  0  0
   -4.9953   -0.7061   -2.6423 H   0  0  0  0  0  0  0  0  0  0  0  0
   -4.5631    1.4174   -1.3362 H   0  0  0  0  0  0  0  0  0  0  0  0
   -3.1903    0.4908   -1.9578 H   0  0  0  0  0  0  0  0  0  0  0  0
    1.8976    1.5753    0.1519 H   0  0  0  0  0  0  0  0  0  0  0  0
    1.0269    1.8944    1.7108 H   0  0  0  0  0  0  0  0  0  0  0  0
    1.8234   -0.2975    2.5861 H   0  0  0  0  0  0  0  0  0  0  0  0
    3.1404    0.8933    2.3037 H   0  0  0  0  0  0  0  0  0  0  0  0
    3.3552   -1.6012    1.3934 H   0  0  0  0  0  0  0  0  0  0  0  0
    7.8338    1.1148   -2.2620 H   0  0  0  0  0  0  0  0  0  0  0  0
   10.3175    1.1122   -2.5126 H   0  0  0  0  0  0  0  0  0  0  0  0
   11.7096    0.4317   -0.5744 H   0  0  0  0  0  0  0  0  0  0  0  0
   10.6160   -0.2054    1.4886 H   0  0  0  0  0  0  0  0  0  0  0  0
    2.2273   -0.3967   -1.1440 H   0  0  0  0  0  0  0  0  0  0  0  0
    2.4373   -2.0887   -0.6353 H   0  0  0  0  0  0  0  0  0  0  0  0
    0.5776   -1.8409    1.0087 H   0  0  0  0  0  0  0  0  0  0  0  0
    0.0636   -1.4060   -0.6534 H   0  0  0  0  0  0  0  0  0  0  0  0
  1  2  2  0
  2  3  1  0
  3  4  1  0
  4  5  1  0
  5  6  1  0
  6  7  1  0
  7  8  2  0
  8  9  1  0
  9 10  2  0
 10 11  1  0
 11 12  2  0
 12 13  1  0
 13 14  1  0
  2 15  1  0
 15 16  1  0
 16 17  1  0
 17 18  1  0
 18 19  1  0
 19 20  2  0
 20 21  1  0
 21 22  1  0
 22 23  2  0
 23 24  1  0
 24 25  2  0
 25 26  1  0
 26 27  2  0
 21 28  2  0
 28 29  1  0
 18 30  1  0
 30 31  1  0
 14  4  1  0
 31 15  1  0
 12  7  1  0
 29 19  1  0
 27 22  1  0
  3 32  1  0
  4 33  1  0
  5 34  1  0
  5 35  1  0
  6 36  1  0
  6 37  1  0
  8 38  1  0
  9 39  1  0
 10 40  1  0
 11 41  1  0
 13 42  1  0
 13 43  1  0
 14 44  1  0
 14 45  1  0
 16 46  1  0
 16 47  1  0
 17 48  1  0
 17 49  1  0
 18 50  1  0
 23 51  1  0
 24 52  1  0
 25 53  1  0
 26 54  1  0
 30 55  1  0
 30 56  1  0
 31 57  1  0
 31 58  1  0
M  END
$$$$
