@<TRIPOS>MOLECULE
*****
 72 75 0 0 0
SMALL
GASTEIGER

@<TRIPOS>ATOM
      1 C          -1.1032    3.6580   -0.7208 C.2     1  UNL1       -0.1020
      2 C          -1.9890    2.7220   -0.4367 C.2     1  UNL1       -0.0826
      3 C          -1.9583    1.9719    0.8688 C.3     1  UNL1        0.0152
      4 C          -1.9469    3.0730    1.9464 C.3     1  UNL1       -0.0536
      5 C          -0.6717    1.2315    1.0499 C.3     1  UNL1       -0.0039
      6 C          -0.3250    0.3021   -0.0879 C.3     1  UNL1        0.1102
      7 O           1.0742    0.4470   -0.2996 O.3     1  UNL1       -0.4602
      8 C           1.6550    1.0032   -1.4062 C.2     1  UNL1        0.3177
      9 O           0.9083    1.4286   -2.3241 O.2     1  UNL1       -0.2499
     10 C           3.1410    1.1057   -1.5276 C.3     1  UNL1        0.0957
     11 S           3.9470    0.4216   -0.0753 S.3     1  UNL1       -0.1123
     12 C           5.7101    0.5575   -0.2487 C.ar    1  UNL1        0.0282
     13 C           6.2839    1.1284   -1.3858 C.ar    1  UNL1        0.0411
     14 N           7.6190    1.2295   -1.5135 N.ar    1  UNL1       -0.2603
     15 C           8.4544    0.7930   -0.5679 C.ar    1  UNL1        0.0482
     16 C           7.9483    0.2222    0.5730 C.ar    1  UNL1        0.0440
     17 N           8.8104   -0.2527    1.5988 N.pl3   1  UNL1       -0.3568
     18 C           6.5759    0.1075    0.7264 C.ar    1  UNL1       -0.0247
     19 C          -0.6335   -1.1232    0.1709 C.3     1  UNL1        0.0176
     20 C           0.5346   -1.6990    0.9867 C.3     1  UNL1       -0.0553
     21 C          -0.7355   -1.9398   -1.0720 C.3     1  UNL1       -0.0344
     22 C           0.5082   -1.9517   -1.9211 C.3     1  UNL1       -0.0618
     23 C          -1.9606   -1.6106   -1.8962 C.3     1  UNL1       -0.0493
     24 C          -3.1775   -1.9152   -1.0472 C.3     1  UNL1       -0.0461
     25 C          -3.1493   -1.1839    0.2572 C.3     1  UNL1       -0.0138
     26 C          -4.1402   -1.8893    1.1955 C.3     1  UNL1       -0.0397
     27 C          -3.3643   -3.1181    1.5752 C.3     1  UNL1        0.0067
     28 C          -1.9239   -2.8019    1.3660 C.2     1  UNL1        0.1376
     29 O          -1.0525   -3.6292    1.4973 O.2     1  UNL1       -0.2971
     30 C          -1.8709   -1.3578    0.9961 C.3     1  UNL1        0.0324
     31 C          -3.5654    0.2350    0.0199 C.3     1  UNL1       -0.0107
     32 C          -5.0894    0.2207   -0.1786 C.3     1  UNL1       -0.0595
     33 C          -3.2058    1.1956    1.0976 C.3     1  UNL1        0.0672
     34 O          -4.2579    2.1452    1.1569 O.3     1  UNL1       -0.3907
     35 H          -1.1683    4.1660   -1.6694 H       1  UNL1        0.0532
     36 H          -0.2984    3.9632   -0.0628 H       1  UNL1        0.0532
     37 H          -2.7449    2.5101   -1.1801 H       1  UNL1        0.0573
     38 H          -1.3075    2.7730    2.8057 H       1  UNL1        0.0239
     39 H          -2.9536    3.2676    2.3311 H       1  UNL1        0.0239
     40 H          -1.5549    4.0221    1.5430 H       1  UNL1        0.0239
     41 H          -0.6447    0.7733    2.0358 H       1  UNL1        0.0310
     42 H           0.1115    2.0505    1.1023 H       1  UNL1        0.0310
     43 H          -0.7799    0.7233   -1.0324 H       1  UNL1        0.0740
     44 H           3.4436    2.1795   -1.6032 H       1  UNL1        0.0494
     45 H           3.5045    0.5969   -2.4493 H       1  UNL1        0.0494
     46 H           5.6468    1.4892   -2.1641 H       1  UNL1        0.0841
     47 H           9.5348    0.8641   -0.6491 H       1  UNL1        0.0848
     48 H           8.4512   -0.8362    2.3814 H       1  UNL1        0.1424
     49 H           9.8185   -0.0201    1.5781 H       1  UNL1        0.1424
     50 H           6.1655   -0.3416    1.6234 H       1  UNL1        0.0648
     51 H           0.2611   -1.7732    2.0630 H       1  UNL1        0.0237
     52 H           0.8719   -2.6737    0.5777 H       1  UNL1        0.0237
     53 H           1.4181   -1.0283    0.9437 H       1  UNL1        0.0237
     54 H          -0.8791   -3.0127   -0.7403 H       1  UNL1        0.0305
     55 H           0.4445   -1.2381   -2.7675 H       1  UNL1        0.0233
     56 H           0.5985   -2.9631   -2.4237 H       1  UNL1        0.0233
     57 H           1.4171   -1.8712   -1.3176 H       1  UNL1        0.0233
     58 H          -1.9546   -0.5995   -2.3056 H       1  UNL1        0.0268
     59 H          -1.9760   -2.3200   -2.7495 H       1  UNL1        0.0268
     60 H          -3.1214   -3.0157   -0.8229 H       1  UNL1        0.0271
     61 H          -4.1228   -1.7355   -1.5600 H       1  UNL1        0.0271
     62 H          -4.3542   -1.2320    2.0570 H       1  UNL1        0.0275
     63 H          -5.0431   -2.2216    0.6512 H       1  UNL1        0.0275
     64 H          -3.6032   -3.9730    0.9233 H       1  UNL1        0.0342
     65 H          -3.4797   -3.3823    2.6629 H       1  UNL1        0.0342
     66 H          -1.8870   -0.8190    1.9550 H       1  UNL1        0.0389
     67 H          -3.1699    0.5263   -0.9827 H       1  UNL1        0.0329
     68 H          -5.3591   -0.1573   -1.1834 H       1  UNL1        0.0233
     69 H          -5.6039   -0.2600    0.6496 H       1  UNL1        0.0233
     70 H          -5.4127    1.3013   -0.1682 H       1  UNL1        0.0233
     71 H          -3.1728    0.7474    2.0903 H       1  UNL1        0.0604
     72 H          -4.1455    2.7936    0.4270 H       1  UNL1        0.2098
@<TRIPOS>BOND
     1     1     2    2
     2     2     3    1
     3     3     4    1
     4     3     5    1
     5     5     6    1
     6     6     7    1
     7     7     8    1
     8     8     9    2
     9     8    10    1
    10    10    11    1
    11    11    12    1
    12    12    13   ar
    13    13    14   ar
    14    14    15   ar
    15    15    16   ar
    16    16    17    1
    17    16    18   ar
    18     6    19    1
    19    19    20    1
    20    19    21    1
    21    21    22    1
    22    21    23    1
    23    23    24    1
    24    25    24    1
    25    25    26    1
    26    26    27    1
    27    27    28    1
    28    28    29    2
    29    28    30    1
    30    25    31    1
    31    31    32    1
    32    31    33    1
    33    33    34    1
    34    33     3    1
    35    18    12   ar
    36    30    19    1
    37    30    25    1
    38     1    35    1
    39     1    36    1
    40     2    37    1
    41     4    38    1
    42     4    39    1
    43     4    40    1
    44     5    41    1
    45     5    42    1
    46     6    43    1
    47    10    44    1
    48    10    45    1
    49    13    46    1
    50    15    47    1
    51    17    48    1
    52    17    49    1
    53    18    50    1
    54    20    51    1
    55    20    52    1
    56    20    53    1
    57    21    54    1
    58    22    55    1
    59    22    56    1
    60    22    57    1
    61    23    58    1
    62    23    59    1
    63    24    60    1
    64    24    61    1
    65    26    62    1
    66    26    63    1
    67    27    64    1
    68    27    65    1
    69    30    66    1
    70    31    67    1
    71    32    68    1
    72    32    69    1
    73    32    70    1
    74    33    71    1
    75    34    72    1
