
     RDKit          3D

 72 75  0  0  0  0  0  0  0  0999 V2000
   -1.1032    3.6580   -0.7208 C   0  0  0  0  0  0  0  0  0  0  0  0
   -1.9890    2.7220   -0.4367 C   0  0  0  0  0  0  0  0  0  0  0  0
   -1.9583    1.9719    0.8688 C   0  0  2  0  0  0  0  0  0  0  0  0
   -1.9469    3.0730    1.9464 C   0  0  0  0  0  0  0  0  0  0  0  0
   -0.6717    1.2315    1.0499 C   0  0  0  0  0  0  0  0  0  0  0  0
   -0.3250    0.3021   -0.0879 C   0  0  1  0  0  0  0  0  0  0  0  0
    1.0742    0.4470   -0.2996 O   0  0  0  0  0  0  0  0  0  0  0  0
    1.6550    1.0032   -1.4062 C   0  0  0  0  0  0  0  0  0  0  0  0
    0.9083    1.4286   -2.3241 O   0  0  0  0  0  0  0  0  0  0  0  0
    3.1410    1.1057   -1.5276 C   0  0  0  0  0  0  0  0  0  0  0  0
    3.9470    0.4216   -0.0753 S   0  0  0  0  0  0  0  0  0  0  0  0
    5.7101    0.5575   -0.2487 C   0  0  0  0  0  0  0  0  0  0  0  0
    6.2839    1.1284   -1.3858 C   0  0  0  0  0  0  0  0  0  0  0  0
    7.6190    1.2295   -1.5135 N   0  0  0  0  0  0  0  0  0  0  0  0
    8.4544    0.7930   -0.5679 C   0  0  0  0  0  0  0  0  0  0  0  0
    7.9483    0.2222    0.5730 C   0  0  0  0  0  0  0  0  0  0  0  0
    8.8104   -0.2527    1.5988 N   0  0  0  0  0  0  0  0  0  0  0  0
    6.5759    0.1075    0.7264 C   0  0  0  0  0  0  0  0  0  0  0  0
   -0.6335   -1.1232    0.1709 C   0  0  2  0  0  0  0  0  0  0  0  0
    0.5346   -1.6990    0.9867 C   0  0  0  0  0  0  0  0  0  0  0  0
   -0.7355   -1.9398   -1.0720 C   0  0  2  0  0  0  0  0  0  0  0  0
    0.5082   -1.9517   -1.9211 C   0  0  0  0  0  0  0  0  0  0  0  0
   -1.9606   -1.6106   -1.8962 C   0  0  0  0  0  0  0  0  0  0  0  0
   -3.1775   -1.9152   -1.0472 C   0  0  0  0  0  0  0  0  0  0  0  0
   -3.1493   -1.1839    0.2572 C   0  0  1  0  0  0  0  0  0  0  0  0
   -4.1402   -1.8893    1.1955 C   0  0  0  0  0  0  0  0  0  0  0  0
   -3.3643   -3.1181    1.5752 C   0  0  0  0  0  0  0  0  0  0  0  0
   -1.9239   -2.8019    1.3660 C   0  0  0  0  0  0  0  0  0  0  0  0
   -1.0525   -3.6292    1.4973 O   0  0  0  0  0  0  0  0  0  0  0  0
   -1.8709   -1.3578    0.9961 C   0  0  1  0  0  0  0  0  0  0  0  0
   -3.5654    0.2350    0.0199 C   0  0  1  0  0  0  0  0  0  0  0  0
   -5.0894    0.2207   -0.1786 C   0  0  0  0  0  0  0  0  0  0  0  0
   -3.2058    1.1956    1.0976 C   0  0  2  0  0  0  0  0  0  0  0  0
   -4.2579    2.1452    1.1569 O   0  0  0  0  0  0  0  0  0  0  0  0
   -1.1683    4.1660   -1.6694 H   0  0  0  0  0  0  0  0  0  0  0  0
   -0.2984    3.9632   -0.0628 H   0  0  0  0  0  0  0  0  0  0  0  0
   -2.7449    2.5101   -1.1801 H   0  0  0  0  0  0  0  0  0  0  0  0
   -1.3075    2.7730    2.8057 H   0  0  0  0  0  0  0  0  0  0  0  0
   -2.9536    3.2676    2.3311 H   0  0  0  0  0  0  0  0  0  0  0  0
   -1.5549    4.0221    1.5430 H   0  0  0  0  0  0  0  0  0  0  0  0
   -0.6447    0.7733    2.0358 H   0  0  0  0  0  0  0  0  0  0  0  0
    0.1115    2.0505    1.1023 H   0  0  0  0  0  0  0  0  0  0  0  0
   -0.7799    0.7233   -1.0324 H   0  0  0  0  0  0  0  0  0  0  0  0
    3.4436    2.1795   -1.6032 H   0  0  0  0  0  0  0  0  0  0  0  0
    3.5045    0.5969   -2.4493 H   0  0  0  0  0  0  0  0  0  0  0  0
    5.6468    1.4892   -2.1641 H   0  0  0  0  0  0  0  0  0  0  0  0
    9.5348    0.8641   -0.6491 H   0  0  0  0  0  0  0  0  0  0  0  0
    8.4512   -0.8362    2.3814 H   0  0  0  0  0  0  0  0  0  0  0  0
    9.8185   -0.0201    1.5781 H   0  0  0  0  0  0  0  0  0  0  0  0
    6.1655   -0.3416    1.6234 H   0  0  0  0  0  0  0  0  0  0  0  0
    0.2611   -1.7732    2.0630 H   0  0  0  0  0  0  0  0  0  0  0  0
    0.8719   -2.6737    0.5777 H   0  0  0  0  0  0  0  0  0  0  0  0
    1.4181   -1.0283    0.9437 H   0  0  0  0  0  0  0  0  0  0  0  0
   -0.8791   -3.0127   -0.7403 H   0  0  0  0  0  0  0  0  0  0  0  0
    0.4445   -1.2381   -2.7675 H   0  0  0  0  0  0  0  0  0  0  0  0
    0.5985   -2.9631   -2.4237 H   0  0  0  0  0  0  0  0  0  0  0  0
    1.4171   -1.8712   -1.3176 H   0  0  0  0  0  0  0  0  0  0  0  0
   -1.9546   -0.5995   -2.3056 H   0  0  0  0  0  0  0  0  0  0  0  0
   -1.9760   -2.3200   -2.7495 H   0  0  0  0  0  0  0  0  0  0  0  0
   -3.1214   -3.0157   -0.8229 H   0  0  0  0  0  0  0  0  0  0  0  0
   -4.1228   -1.7355   -1.5600 H   0  0  0  0  0  0  0  0  0  0  0  0
   -4.3542   -1.2320    2.0570 H   0  0  0  0  0  0  0  0  0  0  0  0
   -5.0431   -2.2216    0.6512 H   0  0  0  0  0  0  0  0  0  0  0  0
   -3.6032   -3.9730    0.9233 H   0  0  0  0  0  0  0  0  0  0  0  0
   -3.4797   -3.3823    2.6629 H   0  0  0  0  0  0  0  0  0  0  0  0
   -1.8870   -0.8190    1.9550 H   0  0  0  0  0  0  0  0  0  0  0  0
   -3.1699    0.5263   -0.9827 H   0  0  0  0  0  0  0  0  0  0  0  0
   -5.3591   -0.1573   -1.1834 H   0  0  0  0  0  0  0  0  0  0  0  0
   -5.6039   -0.2600    0.6496 H   0  0  0  0  0  0  0  0  0  0  0  0
   -5.4127    1.3013   -0.1682 H   0  0  0  0  0  0  0  0  0  0  0  0
   -3.1728    0.7474    2.0903 H   0  0  0  0  0  0  0  0  0  0  0  0
   -4.1455    2.7936    0.4270 H   0  0  0  0  0  0  0  0  0  0  0  0
  1  2  2  3
  2  3  1  0
  3  4  1  1
  3  5  1  0
  5  6  1  0
  6  7  1  0
  7  8  1  0
  8  9  2  0
  8 10  1  0
 10 11  1  0
 11 12  1  0
 12 13  2  0
 13 14  1  0
 14 15  2  0
 15 16  1  0
 16 17  1  0
 16 18  2  0
  6 19  1  0
 19 20  1  1
 19 21  1  0
 21 22  1  0
 21 23  1  0
 23 24  1  0
 25 24  1  6
 25 26  1  0
 26 27  1  0
 27 28  1  0
 28 29  2  0
 28 30  1  0
 25 31  1  0
 31 32  1  0
 31 33  1  0
 33 34  1  0
 33  3  1  0
 18 12  1  0
 30 19  1  0
 30 25  1  0
  1 35  1  0
  1 36  1  0
  2 37  1  0
  4 38  1  0
  4 39  1  0
  4 40  1  0
  5 41  1  0
  5 42  1  0
  6 43  1  6
 10 44  1  0
 10 45  1  0
 13 46  1  0
 15 47  1  0
 17 48  1  0
 17 49  1  0
 18 50  1  0
 20 51  1  0
 20 52  1  0
 20 53  1  0
 21 54  1  1
 22 55  1  0
 22 56  1  0
 22 57  1  0
 23 58  1  0
 23 59  1  0
 24 60  1  0
 24 61  1  0
 26 62  1  0
 26 63  1  0
 27 64  1  0
 27 65  1  0
 30 66  1  1
 31 67  1  6
 32 68  1  0
 32 69  1  0
 32 70  1  0
 33 71  1  1
 34 72  1  0
M  END
$$$$
