@<TRIPOS>MOLECULE
*****
 91 97 0 0 0
SMALL
GASTEIGER

@<TRIPOS>ATOM
      1 C          12.6326   -0.3245    0.6849 C.3     1  UNL1       -0.0497
      2 C          11.6939   -1.3421    0.0462 C.3     1  UNL1        0.0049
      3 C          12.4674   -2.1452   -0.9784 C.3     1  UNL1       -0.0497
      4 N          10.5522   -0.6757   -0.5026 N.3     1  UNL1       -0.2969
      5 C           9.6429   -1.6673   -1.0896 C.3     1  UNL1        0.0150
      6 C           8.2737   -1.0334   -1.2701 C.3     1  UNL1        0.0278
      7 N           8.4947    0.3714   -1.5011 N.am    1  UNL1       -0.2951
      8 C           7.5757    1.3225   -1.0302 C.2     1  UNL1        0.2467
      9 O           7.7768    2.5502   -1.2388 O.2     1  UNL1       -0.2700
     10 C           6.3764    0.9768   -0.2986 C.ar    1  UNL1        0.0370
     11 C           5.1282    1.0913   -0.8557 C.ar    1  UNL1       -0.0479
     12 C           4.0079    0.7453   -0.0890 C.ar    1  UNL1       -0.0397
     13 C           4.0935    0.2941    1.2004 C.ar    1  UNL1        0.0348
     14 N           2.9798   -0.0487    1.9990 N.am    1  UNL1       -0.2692
     15 C           1.6182    0.0561    1.6275 C.2     1  UNL1        0.3081
     16 O           1.2820    0.4810    0.5164 O.2     1  UNL1       -0.2522
     17 N           0.5700   -0.3286    2.5273 N.am    1  UNL1       -0.2692
     18 C          -0.7733   -0.1946    2.1012 C.ar    1  UNL1        0.0348
     19 C          -1.4645    0.9959    2.3490 C.ar    1  UNL1       -0.0398
     20 C          -2.7566    1.1768    1.9596 C.ar    1  UNL1       -0.0493
     21 C          -3.4524    0.1878    1.2966 C.ar    1  UNL1        0.0194
     22 C          -4.8371    0.3654    0.8731 C.ar    1  UNL1        0.1652
     23 N          -5.4760    1.5171    1.1322 N.ar    1  UNL1       -0.2122
     24 C          -6.7682    1.7027    0.7499 C.ar    1  UNL1        0.1382
     25 C          -7.4896    2.9682    1.0246 C.3     1  UNL1        0.0233
     26 C          -8.7170    2.7800    1.8807 C.3     1  UNL1       -0.0197
     27 C          -9.7205    3.8824    1.6010 C.3     1  UNL1        0.0483
     28 O         -10.2447    3.7125    0.3333 O.3     1  UNL1       -0.3797
     29 C          -9.3320    3.3073   -0.6103 C.3     1  UNL1        0.0483
     30 C          -7.9032    3.6311   -0.2639 C.3     1  UNL1       -0.0197
     31 N          -7.4084    0.7138    0.1042 N.ar    1  UNL1       -0.1991
     32 C          -6.8019   -0.4592   -0.1750 C.ar    1  UNL1        0.2220
     33 N          -7.5005   -1.4747   -0.8460 N.pl3   1  UNL1       -0.2891
     34 C          -6.9895   -2.7315   -1.3392 C.3     1  UNL1        0.0500
     35 C          -8.0271   -3.6961   -0.8033 C.3     1  UNL1       -0.0304
     36 C          -9.3057   -2.8658   -0.7432 C.3     1  UNL1       -0.0304
     37 C          -8.9050   -1.4663   -1.1755 C.3     1  UNL1        0.0500
     38 C          -9.0009   -1.4047   -2.6841 C.3     1  UNL1        0.0663
     39 O          -8.4236   -2.5281   -3.2552 O.3     1  UNL1       -0.3761
     40 C          -7.1104   -2.7449   -2.8515 C.3     1  UNL1        0.0663
     41 N          -5.5106   -0.5960    0.2265 N.ar    1  UNL1       -0.1945
     42 C          -2.7630   -0.9804    1.0573 C.ar    1  UNL1       -0.0493
     43 C          -1.4559   -1.1859    1.4423 C.ar    1  UNL1       -0.0398
     44 C           5.3799    0.1927    1.7258 C.ar    1  UNL1       -0.0397
     45 C           6.4772    0.5280    0.9851 C.ar    1  UNL1       -0.0479
     46 C           9.6713    0.7858   -2.2181 C.3     1  UNL1        0.0278
     47 C          10.8987    0.3536   -1.4387 C.3     1  UNL1        0.0150
     48 H          13.2477    0.2097   -0.0522 H       1  UNL1        0.0245
     49 H          11.9784    0.3768    1.2459 H       1  UNL1        0.0245
     50 H          13.2839   -0.8709    1.3889 H       1  UNL1        0.0245
     51 H          11.3674   -2.0324    0.8481 H       1  UNL1        0.0457
     52 H          13.2596   -2.7044   -0.4200 H       1  UNL1        0.0245
     53 H          11.8045   -2.8672   -1.4805 H       1  UNL1        0.0245
     54 H          12.9933   -1.5018   -1.7032 H       1  UNL1        0.0245
     55 H           9.6149   -2.5218   -0.3849 H       1  UNL1        0.0442
     56 H          10.0488   -2.0058   -2.0450 H       1  UNL1        0.0442
     57 H           7.6561   -1.1962   -0.3675 H       1  UNL1        0.0477
     58 H           7.7875   -1.4833   -2.1602 H       1  UNL1        0.0477
     59 H           5.0168    1.4403   -1.8656 H       1  UNL1        0.0626
     60 H           3.0689    0.8592   -0.5932 H       1  UNL1        0.0636
     61 H           3.1657   -0.4258    2.9792 H       1  UNL1        0.1564
     62 H           0.7951   -0.6904    3.4540 H       1  UNL1        0.1564
     63 H          -0.8931    1.7696    2.8765 H       1  UNL1        0.0636
     64 H          -3.2476    2.1137    2.1745 H       1  UNL1        0.0625
     65 H          -6.7975    3.6580    1.5524 H       1  UNL1        0.0381
     66 H          -9.1800    1.8139    1.6195 H       1  UNL1        0.0294
     67 H          -8.4360    2.7822    2.9472 H       1  UNL1        0.0294
     68 H         -10.5341    3.7823    2.3308 H       1  UNL1        0.0560
     69 H          -9.2055    4.8644    1.6611 H       1  UNL1        0.0560
     70 H          -9.5747    3.7998   -1.5824 H       1  UNL1        0.0560
     71 H          -9.4236    2.2205   -0.7854 H       1  UNL1        0.0560
     72 H          -7.2495    3.2684   -1.0597 H       1  UNL1        0.0294
     73 H          -7.7714    4.7208   -0.1841 H       1  UNL1        0.0294
     74 H          -5.9706   -2.9628   -1.0477 H       1  UNL1        0.0523
     75 H          -7.7600   -3.9454    0.2442 H       1  UNL1        0.0284
     76 H          -8.1332   -4.5622   -1.4630 H       1  UNL1        0.0284
     77 H          -9.9986   -3.2925   -1.5025 H       1  UNL1        0.0284
     78 H          -9.7461   -2.8301    0.2606 H       1  UNL1        0.0284
     79 H          -9.4791   -0.6748   -0.7006 H       1  UNL1        0.0523
     80 H          -8.6107   -0.4538   -3.0636 H       1  UNL1        0.0578
     81 H         -10.0973   -1.4649   -2.9179 H       1  UNL1        0.0578
     82 H          -6.8102   -3.7538   -3.1958 H       1  UNL1        0.0578
     83 H          -6.4041   -2.0155   -3.2789 H       1  UNL1        0.0578
     84 H          -3.3139   -1.7622    0.5320 H       1  UNL1        0.0625
     85 H          -0.9698   -2.1347    1.2236 H       1  UNL1        0.0636
     86 H           5.4457   -0.1649    2.7517 H       1  UNL1        0.0636
     87 H           7.4438    0.4240    1.4596 H       1  UNL1        0.0626
     88 H           9.6614    1.8834   -2.3671 H       1  UNL1        0.0477
     89 H           9.6456    0.3012   -3.2225 H       1  UNL1        0.0477
     90 H          11.2271    1.2415   -0.8626 H       1  UNL1        0.0442
     91 H          11.6390   -0.0081   -2.1572 H       1  UNL1        0.0442
@<TRIPOS>BOND
     1     1     2    1
     2     2     3    1
     3     2     4    1
     4     4     5    1
     5     5     6    1
     6     6     7    1
     7     7     8   am
     8     8     9    2
     9     8    10    1
    10    10    11   ar
    11    11    12   ar
    12    12    13   ar
    13    13    14    1
    14    14    15   am
    15    15    16    2
    16    15    17   am
    17    17    18    1
    18    18    19   ar
    19    19    20   ar
    20    20    21   ar
    21    21    22    1
    22    22    23   ar
    23    23    24   ar
    24    24    25    1
    25    25    26    1
    26    26    27    1
    27    27    28    1
    28    28    29    1
    29    29    30    1
    30    24    31   ar
    31    31    32   ar
    32    32    33    1
    33    33    34    1
    34    34    35    1
    35    35    36    1
    36    36    37    1
    37    37    38    1
    38    38    39    1
    39    39    40    1
    40    32    41   ar
    41    21    42   ar
    42    42    43   ar
    43    13    44   ar
    44    44    45   ar
    45     7    46    1
    46    46    47    1
    47    47     4    1
    48    45    10   ar
    49    43    18   ar
    50    41    22   ar
    51    30    25    1
    52    37    33    1
    53    40    34    1
    54     1    48    1
    55     1    49    1
    56     1    50    1
    57     2    51    1
    58     3    52    1
    59     3    53    1
    60     3    54    1
    61     5    55    1
    62     5    56    1
    63     6    57    1
    64     6    58    1
    65    11    59    1
    66    12    60    1
    67    14    61    1
    68    17    62    1
    69    19    63    1
    70    20    64    1
    71    25    65    1
    72    26    66    1
    73    26    67    1
    74    27    68    1
    75    27    69    1
    76    29    70    1
    77    29    71    1
    78    30    72    1
    79    30    73    1
    80    34    74    1
    81    35    75    1
    82    35    76    1
    83    36    77    1
    84    36    78    1
    85    37    79    1
    86    38    80    1
    87    38    81    1
    88    40    82    1
    89    40    83    1
    90    42    84    1
    91    43    85    1
    92    44    86    1
    93    45    87    1
    94    46    88    1
    95    46    89    1
    96    47    90    1
    97    47    91    1
