
     RDKit          3D

 91 97  0  0  0  0  0  0  0  0999 V2000
   12.6326   -0.3245    0.6849 C   0  0  0  0  0  0  0  0  0  0  0  0
   11.6939   -1.3421    0.0462 C   0  0  0  0  0  0  0  0  0  0  0  0
   12.4674   -2.1452   -0.9784 C   0  0  0  0  0  0  0  0  0  0  0  0
   10.5522   -0.6757   -0.5026 N   0  0  0  0  0  0  0  0  0  0  0  0
    9.6429   -1.6673   -1.0896 C   0  0  0  0  0  0  0  0  0  0  0  0
    8.2737   -1.0334   -1.2701 C   0  0  0  0  0  0  0  0  0  0  0  0
    8.4947    0.3714   -1.5011 N   0  0  0  0  0  0  0  0  0  0  0  0
    7.5757    1.3225   -1.0302 C   0  0  0  0  0  0  0  0  0  0  0  0
    7.7768    2.5502   -1.2388 O   0  0  0  0  0  0  0  0  0  0  0  0
    6.3764    0.9768   -0.2986 C   0  0  0  0  0  0  0  0  0  0  0  0
    5.1282    1.0913   -0.8557 C   0  0  0  0  0  0  0  0  0  0  0  0
    4.0079    0.7453   -0.0890 C   0  0  0  0  0  0  0  0  0  0  0  0
    4.0935    0.2941    1.2004 C   0  0  0  0  0  0  0  0  0  0  0  0
    2.9798   -0.0487    1.9990 N   0  0  0  0  0  0  0  0  0  0  0  0
    1.6182    0.0561    1.6275 C   0  0  0  0  0  0  0  0  0  0  0  0
    1.2820    0.4810    0.5164 O   0  0  0  0  0  0  0  0  0  0  0  0
    0.5700   -0.3286    2.5273 N   0  0  0  0  0  0  0  0  0  0  0  0
   -0.7733   -0.1946    2.1012 C   0  0  0  0  0  0  0  0  0  0  0  0
   -1.4645    0.9959    2.3490 C   0  0  0  0  0  0  0  0  0  0  0  0
   -2.7566    1.1768    1.9596 C   0  0  0  0  0  0  0  0  0  0  0  0
   -3.4524    0.1878    1.2966 C   0  0  0  0  0  0  0  0  0  0  0  0
   -4.8371    0.3654    0.8731 C   0  0  0  0  0  0  0  0  0  0  0  0
   -5.4760    1.5171    1.1322 N   0  0  0  0  0  0  0  0  0  0  0  0
   -6.7682    1.7027    0.7499 C   0  0  0  0  0  0  0  0  0  0  0  0
   -7.4896    2.9682    1.0246 C   0  0  0  0  0  0  0  0  0  0  0  0
   -8.7170    2.7800    1.8807 C   0  0  0  0  0  0  0  0  0  0  0  0
   -9.7205    3.8824    1.6010 C   0  0  0  0  0  0  0  0  0  0  0  0
  -10.2447    3.7125    0.3333 O   0  0  0  0  0  0  0  0  0  0  0  0
   -9.3320    3.3073   -0.6103 C   0  0  0  0  0  0  0  0  0  0  0  0
   -7.9032    3.6311   -0.2639 C   0  0  0  0  0  0  0  0  0  0  0  0
   -7.4084    0.7138    0.1042 N   0  0  0  0  0  0  0  0  0  0  0  0
   -6.8019   -0.4592   -0.1750 C   0  0  0  0  0  0  0  0  0  0  0  0
   -7.5005   -1.4747   -0.8460 N   0  0  0  0  0  0  0  0  0  0  0  0
   -6.9895   -2.7315   -1.3392 C   0  0  0  0  0  0  0  0  0  0  0  0
   -8.0271   -3.6961   -0.8033 C   0  0  0  0  0  0  0  0  0  0  0  0
   -9.3057   -2.8658   -0.7432 C   0  0  0  0  0  0  0  0  0  0  0  0
   -8.9050   -1.4663   -1.1755 C   0  0  0  0  0  0  0  0  0  0  0  0
   -9.0009   -1.4047   -2.6841 C   0  0  0  0  0  0  0  0  0  0  0  0
   -8.4236   -2.5281   -3.2552 O   0  0  0  0  0  0  0  0  0  0  0  0
   -7.1104   -2.7449   -2.8515 C   0  0  0  0  0  0  0  0  0  0  0  0
   -5.5106   -0.5960    0.2265 N   0  0  0  0  0  0  0  0  0  0  0  0
   -2.7630   -0.9804    1.0573 C   0  0  0  0  0  0  0  0  0  0  0  0
   -1.4559   -1.1859    1.4423 C   0  0  0  0  0  0  0  0  0  0  0  0
    5.3799    0.1927    1.7258 C   0  0  0  0  0  0  0  0  0  0  0  0
    6.4772    0.5280    0.9851 C   0  0  0  0  0  0  0  0  0  0  0  0
    9.6713    0.7858   -2.2181 C   0  0  0  0  0  0  0  0  0  0  0  0
   10.8987    0.3536   -1.4387 C   0  0  0  0  0  0  0  0  0  0  0  0
   13.2477    0.2097   -0.0522 H   0  0  0  0  0  0  0  0  0  0  0  0
   11.9784    0.3768    1.2459 H   0  0  0  0  0  0  0  0  0  0  0  0
   13.2839   -0.8709    1.3889 H   0  0  0  0  0  0  0  0  0  0  0  0
   11.3674   -2.0324    0.8481 H   0  0  0  0  0  0  0  0  0  0  0  0
   13.2596   -2.7044   -0.4200 H   0  0  0  0  0  0  0  0  0  0  0  0
   11.8045   -2.8672   -1.4805 H   0  0  0  0  0  0  0  0  0  0  0  0
   12.9933   -1.5018   -1.7032 H   0  0  0  0  0  0  0  0  0  0  0  0
    9.6149   -2.5218   -0.3849 H   0  0  0  0  0  0  0  0  0  0  0  0
   10.0488   -2.0058   -2.0450 H   0  0  0  0  0  0  0  0  0  0  0  0
    7.6561   -1.1962   -0.3675 H   0  0  0  0  0  0  0  0  0  0  0  0
    7.7875   -1.4833   -2.1602 H   0  0  0  0  0  0  0  0  0  0  0  0
    5.0168    1.4403   -1.8656 H   0  0  0  0  0  0  0  0  0  0  0  0
    3.0689    0.8592   -0.5932 H   0  0  0  0  0  0  0  0  0  0  0  0
    3.1657   -0.4258    2.9792 H   0  0  0  0  0  0  0  0  0  0  0  0
    0.7951   -0.6904    3.4540 H   0  0  0  0  0  0  0  0  0  0  0  0
   -0.8931    1.7696    2.8765 H   0  0  0  0  0  0  0  0  0  0  0  0
   -3.2476    2.1137    2.1745 H   0  0  0  0  0  0  0  0  0  0  0  0
   -6.7975    3.6580    1.5524 H   0  0  0  0  0  0  0  0  0  0  0  0
   -9.1800    1.8139    1.6195 H   0  0  0  0  0  0  0  0  0  0  0  0
   -8.4360    2.7822    2.9472 H   0  0  0  0  0  0  0  0  0  0  0  0
  -10.5341    3.7823    2.3308 H   0  0  0  0  0  0  0  0  0  0  0  0
   -9.2055    4.8644    1.6611 H   0  0  0  0  0  0  0  0  0  0  0  0
   -9.5747    3.7998   -1.5824 H   0  0  0  0  0  0  0  0  0  0  0  0
   -9.4236    2.2205   -0.7854 H   0  0  0  0  0  0  0  0  0  0  0  0
   -7.2495    3.2684   -1.0597 H   0  0  0  0  0  0  0  0  0  0  0  0
   -7.7714    4.7208   -0.1841 H   0  0  0  0  0  0  0  0  0  0  0  0
   -5.9706   -2.9628   -1.0477 H   0  0  0  0  0  0  0  0  0  0  0  0
   -7.7600   -3.9454    0.2442 H   0  0  0  0  0  0  0  0  0  0  0  0
   -8.1332   -4.5622   -1.4630 H   0  0  0  0  0  0  0  0  0  0  0  0
   -9.9986   -3.2925   -1.5025 H   0  0  0  0  0  0  0  0  0  0  0  0
   -9.7461   -2.8301    0.2606 H   0  0  0  0  0  0  0  0  0  0  0  0
   -9.4791   -0.6748   -0.7006 H   0  0  0  0  0  0  0  0  0  0  0  0
   -8.6107   -0.4538   -3.0636 H   0  0  0  0  0  0  0  0  0  0  0  0
  -10.0973   -1.4649   -2.9179 H   0  0  0  0  0  0  0  0  0  0  0  0
   -6.8102   -3.7538   -3.1958 H   0  0  0  0  0  0  0  0  0  0  0  0
   -6.4041   -2.0155   -3.2789 H   0  0  0  0  0  0  0  0  0  0  0  0
   -3.3139   -1.7622    0.5320 H   0  0  0  0  0  0  0  0  0  0  0  0
   -0.9698   -2.1347    1.2236 H   0  0  0  0  0  0  0  0  0  0  0  0
    5.4457   -0.1649    2.7517 H   0  0  0  0  0  0  0  0  0  0  0  0
    7.4438    0.4240    1.4596 H   0  0  0  0  0  0  0  0  0  0  0  0
    9.6614    1.8834   -2.3671 H   0  0  0  0  0  0  0  0  0  0  0  0
    9.6456    0.3012   -3.2225 H   0  0  0  0  0  0  0  0  0  0  0  0
   11.2271    1.2415   -0.8626 H   0  0  0  0  0  0  0  0  0  0  0  0
   11.6390   -0.0081   -2.1572 H   0  0  0  0  0  0  0  0  0  0  0  0
  1  2  1  0
  2  3  1  0
  2  4  1  0
  4  5  1  0
  5  6  1  0
  6  7  1  0
  7  8  1  0
  8  9  2  0
  8 10  1  0
 10 11  2  0
 11 12  1  0
 12 13  2  0
 13 14  1  0
 14 15  1  0
 15 16  2  0
 15 17  1  0
 17 18  1  0
 18 19  2  0
 19 20  1  0
 20 21  2  0
 21 22  1  0
 22 23  2  0
 23 24  1  0
 24 25  1  0
 25 26  1  0
 26 27  1  0
 27 28  1  0
 28 29  1  0
 29 30  1  0
 24 31  2  0
 31 32  1  0
 32 33  1  0
 33 34  1  0
 34 35  1  0
 35 36  1  0
 36 37  1  0
 37 38  1  0
 38 39  1  0
 39 40  1  0
 32 41  2  0
 21 42  1  0
 42 43  2  0
 13 44  1  0
 44 45  2  0
  7 46  1  0
 46 47  1  0
 47  4  1  0
 45 10  1  0
 43 18  1  0
 41 22  1  0
 30 25  1  0
 37 33  1  0
 40 34  1  0
  1 48  1  0
  1 49  1  0
  1 50  1  0
  2 51  1  0
  3 52  1  0
  3 53  1  0
  3 54  1  0
  5 55  1  0
  5 56  1  0
  6 57  1  0
  6 58  1  0
 11 59  1  0
 12 60  1  0
 14 61  1  0
 17 62  1  0
 19 63  1  0
 20 64  1  0
 25 65  1  0
 26 66  1  0
 26 67  1  0
 27 68  1  0
 27 69  1  0
 29 70  1  0
 29 71  1  0
 30 72  1  0
 30 73  1  0
 34 74  1  0
 35 75  1  0
 35 76  1  0
 36 77  1  0
 36 78  1  0
 37 79  1  0
 38 80  1  0
 38 81  1  0
 40 82  1  0
 40 83  1  0
 42 84  1  0
 43 85  1  0
 44 86  1  0
 45 87  1  0
 46 88  1  0
 46 89  1  0
 47 90  1  0
 47 91  1  0
M  END
$$$$
