
     RDKit          3D

 36 38  0  0  0  0  0  0  0  0999 V2000
    5.7056   -0.4613   -0.7201 C   0  0  0  0  0  0  0  0  0  0  0  0
    4.3468    0.3612   -1.5247 S   0  0  0  0  0  0  0  0  0  0  0  0
    4.2290   -0.2389   -2.8983 O   0  0  0  0  0  0  0  0  0  0  0  0
    4.6960    1.8032   -1.6855 O   0  0  0  0  0  0  0  0  0  0  0  0
    2.8857    0.2504   -0.6092 C   0  0  0  0  0  0  0  0  0  0  0  0
    2.0465   -0.8153   -0.8444 C   0  0  0  0  0  0  0  0  0  0  0  0
    0.8794   -0.9322   -0.1314 C   0  0  0  0  0  0  0  0  0  0  0  0
    0.4291   -0.0664    0.8357 C   0  0  0  0  0  0  0  0  0  0  0  0
    1.3428    0.9933    1.0151 C   0  0  0  0  0  0  0  0  0  0  0  0
    2.5445    1.1891    0.3394 C   0  0  0  0  0  0  0  0  0  0  0  0
   -0.7616    0.0092    1.6569 C   0  0  0  0  0  0  0  0  0  0  0  0
   -2.0260   -0.0446    1.3014 C   0  0  0  0  0  0  0  0  0  0  0  0
   -2.7385    0.0866    2.5872 C   0  0  0  0  0  0  0  0  0  0  0  0
   -3.9846    0.0953    2.8011 O   0  0  0  0  0  0  0  0  0  0  0  0
   -1.8509    0.2112    3.6377 O   0  0  0  0  0  0  0  0  0  0  0  0
   -0.5656    0.1605    3.1194 C   0  0  0  0  0  0  0  0  0  0  0  0
   -2.7722   -0.1943    0.0797 C   0  0  0  0  0  0  0  0  0  0  0  0
   -3.8198    0.7294   -0.0901 C   0  0  0  0  0  0  0  0  0  0  0  0
   -4.6885    0.8006   -1.1536 C   0  0  0  0  0  0  0  0  0  0  0  0
   -4.5161   -0.1273   -2.1563 C   0  0  0  0  0  0  0  0  0  0  0  0
   -3.5177   -1.0692   -2.0753 C   0  0  0  0  0  0  0  0  0  0  0  0
   -2.7043   -1.0606   -0.9788 C   0  0  0  0  0  0  0  0  0  0  0  0
    5.5720   -1.5622   -0.6905 H   0  0  0  0  0  0  0  0  0  0  0  0
    5.8529   -0.0080    0.2710 H   0  0  0  0  0  0  0  0  0  0  0  0
    6.6075   -0.2172   -1.3282 H   0  0  0  0  0  0  0  0  0  0  0  0
    2.2342   -1.5930   -1.5651 H   0  0  0  0  0  0  0  0  0  0  0  0
    0.2226   -1.7678   -0.2856 H   0  0  0  0  0  0  0  0  0  0  0  0
    1.1373    1.7696    1.7462 H   0  0  0  0  0  0  0  0  0  0  0  0
    3.1780    2.0363    0.5480 H   0  0  0  0  0  0  0  0  0  0  0  0
    0.0489    1.0555    3.3467 H   0  0  0  0  0  0  0  0  0  0  0  0
   -0.0470   -0.7304    3.5268 H   0  0  0  0  0  0  0  0  0  0  0  0
   -4.0111    1.4967    0.6765 H   0  0  0  0  0  0  0  0  0  0  0  0
   -5.4694    1.5382   -1.2157 H   0  0  0  0  0  0  0  0  0  0  0  0
   -5.1892   -0.0894   -3.0014 H   0  0  0  0  0  0  0  0  0  0  0  0
   -3.3518   -1.8112   -2.8378 H   0  0  0  0  0  0  0  0  0  0  0  0
   -1.9446   -1.7971   -0.9098 H   0  0  0  0  0  0  0  0  0  0  0  0
  1  2  1  0
  2  3  2  0
  2  4  2  0
  2  5  1  0
  5  6  2  0
  6  7  1  0
  7  8  2  0
  8  9  1  0
  9 10  2  0
  8 11  1  0
 11 12  2  0
 12 13  1  0
 13 14  2  0
 13 15  1  0
 15 16  1  0
 12 17  1  0
 17 18  2  0
 18 19  1  0
 19 20  2  0
 20 21  1  0
 21 22  2  0
 10  5  1  0
 16 11  1  0
 22 17  1  0
  1 23  1  0
  1 24  1  0
  1 25  1  0
  6 26  1  0
  7 27  1  0
  9 28  1  0
 10 29  1  0
 16 30  1  0
 16 31  1  0
 18 32  1  0
 19 33  1  0
 20 34  1  0
 21 35  1  0
 22 36  1  0
M  END
$$$$
