@<TRIPOS>MOLECULE
*****
 44 47 0 0 0
SMALL
GASTEIGER

@<TRIPOS>ATOM
      1 C          -3.7216   -0.7842    1.3723 C.3     1  UNL1       -0.0354
      2 C          -3.0081   -0.4735    0.0790 C.3     1  UNL1        0.0897
      3 C          -1.7715    0.2875    0.4130 C.ar    1  UNL1        0.0154
      4 C          -0.5345   -0.1578    0.0283 C.ar    1  UNL1       -0.0464
      5 C           0.6526    0.5270    0.3096 C.ar    1  UNL1        0.0021
      6 C           1.9483   -0.0382   -0.1630 C.3     1  UNL1        0.0245
      7 N           3.0223    0.7433    0.4441 N.3     1  UNL1       -0.3065
      8 C           4.2587    0.4705    0.0302 C.3     1  UNL1        0.0202
      9 C           5.0103   -0.8313    0.1838 C.3     1  UNL1       -0.0317
     10 C           5.9234    0.0210   -0.6622 C.3     1  UNL1       -0.0360
     11 C           4.6712    0.3747   -1.4255 C.3     1  UNL1       -0.0317
     12 C           5.5384    1.1582    0.2511 C.3     1  UNL1       -0.0317
     13 C           0.5333    1.7048    1.0102 C.ar    1  UNL1        0.1305
     14 F           1.6341    2.4453    1.3174 F       1  UNL1       -0.2051
     15 C          -0.6801    2.1923    1.4181 C.ar    1  UNL1        0.0095
     16 C          -1.8375    1.4730    1.1137 C.ar    1  UNL1        0.1316
     17 F          -3.0611    1.9069    1.4887 F       1  UNL1       -0.2050
     18 C          -2.7083   -1.7087   -0.7069 C.3     1  UNL1       -0.0142
     19 C          -3.9383   -2.5487   -0.8669 C.3     1  UNL1        0.0034
     20 S          -5.4139   -1.5599   -1.2498 S.3     1  UNL1       -0.0910
     21 C          -4.8574    0.1363   -1.3720 C.2     1  UNL1        0.1475
     22 N          -5.5100    1.1206   -2.1132 N.pl3   1  UNL1       -0.3380
     23 N          -3.8020    0.4318   -0.7354 N.2     1  UNL1       -0.2524
     24 H          -3.1793   -0.2946    2.2007 H       1  UNL1        0.0256
     25 H          -3.7626   -1.8721    1.5513 H       1  UNL1        0.0256
     26 H          -4.7620   -0.3938    1.3771 H       1  UNL1        0.0256
     27 H          -0.4035   -1.0942   -0.5340 H       1  UNL1        0.0626
     28 H           2.0799   -1.0837    0.1831 H       1  UNL1        0.0474
     29 H           2.0438    0.0530   -1.2634 H       1  UNL1        0.0474
     30 H           2.9578    0.6727    1.5006 H       1  UNL1        0.1228
     31 H           5.3849   -1.0519    1.2043 H       1  UNL1        0.0286
     32 H           4.5195   -1.6515   -0.3566 H       1  UNL1        0.0286
     33 H           6.8191   -0.2011   -1.0380 H       1  UNL1        0.0303
     34 H           4.7797    1.3340   -1.9370 H       1  UNL1        0.0286
     35 H           4.1759   -0.4491   -1.9663 H       1  UNL1        0.0286
     36 H           5.9913    1.1298    1.2502 H       1  UNL1        0.0286
     37 H           5.6038    2.1232   -0.2883 H       1  UNL1        0.0286
     38 H          -0.7773    3.1304    1.9794 H       1  UNL1        0.0675
     39 H          -2.3540   -1.4372   -1.7137 H       1  UNL1        0.0300
     40 H          -1.9429   -2.3577   -0.2316 H       1  UNL1        0.0300
     41 H          -4.1780   -3.1459    0.0242 H       1  UNL1        0.0381
     42 H          -3.8312   -3.2833   -1.7017 H       1  UNL1        0.0381
     43 H          -5.2656    1.2819   -3.1040 H       1  UNL1        0.1442
     44 H          -6.2476    1.7001   -1.6799 H       1  UNL1        0.1442
@<TRIPOS>BOND
     1     2     1    1
     2     2     3    1
     3     3     4   ar
     4     4     5   ar
     5     5     6    1
     6     6     7    1
     7     7     8    1
     8     8     9    1
     9     9    10    1
    10    10    11    1
    11    10    12    1
    12     5    13   ar
    13    13    14    1
    14    13    15   ar
    15    15    16   ar
    16    16    17    1
    17     2    18    1
    18    18    19    1
    19    19    20    1
    20    20    21    1
    21    21    22    1
    22    21    23    2
    23    23     2    1
    24    16     3   ar
    25    11     8    1
    26    12     8    1
    27     1    24    1
    28     1    25    1
    29     1    26    1
    30     4    27    1
    31     6    28    1
    32     6    29    1
    33     7    30    1
    34     9    31    1
    35     9    32    1
    36    10    33    1
    37    11    34    1
    38    11    35    1
    39    12    36    1
    40    12    37    1
    41    15    38    1
    42    18    39    1
    43    18    40    1
    44    19    41    1
    45    19    42    1
    46    22    43    1
    47    22    44    1
