@<TRIPOS>MOLECULE
*****
 35 35 0 0 0
SMALL
GASTEIGER

@<TRIPOS>ATOM
      1 C          -2.8468    1.6697   -0.7522 C.3     1  UNL1       -0.0411
      2 C          -2.1480    1.1606    0.4840 C.3     1  UNL1        0.0604
      3 C          -2.6855    1.8632    1.7321 C.3     1  UNL1       -0.0411
      4 C          -0.6789    1.4726    0.4718 C.2     1  UNL1       -0.0604
      5 C          -0.0431    0.3214    0.2794 C.2     1  UNL1       -0.0386
      6 C           1.4371    0.1619    0.1981 C.3     1  UNL1        0.0376
      7 S           1.9865   -0.4804   -1.2712 S.3     1  UNL1        0.0002
      8 S           3.9586   -0.7699   -1.5697 S.O2    1  UNL1        0.0174
      9 C           5.1816   -0.3739   -0.4043 C.3     1  UNL1        0.0657
     10 O           4.0197   -2.2394   -1.7946 O.2     1  UNL1       -0.1635
     11 O           4.2049    0.0807   -2.7655 O.2     1  UNL1       -0.1635
     12 C          -0.9661   -0.8285    0.1482 C.3     1  UNL1        0.0639
     13 C          -1.2132   -1.2075   -1.2931 C.3     1  UNL1       -0.0408
     14 C          -0.5319   -2.0539    0.9016 C.3     1  UNL1       -0.0408
     15 N          -2.2012   -0.2605    0.6470 N.3     1  UNL1       -0.1720
     16 O          -2.4789   -0.6612    1.9007 O.3     1  UNL1       -0.3107
     17 H          -3.4910    0.8622   -1.1499 H       1  UNL1        0.0251
     18 H          -2.1370    2.0838   -1.4967 H       1  UNL1        0.0251
     19 H          -3.5396    2.5037   -0.4476 H       1  UNL1        0.0251
     20 H          -3.5222    1.2511    2.1295 H       1  UNL1        0.0251
     21 H          -2.9981    2.8936    1.4619 H       1  UNL1        0.0251
     22 H          -1.9195    1.9311    2.5228 H       1  UNL1        0.0251
     23 H          -0.1769    2.4305    0.5916 H       1  UNL1        0.0591
     24 H           1.9594    1.1321    0.4518 H       1  UNL1        0.0438
     25 H           1.7018   -0.4949    1.0781 H       1  UNL1        0.0438
     26 H           5.2306   -1.1867    0.3723 H       1  UNL1        0.0474
     27 H           4.9201    0.5375    0.1937 H       1  UNL1        0.0474
     28 H           6.1202   -0.2423   -0.9320 H       1  UNL1        0.0474
     29 H          -1.3408   -0.2778   -1.8957 H       1  UNL1        0.0251
     30 H          -2.1870   -1.7372   -1.3304 H       1  UNL1        0.0251
     31 H          -0.4359   -1.8490   -1.7157 H       1  UNL1        0.0251
     32 H           0.0404   -2.7033    0.1900 H       1  UNL1        0.0251
     33 H          -1.4631   -2.6352    1.1339 H       1  UNL1        0.0251
     34 H           0.0035   -1.8384    1.8386 H       1  UNL1        0.0251
     35 H          -1.7596   -0.5158    2.5344 H       1  UNL1        0.2366
@<TRIPOS>BOND
     1     1     2    1
     2     2     3    1
     3     2     4    1
     4     4     5    2
     5     5     6    1
     6     6     7    1
     7     7     8    1
     8     8     9    1
     9     8    10    2
    10     8    11    2
    11     5    12    1
    12    12    13    1
    13    12    14    1
    14    12    15    1
    15    15    16    1
    16    15     2    1
    17     1    17    1
    18     1    18    1
    19     1    19    1
    20     3    20    1
    21     3    21    1
    22     3    22    1
    23     4    23    1
    24     6    24    1
    25     6    25    1
    26     9    26    1
    27     9    27    1
    28     9    28    1
    29    13    29    1
    30    13    30    1
    31    13    31    1
    32    14    32    1
    33    14    33    1
    34    14    34    1
    35    16    35    1
