
     RDKit          3D

 35 35  0  0  0  0  0  0  0  0999 V2000
   -2.8468    1.6697   -0.7522 C   0  0  0  0  0  0  0  0  0  0  0  0
   -2.1480    1.1606    0.4840 C   0  0  0  0  0  0  0  0  0  0  0  0
   -2.6855    1.8632    1.7321 C   0  0  0  0  0  0  0  0  0  0  0  0
   -0.6789    1.4726    0.4718 C   0  0  0  0  0  0  0  0  0  0  0  0
   -0.0431    0.3214    0.2794 C   0  0  0  0  0  0  0  0  0  0  0  0
    1.4371    0.1619    0.1981 C   0  0  0  0  0  0  0  0  0  0  0  0
    1.9865   -0.4804   -1.2712 S   0  0  0  0  0  0  0  0  0  0  0  0
    3.9586   -0.7699   -1.5697 S   0  0  0  0  0  0  0  0  0  0  0  0
    5.1816   -0.3739   -0.4043 C   0  0  0  0  0  0  0  0  0  0  0  0
    4.0197   -2.2394   -1.7946 O   0  0  0  0  0  0  0  0  0  0  0  0
    4.2049    0.0807   -2.7655 O   0  0  0  0  0  0  0  0  0  0  0  0
   -0.9661   -0.8285    0.1482 C   0  0  0  0  0  0  0  0  0  0  0  0
   -1.2132   -1.2075   -1.2931 C   0  0  0  0  0  0  0  0  0  0  0  0
   -0.5319   -2.0539    0.9016 C   0  0  0  0  0  0  0  0  0  0  0  0
   -2.2012   -0.2605    0.6470 N   0  0  0  0  0  0  0  0  0  0  0  0
   -2.4789   -0.6612    1.9007 O   0  0  0  0  0  0  0  0  0  0  0  0
   -3.4910    0.8622   -1.1499 H   0  0  0  0  0  0  0  0  0  0  0  0
   -2.1370    2.0838   -1.4967 H   0  0  0  0  0  0  0  0  0  0  0  0
   -3.5396    2.5037   -0.4476 H   0  0  0  0  0  0  0  0  0  0  0  0
   -3.5222    1.2511    2.1295 H   0  0  0  0  0  0  0  0  0  0  0  0
   -2.9981    2.8936    1.4619 H   0  0  0  0  0  0  0  0  0  0  0  0
   -1.9195    1.9311    2.5228 H   0  0  0  0  0  0  0  0  0  0  0  0
   -0.1769    2.4305    0.5916 H   0  0  0  0  0  0  0  0  0  0  0  0
    1.9594    1.1321    0.4518 H   0  0  0  0  0  0  0  0  0  0  0  0
    1.7018   -0.4949    1.0781 H   0  0  0  0  0  0  0  0  0  0  0  0
    5.2306   -1.1867    0.3723 H   0  0  0  0  0  0  0  0  0  0  0  0
    4.9201    0.5375    0.1937 H   0  0  0  0  0  0  0  0  0  0  0  0
    6.1202   -0.2423   -0.9320 H   0  0  0  0  0  0  0  0  0  0  0  0
   -1.3408   -0.2778   -1.8957 H   0  0  0  0  0  0  0  0  0  0  0  0
   -2.1870   -1.7372   -1.3304 H   0  0  0  0  0  0  0  0  0  0  0  0
   -0.4359   -1.8490   -1.7157 H   0  0  0  0  0  0  0  0  0  0  0  0
    0.0404   -2.7033    0.1900 H   0  0  0  0  0  0  0  0  0  0  0  0
   -1.4631   -2.6352    1.1339 H   0  0  0  0  0  0  0  0  0  0  0  0
    0.0035   -1.8384    1.8386 H   0  0  0  0  0  0  0  0  0  0  0  0
   -1.7596   -0.5158    2.5344 H   0  0  0  0  0  0  0  0  0  0  0  0
  1  2  1  0
  2  3  1  0
  2  4  1  0
  4  5  2  0
  5  6  1  0
  6  7  1  0
  7  8  1  0
  8  9  1  0
  8 10  2  0
  8 11  2  0
  5 12  1  0
 12 13  1  0
 12 14  1  0
 12 15  1  0
 15 16  1  0
 15  2  1  0
  1 17  1  0
  1 18  1  0
  1 19  1  0
  3 20  1  0
  3 21  1  0
  3 22  1  0
  4 23  1  0
  6 24  1  0
  6 25  1  0
  9 26  1  0
  9 27  1  0
  9 28  1  0
 13 29  1  0
 13 30  1  0
 13 31  1  0
 14 32  1  0
 14 33  1  0
 14 34  1  0
 16 35  1  0
M  END
$$$$
