@<TRIPOS>MOLECULE
*****
 47 50 0 0 0
SMALL
GASTEIGER

@<TRIPOS>ATOM
      1 C           2.6536   -2.3254   -0.0049 C.3     1  UNL1       -0.0208
      2 C           2.4738   -0.9904    0.6903 C.3     1  UNL1        0.1329
      3 C           2.9883   -1.2151    2.1209 C.3     1  UNL1       -0.0208
      4 O           1.1281   -0.6334    0.8203 O.3     1  UNL1       -0.4535
      5 C           0.2384   -0.4491   -0.2356 C.2     1  UNL1        0.3142
      6 O           0.7153   -0.6250   -1.3865 O.2     1  UNL1       -0.2502
      7 C          -1.1746   -0.0724   -0.0422 C.3     1  UNL1        0.0685
      8 C          -1.3073    1.2580    0.6776 C.3     1  UNL1       -0.0344
      9 C          -2.7532    1.6356    0.7374 C.3     1  UNL1       -0.0395
     10 C          -3.5137    0.6180    1.5569 C.3     1  UNL1       -0.0473
     11 C          -3.3669   -0.7154    0.8721 C.3     1  UNL1       -0.0395
     12 C          -3.9283   -0.7143   -0.5310 C.3     1  UNL1       -0.0473
     13 C          -3.2873    0.4025   -1.3004 C.3     1  UNL1       -0.0395
     14 C          -3.4106    1.7406   -0.6006 C.3     1  UNL1       -0.0473
     15 C          -1.8047    0.1001   -1.4058 C.3     1  UNL1       -0.0344
     16 C          -1.9196   -1.0969    0.7944 C.3     1  UNL1       -0.0344
     17 C           3.3025    0.0111    0.0220 C.ar    1  UNL1       -0.0019
     18 C           3.3549    1.3396    0.4180 C.ar    1  UNL1       -0.0367
     19 C           4.1472    2.2661   -0.2307 C.ar    1  UNL1        0.0279
     20 N           4.8877    1.8609   -1.2771 N.ar    1  UNL1       -0.2632
     21 C           4.8840    0.5822   -1.7155 C.ar    1  UNL1        0.0279
     22 C           4.0856   -0.3346   -1.0560 C.ar    1  UNL1       -0.0367
     23 H           1.8999   -3.0116    0.4828 H       1  UNL1        0.0271
     24 H           3.6728   -2.7228    0.1102 H       1  UNL1        0.0271
     25 H           2.3342   -2.2709   -1.0624 H       1  UNL1        0.0271
     26 H           4.0237   -1.6048    2.1023 H       1  UNL1        0.0271
     27 H           2.9536   -0.2646    2.6945 H       1  UNL1        0.0271
     28 H           2.2705   -1.9080    2.5943 H       1  UNL1        0.0271
     29 H          -0.9760    1.0649    1.7320 H       1  UNL1        0.0278
     30 H          -0.6658    2.0394    0.2641 H       1  UNL1        0.0278
     31 H          -2.8230    2.6319    1.2493 H       1  UNL1        0.0301
     32 H          -4.5677    0.9472    1.5898 H       1  UNL1        0.0271
     33 H          -3.1601    0.5222    2.5847 H       1  UNL1        0.0271
     34 H          -3.9101   -1.4632    1.5005 H       1  UNL1        0.0301
     35 H          -3.6031   -1.6691   -1.0016 H       1  UNL1        0.0271
     36 H          -5.0256   -0.7080   -0.5559 H       1  UNL1        0.0271
     37 H          -3.6772    0.5271   -2.3186 H       1  UNL1        0.0301
     38 H          -2.9043    2.4824   -1.2678 H       1  UNL1        0.0271
     39 H          -4.4787    1.9404   -0.4637 H       1  UNL1        0.0271
     40 H          -1.3150    0.9961   -1.8664 H       1  UNL1        0.0278
     41 H          -1.6737   -0.8017   -2.0332 H       1  UNL1        0.0278
     42 H          -1.8454   -2.0950    0.2981 H       1  UNL1        0.0278
     43 H          -1.4198   -1.1220    1.7775 H       1  UNL1        0.0278
     44 H           2.7362    1.6193    1.2720 H       1  UNL1        0.0637
     45 H           4.1635    3.3039    0.1089 H       1  UNL1        0.0829
     46 H           5.4887    0.2710   -2.5632 H       1  UNL1        0.0829
     47 H           4.1093   -1.3470   -1.4351 H       1  UNL1        0.0637
@<TRIPOS>BOND
     1     1     2    1
     2     2     3    1
     3     2     4    1
     4     4     5    1
     5     5     6    2
     6     5     7    1
     7     7     8    1
     8     8     9    1
     9     9    10    1
    10    10    11    1
    11    11    12    1
    12    12    13    1
    13    13    14    1
    14    13    15    1
    15    11    16    1
    16     2    17    1
    17    17    18   ar
    18    18    19   ar
    19    19    20   ar
    20    20    21   ar
    21    21    22   ar
    22    15     7    1
    23    22    17   ar
    24    16     7    1
    25    14     9    1
    26     1    23    1
    27     1    24    1
    28     1    25    1
    29     3    26    1
    30     3    27    1
    31     3    28    1
    32     8    29    1
    33     8    30    1
    34     9    31    1
    35    10    32    1
    36    10    33    1
    37    11    34    1
    38    12    35    1
    39    12    36    1
    40    13    37    1
    41    14    38    1
    42    14    39    1
    43    15    40    1
    44    15    41    1
    45    16    42    1
    46    16    43    1
    47    18    44    1
    48    19    45    1
    49    21    46    1
    50    22    47    1
