
     RDKit          3D

 47 50  0  0  0  0  0  0  0  0999 V2000
    2.6536   -2.3254   -0.0049 C   0  0  0  0  0  0  0  0  0  0  0  0
    2.4738   -0.9904    0.6903 C   0  0  0  0  0  0  0  0  0  0  0  0
    2.9883   -1.2151    2.1209 C   0  0  0  0  0  0  0  0  0  0  0  0
    1.1281   -0.6334    0.8203 O   0  0  0  0  0  0  0  0  0  0  0  0
    0.2384   -0.4491   -0.2356 C   0  0  0  0  0  0  0  0  0  0  0  0
    0.7153   -0.6250   -1.3865 O   0  0  0  0  0  0  0  0  0  0  0  0
   -1.1746   -0.0724   -0.0422 C   0  0  0  0  0  0  0  0  0  0  0  0
   -1.3073    1.2580    0.6776 C   0  0  0  0  0  0  0  0  0  0  0  0
   -2.7532    1.6356    0.7374 C   0  0  0  0  0  0  0  0  0  0  0  0
   -3.5137    0.6180    1.5569 C   0  0  0  0  0  0  0  0  0  0  0  0
   -3.3669   -0.7154    0.8721 C   0  0  0  0  0  0  0  0  0  0  0  0
   -3.9283   -0.7143   -0.5310 C   0  0  0  0  0  0  0  0  0  0  0  0
   -3.2873    0.4025   -1.3004 C   0  0  0  0  0  0  0  0  0  0  0  0
   -3.4106    1.7406   -0.6006 C   0  0  0  0  0  0  0  0  0  0  0  0
   -1.8047    0.1001   -1.4058 C   0  0  0  0  0  0  0  0  0  0  0  0
   -1.9196   -1.0969    0.7944 C   0  0  0  0  0  0  0  0  0  0  0  0
    3.3025    0.0111    0.0220 C   0  0  0  0  0  0  0  0  0  0  0  0
    3.3549    1.3396    0.4180 C   0  0  0  0  0  0  0  0  0  0  0  0
    4.1472    2.2661   -0.2307 C   0  0  0  0  0  0  0  0  0  0  0  0
    4.8877    1.8609   -1.2771 N   0  0  0  0  0  0  0  0  0  0  0  0
    4.8840    0.5822   -1.7155 C   0  0  0  0  0  0  0  0  0  0  0  0
    4.0856   -0.3346   -1.0560 C   0  0  0  0  0  0  0  0  0  0  0  0
    1.8999   -3.0116    0.4828 H   0  0  0  0  0  0  0  0  0  0  0  0
    3.6728   -2.7228    0.1102 H   0  0  0  0  0  0  0  0  0  0  0  0
    2.3342   -2.2709   -1.0624 H   0  0  0  0  0  0  0  0  0  0  0  0
    4.0237   -1.6048    2.1023 H   0  0  0  0  0  0  0  0  0  0  0  0
    2.9536   -0.2646    2.6945 H   0  0  0  0  0  0  0  0  0  0  0  0
    2.2705   -1.9080    2.5943 H   0  0  0  0  0  0  0  0  0  0  0  0
   -0.9760    1.0649    1.7320 H   0  0  0  0  0  0  0  0  0  0  0  0
   -0.6658    2.0394    0.2641 H   0  0  0  0  0  0  0  0  0  0  0  0
   -2.8230    2.6319    1.2493 H   0  0  0  0  0  0  0  0  0  0  0  0
   -4.5677    0.9472    1.5898 H   0  0  0  0  0  0  0  0  0  0  0  0
   -3.1601    0.5222    2.5847 H   0  0  0  0  0  0  0  0  0  0  0  0
   -3.9101   -1.4632    1.5005 H   0  0  0  0  0  0  0  0  0  0  0  0
   -3.6031   -1.6691   -1.0016 H   0  0  0  0  0  0  0  0  0  0  0  0
   -5.0256   -0.7080   -0.5559 H   0  0  0  0  0  0  0  0  0  0  0  0
   -3.6772    0.5271   -2.3186 H   0  0  0  0  0  0  0  0  0  0  0  0
   -2.9043    2.4824   -1.2678 H   0  0  0  0  0  0  0  0  0  0  0  0
   -4.4787    1.9404   -0.4637 H   0  0  0  0  0  0  0  0  0  0  0  0
   -1.3150    0.9961   -1.8664 H   0  0  0  0  0  0  0  0  0  0  0  0
   -1.6737   -0.8017   -2.0332 H   0  0  0  0  0  0  0  0  0  0  0  0
   -1.8454   -2.0950    0.2981 H   0  0  0  0  0  0  0  0  0  0  0  0
   -1.4198   -1.1220    1.7775 H   0  0  0  0  0  0  0  0  0  0  0  0
    2.7362    1.6193    1.2720 H   0  0  0  0  0  0  0  0  0  0  0  0
    4.1635    3.3039    0.1089 H   0  0  0  0  0  0  0  0  0  0  0  0
    5.4887    0.2710   -2.5632 H   0  0  0  0  0  0  0  0  0  0  0  0
    4.1093   -1.3470   -1.4351 H   0  0  0  0  0  0  0  0  0  0  0  0
  1  2  1  0
  2  3  1  0
  2  4  1  0
  4  5  1  0
  5  6  2  0
  5  7  1  0
  7  8  1  0
  8  9  1  0
  9 10  1  0
 10 11  1  0
 11 12  1  0
 12 13  1  0
 13 14  1  0
 13 15  1  0
 11 16  1  0
  2 17  1  0
 17 18  2  0
 18 19  1  0
 19 20  2  0
 20 21  1  0
 21 22  2  0
 15  7  1  0
 22 17  1  0
 16  7  1  0
 14  9  1  0
  1 23  1  0
  1 24  1  0
  1 25  1  0
  3 26  1  0
  3 27  1  0
  3 28  1  0
  8 29  1  0
  8 30  1  0
  9 31  1  0
 10 32  1  0
 10 33  1  0
 11 34  1  0
 12 35  1  0
 12 36  1  0
 13 37  1  0
 14 38  1  0
 14 39  1  0
 15 40  1  0
 15 41  1  0
 16 42  1  0
 16 43  1  0
 18 44  1  0
 19 45  1  0
 21 46  1  0
 22 47  1  0
M  END
$$$$
