@<TRIPOS>MOLECULE
*****
 11 10 0 0 0
SMALL
GASTEIGER

@<TRIPOS>ATOM
      1 N          -1.4282   -0.6658    0.0939 N.3     1  UNL1       -0.3292
      2 C          -0.6449    0.5317   -0.1688 C.3     1  UNL1        0.0019
      3 C           0.6479    0.3838    0.6303 C.3     1  UNL1        0.0030
      4 S           1.5631   -1.0744    0.1289 S.3     1  UNL1       -0.1770
      5 H          -2.1487   -0.4673    0.8170 H       1  UNL1        0.1182
      6 H          -0.8320   -1.4470    0.4631 H       1  UNL1        0.1182
      7 H          -0.4763    0.7278   -1.2269 H       1  UNL1        0.0430
      8 H          -1.1325    1.4327    0.2937 H       1  UNL1        0.0430
      9 H           1.2374    1.3135    0.5325 H       1  UNL1        0.0386
     10 H           0.2980    0.2331    1.6762 H       1  UNL1        0.0386
     11 H           2.9162   -0.9681    0.4697 H       1  UNL1        0.1017
@<TRIPOS>BOND
     1     1     2    1
     2     2     3    1
     3     3     4    1
     4     1     5    1
     5     1     6    1
     6     2     7    1
     7     2     8    1
     8     3     9    1
     9     3    10    1
    10     4    11    1
