
     RDKit          3D

 11 10  0  0  0  0  0  0  0  0999 V2000
   -1.4282   -0.6658    0.0939 N   0  0  0  0  0  0  0  0  0  0  0  0
   -0.6449    0.5317   -0.1688 C   0  0  0  0  0  0  0  0  0  0  0  0
    0.6479    0.3838    0.6303 C   0  0  0  0  0  0  0  0  0  0  0  0
    1.5631   -1.0744    0.1289 S   0  0  0  0  0  0  0  0  0  0  0  0
   -2.1487   -0.4673    0.8170 H   0  0  0  0  0  0  0  0  0  0  0  0
   -0.8320   -1.4470    0.4631 H   0  0  0  0  0  0  0  0  0  0  0  0
   -0.4763    0.7278   -1.2269 H   0  0  0  0  0  0  0  0  0  0  0  0
   -1.1325    1.4327    0.2937 H   0  0  0  0  0  0  0  0  0  0  0  0
    1.2374    1.3135    0.5325 H   0  0  0  0  0  0  0  0  0  0  0  0
    0.2980    0.2331    1.6762 H   0  0  0  0  0  0  0  0  0  0  0  0
    2.9162   -0.9681    0.4697 H   0  0  0  0  0  0  0  0  0  0  0  0
  1  2  1  0
  2  3  1  0
  3  4  1  0
  1  5  1  0
  1  6  1  0
  2  7  1  0
  2  8  1  0
  3  9  1  0
  3 10  1  0
  4 11  1  0
M  END
$$$$
