@<TRIPOS>MOLECULE
*****
 41 41 0 0 0
SMALL
GASTEIGER

@<TRIPOS>ATOM
      1 C          -5.4891   -0.9511    1.0920 C.3     1  UNL1       -0.0653
      2 C          -4.5279   -0.2863    0.0985 C.3     1  UNL1       -0.0559
      3 C          -3.2152   -1.0499    0.0918 C.3     1  UNL1       -0.0533
      4 C          -2.2247   -0.4432   -0.8687 C.3     1  UNL1       -0.0531
      5 C          -1.8933    0.9911   -0.5270 C.3     1  UNL1       -0.0531
      6 C          -1.3029    1.1793    0.8031 C.3     1  UNL1       -0.0531
      7 C          -0.0644    0.4750    1.1396 C.3     1  UNL1       -0.0530
      8 C           1.1999    0.7343    0.4362 C.3     1  UNL1       -0.0528
      9 C           1.3355    0.5049   -1.0131 C.3     1  UNL1       -0.0488
     10 C           2.8071    0.7937   -1.3632 C.3     1  UNL1       -0.0191
     11 C           3.7265   -0.0837   -0.6323 C.2     1  UNL1        0.0612
     12 C           4.6897    0.2913    0.2191 C.2     1  UNL1        0.1876
     13 O           4.9790    1.6070    0.5543 O.2     1  UNL1       -0.5020
     14 C           5.4099   -0.8284    0.7631 C.2     1  UNL1        0.2854
     15 O           6.3628   -0.8000    1.5826 O.2     1  UNL1       -0.2664
     16 N           4.8293   -2.0124    0.1865 N.am    1  UNL1       -0.2460
     17 C           3.7991   -1.5386   -0.6661 C.2     1  UNL1        0.2502
     18 O           3.0641   -2.3178   -1.3484 O.2     1  UNL1       -0.2700
     19 H          -5.1883   -0.6127    2.1007 H       1  UNL1        0.0230
     20 H          -5.3845   -2.0538    1.0258 H       1  UNL1        0.0230
     21 H          -6.5190   -0.6377    0.8636 H       1  UNL1        0.0230
     22 H          -4.3995    0.7445    0.4826 H       1  UNL1        0.0263
     23 H          -4.9862   -0.2506   -0.8956 H       1  UNL1        0.0263
     24 H          -2.8719   -1.1183    1.1280 H       1  UNL1        0.0265
     25 H          -3.4024   -2.0865   -0.2569 H       1  UNL1        0.0265
     26 H          -1.2988   -1.0141   -0.9190 H       1  UNL1        0.0265
     27 H          -2.6972   -0.4407   -1.8670 H       1  UNL1        0.0265
     28 H          -1.3023    1.4146   -1.3244 H       1  UNL1        0.0265
     29 H          -2.8828    1.5905   -0.6005 H       1  UNL1        0.0265
     30 H          -2.0509    1.0592    1.6426 H       1  UNL1        0.0265
     31 H          -1.0830    2.3047    0.8877 H       1  UNL1        0.0265
     32 H           0.1690    0.6750    2.2556 H       1  UNL1        0.0265
     33 H          -0.2623   -0.6514    1.1988 H       1  UNL1        0.0265
     34 H           2.0371    0.1942    0.9758 H       1  UNL1        0.0265
     35 H           1.4673    1.8299    0.6069 H       1  UNL1        0.0265
     36 H           0.8225    1.3500   -1.5694 H       1  UNL1        0.0268
     37 H           0.9639   -0.4203   -1.4320 H       1  UNL1        0.0268
     38 H           3.0069    1.8487   -1.1079 H       1  UNL1        0.0316
     39 H           2.9652    0.6888   -2.4565 H       1  UNL1        0.0316
     40 H           4.2747    2.3251    0.4591 H       1  UNL1        0.2924
     41 H           5.1368   -3.0042    0.3848 H       1  UNL1        0.1582
@<TRIPOS>BOND
     1     1     2    1
     2     2     3    1
     3     3     4    1
     4     4     5    1
     5     5     6    1
     6     6     7    1
     7     7     8    1
     8     8     9    1
     9     9    10    1
    10    10    11    1
    11    11    12    2
    12    12    13    1
    13    12    14    1
    14    14    15    2
    15    14    16   am
    16    16    17   am
    17    17    18    2
    18    17    11    1
    19     1    19    1
    20     1    20    1
    21     1    21    1
    22     2    22    1
    23     2    23    1
    24     3    24    1
    25     3    25    1
    26     4    26    1
    27     4    27    1
    28     5    28    1
    29     5    29    1
    30     6    30    1
    31     6    31    1
    32     7    32    1
    33     7    33    1
    34     8    34    1
    35     8    35    1
    36     9    36    1
    37     9    37    1
    38    10    38    1
    39    10    39    1
    40    13    40    1
    41    16    41    1
