
     RDKit          3D

 41 41  0  0  0  0  0  0  0  0999 V2000
   -5.4891   -0.9511    1.0920 C   0  0  0  0  0  0  0  0  0  0  0  0
   -4.5279   -0.2863    0.0985 C   0  0  0  0  0  0  0  0  0  0  0  0
   -3.2152   -1.0499    0.0918 C   0  0  0  0  0  0  0  0  0  0  0  0
   -2.2247   -0.4432   -0.8687 C   0  0  0  0  0  0  0  0  0  0  0  0
   -1.8933    0.9911   -0.5270 C   0  0  0  0  0  0  0  0  0  0  0  0
   -1.3029    1.1793    0.8031 C   0  0  0  0  0  0  0  0  0  0  0  0
   -0.0644    0.4750    1.1396 C   0  0  0  0  0  0  0  0  0  0  0  0
    1.1999    0.7343    0.4362 C   0  0  0  0  0  0  0  0  0  0  0  0
    1.3355    0.5049   -1.0131 C   0  0  0  0  0  0  0  0  0  0  0  0
    2.8071    0.7937   -1.3632 C   0  0  0  0  0  0  0  0  0  0  0  0
    3.7265   -0.0837   -0.6323 C   0  0  0  0  0  0  0  0  0  0  0  0
    4.6897    0.2913    0.2191 C   0  0  0  0  0  0  0  0  0  0  0  0
    4.9790    1.6070    0.5543 O   0  0  0  0  0  0  0  0  0  0  0  0
    5.4099   -0.8284    0.7631 C   0  0  0  0  0  0  0  0  0  0  0  0
    6.3628   -0.8000    1.5826 O   0  0  0  0  0  0  0  0  0  0  0  0
    4.8293   -2.0124    0.1865 N   0  0  0  0  0  0  0  0  0  0  0  0
    3.7991   -1.5386   -0.6661 C   0  0  0  0  0  0  0  0  0  0  0  0
    3.0641   -2.3178   -1.3484 O   0  0  0  0  0  0  0  0  0  0  0  0
   -5.1883   -0.6127    2.1007 H   0  0  0  0  0  0  0  0  0  0  0  0
   -5.3845   -2.0538    1.0258 H   0  0  0  0  0  0  0  0  0  0  0  0
   -6.5190   -0.6377    0.8636 H   0  0  0  0  0  0  0  0  0  0  0  0
   -4.3995    0.7445    0.4826 H   0  0  0  0  0  0  0  0  0  0  0  0
   -4.9862   -0.2506   -0.8956 H   0  0  0  0  0  0  0  0  0  0  0  0
   -2.8719   -1.1183    1.1280 H   0  0  0  0  0  0  0  0  0  0  0  0
   -3.4024   -2.0865   -0.2569 H   0  0  0  0  0  0  0  0  0  0  0  0
   -1.2988   -1.0141   -0.9190 H   0  0  0  0  0  0  0  0  0  0  0  0
   -2.6972   -0.4407   -1.8670 H   0  0  0  0  0  0  0  0  0  0  0  0
   -1.3023    1.4146   -1.3244 H   0  0  0  0  0  0  0  0  0  0  0  0
   -2.8828    1.5905   -0.6005 H   0  0  0  0  0  0  0  0  0  0  0  0
   -2.0509    1.0592    1.6426 H   0  0  0  0  0  0  0  0  0  0  0  0
   -1.0830    2.3047    0.8877 H   0  0  0  0  0  0  0  0  0  0  0  0
    0.1690    0.6750    2.2556 H   0  0  0  0  0  0  0  0  0  0  0  0
   -0.2623   -0.6514    1.1988 H   0  0  0  0  0  0  0  0  0  0  0  0
    2.0371    0.1942    0.9758 H   0  0  0  0  0  0  0  0  0  0  0  0
    1.4673    1.8299    0.6069 H   0  0  0  0  0  0  0  0  0  0  0  0
    0.8225    1.3500   -1.5694 H   0  0  0  0  0  0  0  0  0  0  0  0
    0.9639   -0.4203   -1.4320 H   0  0  0  0  0  0  0  0  0  0  0  0
    3.0069    1.8487   -1.1079 H   0  0  0  0  0  0  0  0  0  0  0  0
    2.9652    0.6888   -2.4565 H   0  0  0  0  0  0  0  0  0  0  0  0
    4.2747    2.3251    0.4591 H   0  0  0  0  0  0  0  0  0  0  0  0
    5.1368   -3.0042    0.3848 H   0  0  0  0  0  0  0  0  0  0  0  0
  1  2  1  0
  2  3  1  0
  3  4  1  0
  4  5  1  0
  5  6  1  0
  6  7  1  0
  7  8  1  0
  8  9  1  0
  9 10  1  0
 10 11  1  0
 11 12  2  0
 12 13  1  0
 12 14  1  0
 14 15  2  0
 14 16  1  0
 16 17  1  0
 17 18  2  0
 17 11  1  0
  1 19  1  0
  1 20  1  0
  1 21  1  0
  2 22  1  0
  2 23  1  0
  3 24  1  0
  3 25  1  0
  4 26  1  0
  4 27  1  0
  5 28  1  0
  5 29  1  0
  6 30  1  0
  6 31  1  0
  7 32  1  0
  7 33  1  0
  8 34  1  0
  8 35  1  0
  9 36  1  0
  9 37  1  0
 10 38  1  0
 10 39  1  0
 13 40  1  0
 16 41  1  0
M  END
$$$$
