
     RDKit          3D

 39 42  0  0  0  0  0  0  0  0999 V2000
    6.8325   -1.0915   -0.3789 C   0  0  0  0  0  0  0  0  0  0  0  0
    6.0146   -0.3279    0.9873 S   0  0  0  0  0  6  0  0  0  0  0  0
    6.7261    0.9462    1.3400 O   0  0  0  0  0  0  0  0  0  0  0  0
    6.0731   -1.2271    2.1892 O   0  0  0  0  0  0  0  0  0  0  0  0
    4.3492    0.0883    0.6065 C   0  0  0  0  0  0  0  0  0  0  0  0
    3.3431   -0.8255    0.8498 C   0  0  0  0  0  0  0  0  0  0  0  0
    2.0448   -0.4591    0.5353 C   0  0  0  0  0  0  0  0  0  0  0  0
    1.7553    0.7718   -0.0021 C   0  0  0  0  0  0  0  0  0  0  0  0
    0.3806    1.1027   -0.3119 C   0  0  0  0  0  0  0  0  0  0  0  0
    0.1318    2.3345   -0.8445 N   0  0  0  0  0  0  0  0  0  0  0  0
   -1.0900    2.7294   -1.1617 C   0  0  0  0  0  0  0  0  0  0  0  0
   -2.1559    1.8450   -0.9388 C   0  0  0  0  0  0  0  0  0  0  0  0
   -1.9511    0.6090   -0.4083 C   0  0  0  0  0  0  0  0  0  0  0  0
   -2.9645   -0.4203   -0.1759 C   0  0  0  0  0  0  0  0  0  0  0  0
   -2.6713   -1.7969   -0.0717 C   0  0  0  0  0  0  0  0  0  0  0  0
   -3.8036   -2.4612    0.1776 N   0  0  0  0  0  0  0  0  0  0  0  0
   -4.8404   -1.6107    0.2481 C   0  0  0  0  0  0  0  0  0  0  0  0
   -6.1676   -1.8633    0.4977 C   0  0  0  0  0  0  0  0  0  0  0  0
   -6.9958   -0.8057    0.5304 N   0  0  0  0  0  0  0  0  0  0  0  0
   -6.5356    0.4491    0.3264 C   0  0  0  0  0  0  0  0  0  0  0  0
   -5.1872    0.7153    0.0715 C   0  0  0  0  0  0  0  0  0  0  0  0
   -4.3139   -0.3346    0.0280 C   0  0  0  0  0  0  0  0  0  0  0  0
   -0.6471    0.2842   -0.1100 N   0  0  0  0  0  0  0  0  0  0  0  0
    2.7747    1.6614   -0.2338 C   0  0  0  0  0  0  0  0  0  0  0  0
    4.1008    1.3309    0.0696 C   0  0  0  0  0  0  0  0  0  0  0  0
    7.9405   -0.9677   -0.2074 H   0  0  0  0  0  0  0  0  0  0  0  0
    6.6110   -2.1557   -0.4874 H   0  0  0  0  0  0  0  0  0  0  0  0
    6.5995   -0.5599   -1.3244 H   0  0  0  0  0  0  0  0  0  0  0  0
    3.5495   -1.7876    1.2673 H   0  0  0  0  0  0  0  0  0  0  0  0
    1.2444   -1.1464    0.7127 H   0  0  0  0  0  0  0  0  0  0  0  0
   -1.3251    3.7131   -1.5917 H   0  0  0  0  0  0  0  0  0  0  0  0
   -3.1497    2.1454   -1.2253 H   0  0  0  0  0  0  0  0  0  0  0  0
   -1.6694   -2.1904   -0.1861 H   0  0  0  0  0  0  0  0  0  0  0  0
   -3.8956   -3.5140    0.3058 H   0  0  0  0  0  0  0  0  0  0  0  0
   -6.5954   -2.8380    0.6685 H   0  0  0  0  0  0  0  0  0  0  0  0
   -7.2006    1.2994    0.3534 H   0  0  0  0  0  0  0  0  0  0  0  0
   -4.8425    1.7128   -0.0629 H   0  0  0  0  0  0  0  0  0  0  0  0
    2.6032    2.6473   -0.6565 H   0  0  0  0  0  0  0  0  0  0  0  0
    4.9277    1.9974   -0.0959 H   0  0  0  0  0  0  0  0  0  0  0  0
  1  2  1  0
  2  3  2  0
  2  4  2  0
  2  5  1  0
  5  6  2  0
  6  7  1  0
  7  8  2  0
  8  9  1  0
  9 10  2  0
 10 11  1  0
 11 12  2  0
 12 13  1  0
 13 14  1  0
 14 15  2  0
 15 16  1  0
 16 17  1  0
 17 18  2  0
 18 19  1  0
 19 20  2  0
 20 21  1  0
 21 22  2  0
 13 23  2  0
  8 24  1  0
 24 25  2  0
 25  5  1  0
 23  9  1  0
 22 14  1  0
 22 17  1  0
  1 26  1  0
  1 27  1  0
  1 28  1  0
  6 29  1  0
  7 30  1  0
 11 31  1  0
 12 32  1  0
 15 33  1  0
 16 34  1  0
 18 35  1  0
 20 36  1  0
 21 37  1  0
 24 38  1  0
 25 39  1  0
M  END
$$$$
