@<TRIPOS>MOLECULE
*****
 39 42 0 0 0
SMALL
GASTEIGER

@<TRIPOS>ATOM
      1 C           6.8325   -1.0915   -0.3789 C.3     1  UNL1        0.0596
      2 S           6.0146   -0.3279    0.9873 S.O2    1  UNL1       -0.0059
      3 O           6.7261    0.9462    1.3400 O.2     1  UNL1       -0.1696
      4 O           6.0731   -1.2271    2.1892 O.2     1  UNL1       -0.1696
      5 C           4.3492    0.0883    0.6065 C.ar    1  UNL1        0.0879
      6 C           3.3431   -0.8255    0.8498 C.ar    1  UNL1       -0.0362
      7 C           2.0448   -0.4591    0.5353 C.ar    1  UNL1       -0.0493
      8 C           1.7553    0.7718   -0.0021 C.ar    1  UNL1        0.0192
      9 C           0.3806    1.1027   -0.3119 C.ar    1  UNL1        0.1603
     10 N           0.1318    2.3345   -0.8445 N.ar    1  UNL1       -0.2356
     11 C          -1.0900    2.7294   -1.1617 C.ar    1  UNL1        0.0320
     12 C          -2.1559    1.8450   -0.9388 C.ar    1  UNL1       -0.0174
     13 C          -1.9511    0.6090   -0.4083 C.ar    1  UNL1        0.0768
     14 C          -2.9645   -0.4203   -0.1759 C.ar    1  UNL1        0.0256
     15 C          -2.6713   -1.7969   -0.0717 C.ar    1  UNL1        0.0120
     16 N          -3.8036   -2.4612    0.1776 N.ar    1  UNL1       -0.3588
     17 C          -4.8404   -1.6107    0.2481 C.ar    1  UNL1        0.0655
     18 C          -6.1676   -1.8633    0.4977 C.ar    1  UNL1        0.0514
     19 N          -6.9958   -0.8057    0.5304 N.ar    1  UNL1       -0.2612
     20 C          -6.5356    0.4491    0.3264 C.ar    1  UNL1        0.0283
     21 C          -5.1872    0.7153    0.0715 C.ar    1  UNL1       -0.0338
     22 C          -4.3139   -0.3346    0.0280 C.ar    1  UNL1        0.0117
     23 N          -0.6471    0.2842   -0.1100 N.ar    1  UNL1       -0.2272
     24 C           2.7747    1.6614   -0.2338 C.ar    1  UNL1       -0.0493
     25 C           4.1008    1.3309    0.0696 C.ar    1  UNL1       -0.0362
     26 H           7.9405   -0.9677   -0.2074 H       1  UNL1        0.0468
     27 H           6.6110   -2.1557   -0.4874 H       1  UNL1        0.0468
     28 H           6.5995   -0.5599   -1.3244 H       1  UNL1        0.0468
     29 H           3.5495   -1.7876    1.2673 H       1  UNL1        0.0637
     30 H           1.2444   -1.1464    0.7127 H       1  UNL1        0.0625
     31 H          -1.3251    3.7131   -1.5917 H       1  UNL1        0.0831
     32 H          -3.1497    2.1454   -1.2253 H       1  UNL1        0.0654
     33 H          -1.6694   -2.1904   -0.1861 H       1  UNL1        0.0814
     34 H          -3.8956   -3.5140    0.3058 H       1  UNL1        0.1654
     35 H          -6.5954   -2.8380    0.6685 H       1  UNL1        0.0851
     36 H          -7.2006    1.2994    0.3534 H       1  UNL1        0.0830
     37 H          -4.8425    1.7128   -0.0629 H       1  UNL1        0.0639
     38 H           2.6032    2.6473   -0.6565 H       1  UNL1        0.0625
     39 H           4.9277    1.9974   -0.0959 H       1  UNL1        0.0637
@<TRIPOS>BOND
     1     1     2    1
     2     2     3    2
     3     2     4    2
     4     2     5    1
     5     5     6   ar
     6     6     7   ar
     7     7     8   ar
     8     8     9    1
     9     9    10   ar
    10    10    11   ar
    11    11    12   ar
    12    12    13   ar
    13    13    14    1
    14    14    15   ar
    15    15    16   ar
    16    16    17   ar
    17    17    18   ar
    18    18    19   ar
    19    19    20   ar
    20    20    21   ar
    21    21    22   ar
    22    13    23   ar
    23     8    24   ar
    24    24    25   ar
    25    25     5   ar
    26    23     9   ar
    27    22    14   ar
    28    22    17   ar
    29     1    26    1
    30     1    27    1
    31     1    28    1
    32     6    29    1
    33     7    30    1
    34    11    31    1
    35    12    32    1
    36    15    33    1
    37    16    34    1
    38    18    35    1
    39    20    36    1
    40    21    37    1
    41    24    38    1
    42    25    39    1
