
     RDKit          3D

 63 69  0  0  0  0  0  0  0  0999 V2000
   -1.9655    4.9410    1.3864 C   0  0  0  0  0  0  0  0  0  0  0  0
   -1.2100    3.8937    0.5468 C   0  0  0  0  0  0  0  0  0  0  0  0
    0.0484    4.6031    0.1001 C   0  0  0  0  0  0  0  0  0  0  0  0
   -0.9887    2.7328    1.4604 C   0  0  0  0  0  0  0  0  0  0  0  0
   -0.3132    1.6070    0.9516 N   0  0  0  0  0  0  0  0  0  0  0  0
    1.0624    1.4883    0.9564 C   0  0  0  0  0  0  0  0  0  0  0  0
    2.0411    2.3461    1.4099 C   0  0  0  0  0  0  0  0  0  0  0  0
    3.3879    2.0244    1.3254 C   0  0  0  0  0  0  0  0  0  0  0  0
    3.7957    0.8069    0.7721 C   0  0  0  0  0  0  0  0  0  0  0  0
    5.1701    0.5367    0.7133 N   0  0  0  0  0  0  0  0  0  0  0  0
    5.7949   -0.6100    0.1936 C   0  0  0  0  0  0  0  0  0  0  0  0
    7.1558   -0.7119    0.2175 N   0  0  0  0  0  0  0  0  0  0  0  0
    7.8218   -1.7539   -0.2500 C   0  0  0  0  0  0  0  0  0  0  0  0
    7.1664   -2.8150   -0.7976 C   0  0  0  0  0  0  0  0  0  0  0  0
    5.7737   -2.7280   -0.8303 C   0  0  0  0  0  0  0  0  0  0  0  0
    5.1558   -1.6435   -0.3398 N   0  0  0  0  0  0  0  0  0  0  0  0
    2.7961   -0.0092    0.3385 C   0  0  0  0  0  0  0  0  0  0  0  0
    1.4399    0.3066    0.4200 C   0  0  0  0  0  0  0  0  0  0  0  0
    0.2784   -0.3378    0.0693 C   0  0  0  0  0  0  0  0  0  0  0  0
    0.0756   -1.5831   -0.4967 C   0  0  0  0  0  0  0  0  0  0  0  0
   -1.1885   -2.0771   -0.7536 C   0  0  0  0  0  0  0  0  0  0  0  0
   -2.2577   -1.2774   -0.4202 C   0  0  0  0  0  0  0  0  0  0  0  0
   -2.0810   -0.0235    0.1469 C   0  0  0  0  0  0  0  0  0  0  0  0
   -0.7866    0.4795    0.4056 C   0  0  0  0  0  0  0  0  0  0  0  0
   -3.1848    0.8199    0.5767 C   0  0  0  0  0  0  0  0  0  0  0  0
   -4.4871    0.5077   -0.0288 C   0  0  0  0  0  0  0  0  0  0  0  0
   -4.6717   -0.8808   -0.4126 C   0  0  0  0  0  0  0  0  0  0  0  0
   -5.8260   -1.5853   -0.6451 N   0  0  0  0  0  0  0  0  0  0  0  0
   -5.5315   -2.7748   -1.0500 N   0  0  0  0  0  0  0  0  0  0  0  0
   -6.4703   -3.8284   -1.4037 C   0  0  0  0  0  0  0  0  0  0  0  0
   -4.1631   -2.9208   -1.1051 C   0  0  0  0  0  0  0  0  0  0  0  0
   -3.6388   -1.7256   -0.7011 C   0  0  0  0  0  0  0  0  0  0  0  0
   -1.0380   -3.3639   -1.3833 C   0  0  0  0  0  0  0  0  0  0  0  0
   -1.8523   -4.2021   -1.8093 O   0  0  0  0  0  0  0  0  0  0  0  0
    0.3750   -3.6342   -1.4958 N   0  0  0  0  0  0  0  0  0  0  0  0
    1.1157   -2.5816   -0.9162 C   0  0  0  0  0  0  0  0  0  0  0  0
   -1.4620    5.1098    2.3466 H   0  0  0  0  0  0  0  0  0  0  0  0
   -2.9580    4.4859    1.5840 H   0  0  0  0  0  0  0  0  0  0  0  0
   -2.1072    5.8712    0.7991 H   0  0  0  0  0  0  0  0  0  0  0  0
   -1.8082    3.7329   -0.3404 H   0  0  0  0  0  0  0  0  0  0  0  0
   -0.3189    5.4526   -0.5502 H   0  0  0  0  0  0  0  0  0  0  0  0
    0.5719    5.1151    0.9377 H   0  0  0  0  0  0  0  0  0  0  0  0
    0.6930    4.0048   -0.5436 H   0  0  0  0  0  0  0  0  0  0  0  0
   -0.2738    3.1934    2.2557 H   0  0  0  0  0  0  0  0  0  0  0  0
   -1.8742    2.5709    2.0979 H   0  0  0  0  0  0  0  0  0  0  0  0
    1.8331    3.3000    1.8619 H   0  0  0  0  0  0  0  0  0  0  0  0
    4.1391    2.7147    1.6879 H   0  0  0  0  0  0  0  0  0  0  0  0
    5.8277    1.2868    1.1087 H   0  0  0  0  0  0  0  0  0  0  0  0
    8.9200   -1.7985   -0.2126 H   0  0  0  0  0  0  0  0  0  0  0  0
    7.6675   -3.6872   -1.1919 H   0  0  0  0  0  0  0  0  0  0  0  0
    5.2448   -3.5672   -1.2640 H   0  0  0  0  0  0  0  0  0  0  0  0
    3.0563   -0.9497   -0.0902 H   0  0  0  0  0  0  0  0  0  0  0  0
   -3.0256    1.9001    0.3068 H   0  0  0  0  0  0  0  0  0  0  0  0
   -3.3433    0.7505    1.7084 H   0  0  0  0  0  0  0  0  0  0  0  0
   -5.2916    0.7187    0.7454 H   0  0  0  0  0  0  0  0  0  0  0  0
   -4.7075    1.1956   -0.9181 H   0  0  0  0  0  0  0  0  0  0  0  0
   -7.1686   -3.9194   -0.5441 H   0  0  0  0  0  0  0  0  0  0  0  0
   -5.9362   -4.7779   -1.5865 H   0  0  0  0  0  0  0  0  0  0  0  0
   -7.0440   -3.4798   -2.2733 H   0  0  0  0  0  0  0  0  0  0  0  0
   -3.7013   -3.8116   -1.3915 H   0  0  0  0  0  0  0  0  0  0  0  0
    0.7852   -4.4819   -1.9400 H   0  0  0  0  0  0  0  0  0  0  0  0
    1.7342   -2.8976   -0.0521 H   0  0  0  0  0  0  0  0  0  0  0  0
    1.7475   -2.0576   -1.6930 H   0  0  0  0  0  0  0  0  0  0  0  0
  1  2  1  0
  2  3  1  0
  2  4  1  0
  4  5  1  0
  5  6  1  0
  6  7  2  0
  7  8  1  0
  8  9  2  0
  9 10  1  0
 10 11  1  0
 11 12  2  0
 12 13  1  0
 13 14  2  0
 14 15  1  0
 15 16  2  0
  9 17  1  0
 17 18  2  0
 18 19  1  0
 19 20  2  0
 20 21  1  0
 21 22  2  0
 22 23  1  0
 23 24  2  0
 23 25  1  0
 25 26  1  0
 26 27  1  0
 27 28  2  0
 28 29  1  0
 29 30  1  0
 29 31  1  0
 31 32  2  0
 21 33  1  0
 33 34  2  0
 33 35  1  0
 35 36  1  0
 24  5  1  0
 32 27  1  0
 18  6  1  0
 24 19  1  0
 16 11  1  0
 36 20  1  0
 32 22  1  0
  1 37  1  0
  1 38  1  0
  1 39  1  0
  2 40  1  0
  3 41  1  0
  3 42  1  0
  3 43  1  0
  4 44  1  0
  4 45  1  0
  7 46  1  0
  8 47  1  0
 10 48  1  0
 13 49  1  0
 14 50  1  0
 15 51  1  0
 17 52  1  0
 25 53  1  0
 25 54  1  0
 26 55  1  0
 26 56  1  0
 30 57  1  0
 30 58  1  0
 30 59  1  0
 31 60  1  0
 35 61  1  0
 36 62  1  0
 36 63  1  0
M  END
$$$$
