@<TRIPOS>MOLECULE
*****
 63 69 0 0 0
SMALL
GASTEIGER

@<TRIPOS>ATOM
      1 C          -1.9655    4.9410    1.3864 C.3     1  UNL1       -0.0610
      2 C          -1.2100    3.8937    0.5468 C.3     1  UNL1       -0.0287
      3 C           0.0484    4.6031    0.1001 C.3     1  UNL1       -0.0610
      4 C          -0.9887    2.7328    1.4604 C.3     1  UNL1        0.0262
      5 N          -0.3132    1.6070    0.9516 N.ar    1  UNL1       -0.3393
      6 C           1.0624    1.4883    0.9564 C.ar    1  UNL1        0.0502
      7 C           2.0411    2.3461    1.4099 C.ar    1  UNL1       -0.0358
      8 C           3.3879    2.0244    1.3254 C.ar    1  UNL1       -0.0385
      9 C           3.7957    0.8069    0.7721 C.ar    1  UNL1        0.0343
     10 N           5.1701    0.5367    0.7133 N.pl3   1  UNL1       -0.2836
     11 C           5.7949   -0.6100    0.1936 C.ar    1  UNL1        0.2194
     12 N           7.1558   -0.7119    0.2175 N.ar    1  UNL1       -0.2227
     13 C           7.8218   -1.7539   -0.2500 C.ar    1  UNL1        0.0326
     14 C           7.1664   -2.8150   -0.7976 C.ar    1  UNL1       -0.0253
     15 C           5.7737   -2.7280   -0.8303 C.ar    1  UNL1        0.0326
     16 N           5.1558   -1.6435   -0.3398 N.ar    1  UNL1       -0.2227
     17 C           2.7961   -0.0092    0.3385 C.ar    1  UNL1       -0.0307
     18 C           1.4399    0.3066    0.4200 C.ar    1  UNL1        0.0097
     19 C           0.2784   -0.3378    0.0693 C.ar    1  UNL1        0.0133
     20 C           0.0756   -1.5831   -0.4967 C.ar    1  UNL1       -0.0079
     21 C          -1.1885   -2.0771   -0.7536 C.ar    1  UNL1        0.0501
     22 C          -2.2577   -1.2774   -0.4202 C.ar    1  UNL1        0.0029
     23 C          -2.0810   -0.0235    0.1469 C.ar    1  UNL1       -0.0144
     24 C          -0.7866    0.4795    0.4056 C.ar    1  UNL1        0.0543
     25 C          -3.1848    0.8199    0.5767 C.3     1  UNL1       -0.0196
     26 C          -4.4871    0.5077   -0.0288 C.3     1  UNL1       -0.0040
     27 C          -4.6717   -0.8808   -0.4126 C.ar    1  UNL1        0.0710
     28 N          -5.8260   -1.5853   -0.6451 N.ar    1  UNL1       -0.1758
     29 N          -5.5315   -2.7748   -1.0500 N.ar    1  UNL1       -0.2736
     30 C          -6.4703   -3.8284   -1.4037 C.3     1  UNL1        0.0302
     31 C          -4.1631   -2.9208   -1.1051 C.ar    1  UNL1        0.0332
     32 C          -3.6388   -1.7256   -0.7011 C.ar    1  UNL1        0.0238
     33 C          -1.0380   -3.3639   -1.3833 C.2     1  UNL1        0.2453
     34 O          -1.8523   -4.2021   -1.8093 O.2     1  UNL1       -0.2702
     35 N           0.3750   -3.6342   -1.4958 N.am    1  UNL1       -0.3072
     36 C           1.1157   -2.5816   -0.9162 C.3     1  UNL1        0.0385
     37 H          -1.4620    5.1098    2.3466 H       1  UNL1        0.0233
     38 H          -2.9580    4.4859    1.5840 H       1  UNL1        0.0233
     39 H          -2.1072    5.8712    0.7991 H       1  UNL1        0.0233
     40 H          -1.8082    3.7329   -0.3404 H       1  UNL1        0.0313
     41 H          -0.3189    5.4526   -0.5502 H       1  UNL1        0.0233
     42 H           0.5719    5.1151    0.9377 H       1  UNL1        0.0233
     43 H           0.6930    4.0048   -0.5436 H       1  UNL1        0.0233
     44 H          -0.2738    3.1934    2.2557 H       1  UNL1        0.0494
     45 H          -1.8742    2.5709    2.0979 H       1  UNL1        0.0494
     46 H           1.8331    3.3000    1.8619 H       1  UNL1        0.0639
     47 H           4.1391    2.7147    1.6879 H       1  UNL1        0.0637
     48 H           5.8277    1.2868    1.1087 H       1  UNL1        0.1550
     49 H           8.9200   -1.7985   -0.2126 H       1  UNL1        0.0831
     50 H           7.6675   -3.6872   -1.1919 H       1  UNL1        0.0648
     51 H           5.2448   -3.5672   -1.2640 H       1  UNL1        0.0831
     52 H           3.0563   -0.9497   -0.0902 H       1  UNL1        0.0643
     53 H          -3.0256    1.9001    0.3068 H       1  UNL1        0.0318
     54 H          -3.3433    0.7505    1.7084 H       1  UNL1        0.0318
     55 H          -5.2916    0.7187    0.7454 H       1  UNL1        0.0332
     56 H          -4.7075    1.1956   -0.9181 H       1  UNL1        0.0332
     57 H          -7.1686   -3.9194   -0.5441 H       1  UNL1        0.0473
     58 H          -5.9362   -4.7779   -1.5865 H       1  UNL1        0.0473
     59 H          -7.0440   -3.4798   -2.2733 H       1  UNL1        0.0473
     60 H          -3.7013   -3.8116   -1.3915 H       1  UNL1        0.0832
     61 H           0.7852   -4.4819   -1.9400 H       1  UNL1        0.1493
     62 H           1.7342   -2.8976   -0.0521 H       1  UNL1        0.0512
     63 H           1.7475   -2.0576   -1.6930 H       1  UNL1        0.0512
@<TRIPOS>BOND
     1     1     2    1
     2     2     3    1
     3     2     4    1
     4     4     5    1
     5     5     6   ar
     6     6     7   ar
     7     7     8   ar
     8     8     9   ar
     9     9    10    1
    10    10    11    1
    11    11    12   ar
    12    12    13   ar
    13    13    14   ar
    14    14    15   ar
    15    15    16   ar
    16     9    17   ar
    17    17    18   ar
    18    18    19   ar
    19    19    20   ar
    20    20    21   ar
    21    21    22   ar
    22    22    23   ar
    23    23    24   ar
    24    23    25    1
    25    25    26    1
    26    26    27    1
    27    27    28   ar
    28    28    29   ar
    29    29    30    1
    30    29    31   ar
    31    31    32   ar
    32    21    33    1
    33    33    34    2
    34    33    35   am
    35    35    36    1
    36    24     5   ar
    37    32    27   ar
    38    18     6   ar
    39    24    19   ar
    40    16    11   ar
    41    36    20    1
    42    32    22    1
    43     1    37    1
    44     1    38    1
    45     1    39    1
    46     2    40    1
    47     3    41    1
    48     3    42    1
    49     3    43    1
    50     4    44    1
    51     4    45    1
    52     7    46    1
    53     8    47    1
    54    10    48    1
    55    13    49    1
    56    14    50    1
    57    15    51    1
    58    17    52    1
    59    25    53    1
    60    25    54    1
    61    26    55    1
    62    26    56    1
    63    30    57    1
    64    30    58    1
    65    30    59    1
    66    31    60    1
    67    35    61    1
    68    36    62    1
    69    36    63    1
