@<TRIPOS>MOLECULE
*****
 55 60 0 0 0
SMALL
GASTEIGER

@<TRIPOS>ATOM
      1 C          -0.1781   -2.1048    3.0251 C.3     1  UNL1       -0.0393
      2 C           0.1507   -0.6425    2.8013 C.3     1  UNL1        0.0834
      3 C          -1.0707    0.0762    2.4071 C.ar    1  UNL1        0.1542
      4 N          -1.9907    0.8188    3.0967 N.ar    1  UNL1       -0.1320
      5 N          -2.9257    1.2210    2.2596 N.ar    1  UNL1       -0.1275
      6 C          -2.6090    0.7408    1.0373 C.ar    1  UNL1        0.1833
      7 C          -3.4174    0.9418   -0.2003 C.ar    1  UNL1        0.1158
      8 C          -2.8946    1.4859   -1.3110 C.ar    1  UNL1        0.0067
      9 S          -4.3373    1.5038   -2.4775 S.2     1  UNL1       -0.0748
     10 C          -5.4344    0.7239   -1.1587 C.ar    1  UNL1        0.1118
     11 C          -6.8802    0.4608   -1.5451 C.ar    1  UNL1        0.0425
     12 C          -7.6835   -0.1373   -0.6030 C.ar    1  UNL1       -0.0466
     13 C          -9.0051   -0.4057   -0.8840 C.ar    1  UNL1       -0.0256
     14 C          -9.5434   -0.0736   -2.1282 C.ar    1  UNL1        0.1262
     15 F         -10.8501   -0.3638   -2.3478 F       1  UNL1       -0.2054
     16 C          -8.7125    0.5226   -3.0463 C.ar    1  UNL1        0.0095
     17 C          -7.3646    0.8003   -2.7695 C.ar    1  UNL1        0.1358
     18 F          -6.5870    1.3895   -3.7039 F       1  UNL1       -0.2047
     19 N          -4.7049    0.6215   -0.3091 N.ar    1  UNL1       -0.2358
     20 N          -1.4795    0.0438    1.1196 N.ar    1  UNL1       -0.3066
     21 C          -0.6687   -0.6780    0.1566 C.3     1  UNL1        0.0423
     22 C           0.8168   -0.3554    0.4012 C.3     1  UNL1        0.0338
     23 N           1.1535   -0.4539    1.7811 N.am    1  UNL1       -0.2860
     24 C           2.4919   -0.3770    2.2124 C.2     1  UNL1        0.2472
     25 O           2.7112   -0.4732    3.4800 O.2     1  UNL1       -0.2700
     26 C           3.6710   -0.1969    1.3784 C.ar    1  UNL1        0.0370
     27 C           4.0417    1.0441    0.9171 C.ar    1  UNL1       -0.0490
     28 C           5.2056    1.2199    0.1582 C.ar    1  UNL1       -0.0528
     29 C           6.0147    0.1536   -0.1486 C.ar    1  UNL1       -0.0113
     30 C           7.2455    0.3788   -0.9048 C.ar    1  UNL1        0.0193
     31 C           8.1743   -0.4978   -1.3400 C.ar    1  UNL1       -0.0469
     32 C           9.2399   -0.0344   -2.0175 C.ar    1  UNL1       -0.0541
     33 C           9.3322    1.3202   -2.2347 C.ar    1  UNL1       -0.0237
     34 S           7.8517    1.9433   -1.4460 S.2     1  UNL1       -0.0967
     35 C           5.6555   -1.0807    0.3028 C.ar    1  UNL1       -0.0528
     36 C           4.5054   -1.2610    1.0529 C.ar    1  UNL1       -0.0490
     37 H           0.1377   -2.4037    4.0486 H       1  UNL1        0.0252
     38 H          -1.2761   -2.2673    2.9775 H       1  UNL1        0.0252
     39 H           0.3703   -2.7725    2.3169 H       1  UNL1        0.0252
     40 H           0.4926   -0.2125    3.7814 H       1  UNL1        0.0579
     41 H          -1.8962    1.8761   -1.6194 H       1  UNL1        0.0716
     42 H          -7.3147   -0.4137    0.3768 H       1  UNL1        0.0626
     43 H          -9.6596   -0.8727   -0.1652 H       1  UNL1        0.0646
     44 H          -9.1220    0.7832   -4.0094 H       1  UNL1        0.0675
     45 H          -0.8996   -0.4194   -0.8895 H       1  UNL1        0.0508
     46 H          -0.7574   -1.7675    0.2655 H       1  UNL1        0.0508
     47 H           1.4684   -0.9933   -0.2131 H       1  UNL1        0.0482
     48 H           0.9370    0.6859   -0.0198 H       1  UNL1        0.0482
     49 H           3.3988    1.8725    1.1635 H       1  UNL1        0.0625
     50 H           5.4881    2.2064   -0.1986 H       1  UNL1        0.0624
     51 H           8.0146   -1.5920   -1.1181 H       1  UNL1        0.0629
     52 H          10.0554   -0.6849   -2.4140 H       1  UNL1        0.0623
     53 H          10.0960    1.9142   -2.7478 H       1  UNL1        0.0693
     54 H           6.2960   -1.9464    0.0612 H       1  UNL1        0.0624
     55 H           4.2462   -2.2418    1.3918 H       1  UNL1        0.0625
@<TRIPOS>BOND
     1     1     2    1
     2     2     3    1
     3     3     4   ar
     4     4     5   ar
     5     5     6   ar
     6     6     7    1
     7     7     8   ar
     8     8     9   ar
     9     9    10   ar
    10    10    11    1
    11    11    12   ar
    12    12    13   ar
    13    13    14   ar
    14    14    15    1
    15    14    16   ar
    16    16    17   ar
    17    17    18    1
    18    10    19   ar
    19     6    20   ar
    20    20    21    1
    21    21    22    1
    22    22    23    1
    23    23    24   am
    24    24    25    2
    25    24    26    1
    26    26    27   ar
    27    27    28   ar
    28    28    29   ar
    29    29    30    1
    30    30    31   ar
    31    31    32   ar
    32    32    33   ar
    33    33    34   ar
    34    29    35   ar
    35    35    36   ar
    36    23     2    1
    37    36    26   ar
    38    20     3   ar
    39    34    30   ar
    40    19     7   ar
    41    17    11   ar
    42     1    37    1
    43     1    38    1
    44     1    39    1
    45     2    40    1
    46     8    41    1
    47    12    42    1
    48    13    43    1
    49    16    44    1
    50    21    45    1
    51    21    46    1
    52    22    47    1
    53    22    48    1
    54    27    49    1
    55    28    50    1
    56    31    51    1
    57    32    52    1
    58    33    53    1
    59    35    54    1
    60    36    55    1
