@<TRIPOS>MOLECULE
*****
 36 39 0 0 0
SMALL
GASTEIGER

@<TRIPOS>ATOM
      1 C          -0.6819    3.1276    2.5457 C.3     1  UNL1        0.0789
      2 O          -0.4278    2.1873    1.5660 O.3     1  UNL1       -0.4932
      3 C          -1.2882    1.3033    0.9594 C.ar    1  UNL1        0.1432
      4 C          -2.6132    1.3024    1.3281 C.ar    1  UNL1        0.0079
      5 C          -3.5207    0.4192    0.7320 C.ar    1  UNL1        0.0745
      6 N          -4.8262    0.4180    1.0957 N.ar    1  UNL1       -0.2549
      7 C          -5.7332   -0.4139    0.5493 C.ar    1  UNL1        0.0283
      8 C          -5.2988   -1.2911   -0.4150 C.ar    1  UNL1       -0.0430
      9 C          -3.9584   -1.3032   -0.8014 C.ar    1  UNL1       -0.0511
     10 C          -3.0428   -0.4430   -0.2307 C.ar    1  UNL1        0.0024
     11 C          -1.6930   -0.4400   -0.6036 C.ar    1  UNL1       -0.0277
     12 C          -0.8168    0.4183   -0.0223 C.ar    1  UNL1        0.0765
     13 N           0.5561    0.4871   -0.3175 N.am    1  UNL1       -0.2785
     14 C           1.2540   -0.3176   -1.2434 C.2     1  UNL1        0.2509
     15 O           0.6798   -1.1916   -1.9082 O.2     1  UNL1       -0.2698
     16 C           2.7489   -0.1038   -1.4250 C.ar    1  UNL1        0.0700
     17 C           3.1156    1.0512   -2.0719 C.ar    1  UNL1       -0.0095
     18 S           4.9758    0.9107   -2.0777 S.2     1  UNL1       -0.0928
     19 C           5.0315   -0.6953   -1.2034 C.ar    1  UNL1        0.0564
     20 C           6.0570   -1.4998   -0.8090 C.ar    1  UNL1        0.0451
     21 N           5.7797   -2.6703   -0.1568 N.ar    1  UNL1       -0.2426
     22 C           4.4811   -2.9408    0.0483 C.ar    1  UNL1        0.1166
     23 N           3.4581   -2.1705   -0.3276 N.ar    1  UNL1       -0.2341
     24 C           3.6884   -0.9552   -1.0021 C.ar    1  UNL1        0.0933
     25 H          -1.7389    3.4453    2.5053 H       1  UNL1        0.0660
     26 H          -0.3460    2.8193    3.5629 H       1  UNL1        0.0660
     27 H          -0.0205    4.0196    2.3043 H       1  UNL1        0.0660
     28 H          -3.0190    1.9615    2.0798 H       1  UNL1        0.0676
     29 H          -6.7641   -0.3699    0.8809 H       1  UNL1        0.0830
     30 H          -6.0120   -1.9650   -0.8641 H       1  UNL1        0.0633
     31 H          -3.6145   -1.9785   -1.5459 H       1  UNL1        0.0625
     32 H          -1.4348   -1.1554   -1.3655 H       1  UNL1        0.0644
     33 H           1.1865    1.2035    0.1760 H       1  UNL1        0.1552
     34 H           2.6027    1.8779   -2.4992 H       1  UNL1        0.0702
     35 H           7.0581   -1.1815   -1.0268 H       1  UNL1        0.0842
     36 H           4.1773   -3.8660    0.5680 H       1  UNL1        0.1047
@<TRIPOS>BOND
     1     1     2    1
     2     2     3    1
     3     3     4   ar
     4     4     5   ar
     5     5     6   ar
     6     6     7   ar
     7     7     8   ar
     8     8     9   ar
     9     9    10   ar
    10    10    11   ar
    11    11    12   ar
    12    12    13    1
    13    13    14   am
    14    14    15    2
    15    14    16    1
    16    16    17   ar
    17    17    18   ar
    18    18    19   ar
    19    19    20   ar
    20    20    21   ar
    21    21    22   ar
    22    22    23   ar
    23    23    24   ar
    24    12     3   ar
    25    24    16   ar
    26    10     5   ar
    27    24    19   ar
    28     1    25    1
    29     1    26    1
    30     1    27    1
    31     4    28    1
    32     7    29    1
    33     8    30    1
    34     9    31    1
    35    11    32    1
    36    13    33    1
    37    17    34    1
    38    20    35    1
    39    22    36    1
