@<TRIPOS>MOLECULE
*****
 47 49 0 0 0
SMALL
GASTEIGER

@<TRIPOS>ATOM
      1 C           9.2465   -0.2138    0.4676 C.3     1  UNL1        0.0788
      2 O           8.1309   -1.0651    0.5696 O.3     1  UNL1       -0.4951
      3 C           6.8597   -0.5319    0.4086 C.ar    1  UNL1        0.1202
      4 C           5.7776   -1.3610    0.5082 C.ar    1  UNL1       -0.0182
      5 C           4.4934   -0.8241    0.3459 C.ar    1  UNL1       -0.0367
      6 C           4.2704    0.4886    0.0929 C.ar    1  UNL1        0.0393
      7 N           3.0128    1.0976   -0.0820 N.am    1  UNL1       -0.2400
      8 C           2.9540    2.5371   -0.3454 C.3     1  UNL1        0.0115
      9 C           1.7889    0.4269   -0.0233 C.2     1  UNL1        0.4123
     10 O           1.7258   -0.7997    0.1949 O.2     1  UNL1       -0.2254
     11 O           0.5669    1.1113   -0.2090 O.3     1  UNL1       -0.4112
     12 C          -0.5852    0.3619   -0.1325 C.ar    1  UNL1        0.1335
     13 C          -1.2064    0.2085    1.0789 C.ar    1  UNL1       -0.0157
     14 C          -2.3703   -0.5471    1.1632 C.ar    1  UNL1       -0.0158
     15 C          -2.9166   -1.1488    0.0492 C.ar    1  UNL1        0.1306
     16 O          -4.0739   -1.8901    0.1795 O.3     1  UNL1       -0.4380
     17 C          -5.3414   -1.3454    0.0473 C.ar    1  UNL1        0.2205
     18 C          -6.4845   -2.1028    0.1811 C.ar    1  UNL1        0.0009
     19 C          -7.7492   -1.5565    0.0486 C.ar    1  UNL1       -0.0436
     20 C          -7.8671   -0.2279   -0.2227 C.ar    1  UNL1        0.0731
     21 C          -9.1643    0.4720   -0.3869 C.3     1  UNL1        0.4188
     22 F          -9.5425    1.0198    0.8153 F       1  UNL1       -0.1658
     23 F          -8.9820    1.5172   -1.2798 F       1  UNL1       -0.1658
     24 F         -10.0718   -0.4523   -0.8528 F       1  UNL1       -0.1658
     25 C          -6.7150    0.5299   -0.3565 C.ar    1  UNL1        0.0430
     26 N          -5.4874   -0.0405   -0.2197 N.ar    1  UNL1       -0.2204
     27 C          -2.2757   -0.9803   -1.1527 C.ar    1  UNL1       -0.0158
     28 C          -1.1100   -0.2275   -1.2558 C.ar    1  UNL1       -0.0157
     29 C           5.4266    1.2934    0.0015 C.ar    1  UNL1       -0.0367
     30 C           6.6736    0.8063    0.1527 C.ar    1  UNL1       -0.0182
     31 H           9.2204    0.4125   -0.4651 H       1  UNL1        0.0660
     32 H          10.1955   -0.7632    0.5556 H       1  UNL1        0.0660
     33 H           9.2026    0.5015    1.3244 H       1  UNL1        0.0660
     34 H           5.8991   -2.4311    0.7114 H       1  UNL1        0.0655
     35 H           3.6998   -1.5216    0.4357 H       1  UNL1        0.0637
     36 H           3.5175    3.1107    0.4181 H       1  UNL1        0.0434
     37 H           3.3358    2.7034   -1.3710 H       1  UNL1        0.0434
     38 H           1.9177    2.9283   -0.3148 H       1  UNL1        0.0434
     39 H          -0.7752    0.6806    1.9445 H       1  UNL1        0.0655
     40 H          -2.8373   -0.6502    2.1309 H       1  UNL1        0.0655
     41 H          -6.4289   -3.1570    0.3957 H       1  UNL1        0.0671
     42 H          -8.6214   -2.1761    0.1591 H       1  UNL1        0.0625
     43 H          -6.7948    1.5937   -0.5735 H       1  UNL1        0.0836
     44 H          -2.7156   -1.4587   -2.0209 H       1  UNL1        0.0655
     45 H          -0.6552   -0.1352   -2.2360 H       1  UNL1        0.0655
     46 H           5.3040    2.3484   -0.1992 H       1  UNL1        0.0637
     47 H           7.5527    1.4584    0.0758 H       1  UNL1        0.0655
@<TRIPOS>BOND
     1     1     2    1
     2     2     3    1
     3     3     4   ar
     4     4     5   ar
     5     5     6   ar
     6     6     7    1
     7     7     8    1
     8     7     9   am
     9     9    10    2
    10     9    11    1
    11    11    12    1
    12    12    13   ar
    13    13    14   ar
    14    14    15   ar
    15    15    16    1
    16    16    17    1
    17    17    18   ar
    18    18    19   ar
    19    19    20   ar
    20    20    21    1
    21    21    22    1
    22    21    23    1
    23    21    24    1
    24    20    25   ar
    25    25    26   ar
    26    15    27   ar
    27    27    28   ar
    28     6    29   ar
    29    29    30   ar
    30    30     3   ar
    31    28    12   ar
    32    26    17   ar
    33     1    31    1
    34     1    32    1
    35     1    33    1
    36     4    34    1
    37     5    35    1
    38     8    36    1
    39     8    37    1
    40     8    38    1
    41    13    39    1
    42    14    40    1
    43    18    41    1
    44    19    42    1
    45    25    43    1
    46    27    44    1
    47    28    45    1
    48    29    46    1
    49    30    47    1
