
     RDKit          3D

 32 35  0  0  0  0  0  0  0  0999 V2000
    0.7878   -2.8978    1.2226 O   0  0  0  0  0  0  0  0  0  0  0  0
    0.2828   -1.7491    1.1115 N   0  0  0  0  0  0  0  0  0  0  0  0
    0.8884   -0.7728    0.2728 C   0  0  0  0  0  0  0  0  0  0  0  0
    0.4384   -0.1487   -0.8552 C   0  0  0  0  0  0  0  0  0  0  0  0
   -0.8814   -0.3826   -1.4773 C   0  0  0  0  0  0  0  0  0  0  0  0
   -1.2497   -1.7919   -1.5949 C   0  0  0  0  0  0  0  0  0  0  0  0
   -0.6030   -2.6631   -2.2152 O   0  0  0  0  0  0  0  0  0  0  0  0
   -2.4614   -2.0007   -0.8878 N   0  0  0  0  0  0  0  0  0  0  0  0
   -2.8893   -0.7602   -0.3151 C   0  0  0  0  0  0  0  0  0  0  0  0
   -3.9825   -0.4063    0.4540 C   0  0  0  0  0  0  0  0  0  0  0  0
   -4.1527    0.9153    0.8832 C   0  0  0  0  0  0  0  0  0  0  0  0
   -5.6527    1.4232    1.9435 Br  0  0  0  0  0  0  0  0  0  0  0  0
   -3.2371    1.8894    0.5496 C   0  0  0  0  0  0  0  0  0  0  0  0
   -2.1617    1.5151   -0.2132 C   0  0  0  0  0  0  0  0  0  0  0  0
   -1.9846    0.2073   -0.6434 C   0  0  0  0  0  0  0  0  0  0  0  0
    1.3810    0.6964   -1.2869 N   0  0  0  0  0  0  0  0  0  0  0  0
    2.4369    0.6291   -0.4540 C   0  0  0  0  0  0  0  0  0  0  0  0
    3.6558    1.2753   -0.4327 C   0  0  0  0  0  0  0  0  0  0  0  0
    4.5884    1.0068    0.5742 C   0  0  0  0  0  0  0  0  0  0  0  0
    4.3169    0.0912    1.5716 C   0  0  0  0  0  0  0  0  0  0  0  0
    3.0941   -0.5505    1.5416 C   0  0  0  0  0  0  0  0  0  0  0  0
    2.1721   -0.2827    0.5428 C   0  0  0  0  0  0  0  0  0  0  0  0
   -0.9448    0.1604   -2.4541 H   0  0  0  0  0  0  0  0  0  0  0  0
   -3.0002   -2.8786   -0.7666 H   0  0  0  0  0  0  0  0  0  0  0  0
   -4.7189   -1.1559    0.7304 H   0  0  0  0  0  0  0  0  0  0  0  0
   -3.3312    2.9203    0.8595 H   0  0  0  0  0  0  0  0  0  0  0  0
   -1.4103    2.2348   -0.5059 H   0  0  0  0  0  0  0  0  0  0  0  0
    1.2836    1.3023   -2.1425 H   0  0  0  0  0  0  0  0  0  0  0  0
    3.8487    1.9892   -1.2228 H   0  0  0  0  0  0  0  0  0  0  0  0
    5.5287    1.5403    0.5463 H   0  0  0  0  0  0  0  0  0  0  0  0
    5.0695   -0.0888    2.3374 H   0  0  0  0  0  0  0  0  0  0  0  0
    2.8885   -1.2667    2.3266 H   0  0  0  0  0  0  0  0  0  0  0  0
  1  2  2  0
  2  3  1  0
  3  4  2  0
  4  5  1  0
  5  6  1  0
  6  7  2  0
  6  8  1  0
  8  9  1  0
  9 10  2  0
 10 11  1  0
 11 12  1  0
 11 13  2  0
 13 14  1  0
 14 15  2  0
  4 16  1  0
 16 17  1  0
 17 18  2  0
 18 19  1  0
 19 20  2  0
 20 21  1  0
 21 22  2  0
 22  3  1  0
 15  5  1  0
 22 17  1  0
 15  9  1  0
  5 23  1  0
  8 24  1  0
 10 25  1  0
 13 26  1  0
 14 27  1  0
 16 28  1  0
 18 29  1  0
 19 30  1  0
 20 31  1  0
 21 32  1  0
M  END
$$$$
