@<TRIPOS>MOLECULE
*****
 32 35 0 0 0
SMALL
GASTEIGER

@<TRIPOS>ATOM
      1 O           0.7878   -2.8978    1.2226 O.2     1  UNL1       -0.1431
      2 N           0.2828   -1.7491    1.1115 N.2     1  UNL1       -0.0282
      3 C           0.8884   -0.7728    0.2728 C.ar    1  UNL1        0.1366
      4 C           0.4384   -0.1487   -0.8552 C.ar    1  UNL1        0.0625
      5 C          -0.8814   -0.3826   -1.4773 C.3     1  UNL1        0.1046
      6 C          -1.2497   -1.7919   -1.5949 C.2     1  UNL1        0.2306
      7 O          -0.6030   -2.6631   -2.2152 O.2     1  UNL1       -0.2744
      8 N          -2.4614   -2.0007   -0.8878 N.am    1  UNL1       -0.2844
      9 C          -2.8893   -0.7602   -0.3151 C.ar    1  UNL1        0.0387
     10 C          -3.9825   -0.4063    0.4540 C.ar    1  UNL1       -0.0262
     11 C          -4.1527    0.9153    0.8832 C.ar    1  UNL1        0.0196
     12 BR         -5.6527    1.4232    1.9435 Br      1  UNL1       -0.0502
     13 C          -3.2371    1.8894    0.5496 C.ar    1  UNL1       -0.0474
     14 C          -2.1617    1.5151   -0.2132 C.ar    1  UNL1       -0.0547
     15 C          -1.9846    0.2073   -0.6434 C.ar    1  UNL1       -0.0084
     16 N           1.3810    0.6964   -1.2869 N.ar    1  UNL1       -0.3553
     17 C           2.4369    0.6291   -0.4540 C.ar    1  UNL1        0.0489
     18 C           3.6558    1.2753   -0.4327 C.ar    1  UNL1       -0.0377
     19 C           4.5884    1.0068    0.5742 C.ar    1  UNL1       -0.0598
     20 C           4.3169    0.0912    1.5716 C.ar    1  UNL1       -0.0610
     21 C           3.0941   -0.5505    1.5416 C.ar    1  UNL1       -0.0504
     22 C           2.1721   -0.2827    0.5428 C.ar    1  UNL1        0.0287
     23 H          -0.9448    0.1604   -2.4541 H       1  UNL1        0.0508
     24 H          -3.0002   -2.8786   -0.7666 H       1  UNL1        0.1548
     25 H          -4.7189   -1.1559    0.7304 H       1  UNL1        0.0647
     26 H          -3.3312    2.9203    0.8595 H       1  UNL1        0.0629
     27 H          -1.4103    2.2348   -0.5059 H       1  UNL1        0.0622
     28 H           1.2836    1.3023   -2.1425 H       1  UNL1        0.1657
     29 H           3.8487    1.9892   -1.2228 H       1  UNL1        0.0638
     30 H           5.5287    1.5403    0.5463 H       1  UNL1        0.0618
     31 H           5.0695   -0.0888    2.3374 H       1  UNL1        0.0618
     32 H           2.8885   -1.2667    2.3266 H       1  UNL1        0.0625
@<TRIPOS>BOND
     1     1     2    2
     2     2     3    1
     3     3     4   ar
     4     4     5    1
     5     5     6    1
     6     6     7    2
     7     6     8   am
     8     8     9    1
     9     9    10   ar
    10    10    11   ar
    11    11    12    1
    12    11    13   ar
    13    13    14   ar
    14    14    15   ar
    15     4    16   ar
    16    16    17   ar
    17    17    18   ar
    18    18    19   ar
    19    19    20   ar
    20    20    21   ar
    21    21    22   ar
    22    22     3   ar
    23    15     5    1
    24    22    17   ar
    25    15     9   ar
    26     5    23    1
    27     8    24    1
    28    10    25    1
    29    13    26    1
    30    14    27    1
    31    16    28    1
    32    18    29    1
    33    19    30    1
    34    20    31    1
    35    21    32    1
