
     RDKit          3D

 56 61  0  0  0  0  0  0  0  0999 V2000
    4.5575   -3.4921    1.1527 O   0  0  0  0  0  0  0  0  0  0  0  0
    4.0758   -2.3573    0.9787 C   0  0  0  0  0  0  0  0  0  0  0  0
    4.9162   -1.2111    0.6476 C   0  0  0  0  0  0  0  0  0  0  0  0
    4.3564    0.0076    0.3811 N   0  0  0  0  0  0  0  0  0  0  0  0
    5.3196    0.8402    0.1197 N   0  0  0  0  0  0  0  0  0  0  0  0
    6.5081    0.1679    0.2148 C   0  0  0  0  0  0  0  0  0  0  0  0
    7.8095    0.7717   -0.0098 C   0  0  0  0  0  0  0  0  0  0  0  0
    9.0006    0.1061    0.1188 C   0  0  0  0  0  0  0  0  0  0  0  0
   10.2188    0.7164   -0.1153 C   0  0  0  0  0  0  0  0  0  0  0  0
   10.2721    2.0420   -0.4937 C   0  0  0  0  0  0  0  0  0  0  0  0
    9.0910    2.7180   -0.6256 C   0  0  0  0  0  0  0  0  0  0  0  0
    7.8839    2.1065   -0.3922 C   0  0  0  0  0  0  0  0  0  0  0  0
    6.1870   -1.0499    0.5337 O   0  0  0  0  0  0  0  0  0  0  0  0
    2.6533   -2.2105    1.1144 N   0  0  0  0  0  0  0  0  0  0  0  0
    1.8124   -1.0784    0.9904 C   0  0  0  0  0  0  0  0  0  0  0  0
    0.5879   -1.9769    1.0808 C   0  0  0  0  0  0  0  0  0  0  0  0
   -0.1186   -2.0411   -0.1338 O   0  0  0  0  0  0  0  0  0  0  0  0
   -1.2551   -1.3074   -0.4211 C   0  0  0  0  0  0  0  0  0  0  0  0
   -1.8659   -1.5394   -1.6686 C   0  0  0  0  0  0  0  0  0  0  0  0
   -2.9920   -0.8264   -1.9897 C   0  0  0  0  0  0  0  0  0  0  0  0
   -3.5185    0.0981   -1.1156 C   0  0  0  0  0  0  0  0  0  0  0  0
   -4.7336    0.9014   -1.4326 C   0  0  0  0  0  0  0  0  0  0  0  0
   -5.9424    0.2465   -1.0679 N   0  0  0  0  0  0  0  0  0  0  0  0
   -7.1647    0.9740   -1.3382 C   0  0  0  0  0  0  0  0  0  0  0  0
   -7.5326    0.8494    0.0720 C   0  0  0  0  0  0  0  0  0  0  0  0
   -7.8386    2.0455    0.8931 C   0  0  0  0  0  0  0  0  0  0  0  0
   -8.9438    1.3542    1.4031 O   0  0  0  0  0  0  0  0  0  0  0  0
   -8.8126    0.2687    0.5013 C   0  0  0  0  0  0  0  0  0  0  0  0
   -6.2640    0.1171    0.3304 C   0  0  0  0  0  0  0  0  0  0  0  0
   -2.9180    0.3176    0.0976 C   0  0  0  0  0  0  0  0  0  0  0  0
   -1.7911   -0.3857    0.4379 C   0  0  0  0  0  0  0  0  0  0  0  0
    1.5439   -3.0598    1.4036 C   0  0  0  0  0  0  0  0  0  0  0  0
    8.9922   -0.9342    0.4135 H   0  0  0  0  0  0  0  0  0  0  0  0
   11.1609    0.1755   -0.0107 H   0  0  0  0  0  0  0  0  0  0  0  0
   11.2470    2.5134   -0.6752 H   0  0  0  0  0  0  0  0  0  0  0  0
    9.0893    3.7425   -0.9166 H   0  0  0  0  0  0  0  0  0  0  0  0
    6.9593    2.6562   -0.5007 H   0  0  0  0  0  0  0  0  0  0  0  0
    1.9229   -0.5911   -0.0052 H   0  0  0  0  0  0  0  0  0  0  0  0
    1.8712   -0.3060    1.7669 H   0  0  0  0  0  0  0  0  0  0  0  0
   -0.0558   -1.6046    1.9130 H   0  0  0  0  0  0  0  0  0  0  0  0
   -1.4301   -2.2763   -2.3421 H   0  0  0  0  0  0  0  0  0  0  0  0
   -3.4734   -1.0005   -2.9558 H   0  0  0  0  0  0  0  0  0  0  0  0
   -4.6661    1.9073   -0.9490 H   0  0  0  0  0  0  0  0  0  0  0  0
   -4.7421    1.0304   -2.5436 H   0  0  0  0  0  0  0  0  0  0  0  0
   -7.8185    0.5381   -2.1229 H   0  0  0  0  0  0  0  0  0  0  0  0
   -6.8790    2.0348   -1.5885 H   0  0  0  0  0  0  0  0  0  0  0  0
   -8.0970    2.9208    0.2578 H   0  0  0  0  0  0  0  0  0  0  0  0
   -7.1319    2.2822    1.7142 H   0  0  0  0  0  0  0  0  0  0  0  0
   -8.6704   -0.7145    1.0110 H   0  0  0  0  0  0  0  0  0  0  0  0
   -9.5842    0.2673   -0.3145 H   0  0  0  0  0  0  0  0  0  0  0  0
   -6.4063   -0.9479    0.6714 H   0  0  0  0  0  0  0  0  0  0  0  0
   -5.6456    0.6844    1.0521 H   0  0  0  0  0  0  0  0  0  0  0  0
   -3.3431    1.0657    0.7869 H   0  0  0  0  0  0  0  0  0  0  0  0
   -1.3206   -0.1954    1.4091 H   0  0  0  0  0  0  0  0  0  0  0  0
    1.4292   -3.9383    0.7186 H   0  0  0  0  0  0  0  0  0  0  0  0
    1.4895   -3.4225    2.4597 H   0  0  0  0  0  0  0  0  0  0  0  0
  1  2  2  0
  2  3  1  0
  3  4  2  0
  4  5  1  0
  5  6  2  0
  6  7  1  0
  7  8  2  0
  8  9  1  0
  9 10  2  0
 10 11  1  0
 11 12  2  0
  6 13  1  0
  2 14  1  0
 14 15  1  0
 15 16  1  0
 16 17  1  0
 17 18  1  0
 18 19  2  0
 19 20  1  0
 20 21  2  0
 21 22  1  0
 22 23  1  0
 23 24  1  0
 24 25  1  0
 25 26  1  0
 26 27  1  0
 27 28  1  0
 25 29  1  0
 21 30  1  0
 30 31  2  0
 16 32  1  0
 13  3  1  0
 32 14  1  0
 12  7  1  0
 31 18  1  0
 29 23  1  0
 28 25  1  0
  8 33  1  0
  9 34  1  0
 10 35  1  0
 11 36  1  0
 12 37  1  0
 15 38  1  0
 15 39  1  0
 16 40  1  0
 19 41  1  0
 20 42  1  0
 22 43  1  0
 22 44  1  0
 24 45  1  0
 24 46  1  0
 26 47  1  0
 26 48  1  0
 28 49  1  0
 28 50  1  0
 29 51  1  0
 29 52  1  0
 30 53  1  0
 31 54  1  0
 32 55  1  0
 32 56  1  0
M  END
$$$$
