@<TRIPOS>MOLECULE
*****
 56 61 0 0 0
SMALL
GASTEIGER

@<TRIPOS>ATOM
      1 O           4.5575   -3.4921    1.1527 O.2     1  UNL1       -0.2647
      2 C           4.0758   -2.3573    0.9787 C.2     1  UNL1        0.3035
      3 C           4.9162   -1.2111    0.6476 C.ar    1  UNL1        0.3042
      4 N           4.3564    0.0076    0.3811 N.ar    1  UNL1       -0.1021
      5 N           5.3196    0.8402    0.1197 N.ar    1  UNL1       -0.1068
      6 C           6.5081    0.1679    0.2148 C.ar    1  UNL1        0.2489
      7 C           7.8095    0.7717   -0.0098 C.ar    1  UNL1        0.0385
      8 C           9.0006    0.1061    0.1188 C.ar    1  UNL1       -0.0494
      9 C          10.2188    0.7164   -0.1153 C.ar    1  UNL1       -0.0610
     10 C          10.2721    2.0420   -0.4937 C.ar    1  UNL1       -0.0617
     11 C           9.0910    2.7180   -0.6256 C.ar    1  UNL1       -0.0610
     12 C           7.8839    2.1065   -0.3922 C.ar    1  UNL1       -0.0494
     13 O           6.1870   -1.0499    0.5337 O.2     1  UNL1       -0.4123
     14 N           2.6533   -2.2105    1.1144 N.am    1  UNL1       -0.2865
     15 C           1.8124   -1.0784    0.9904 C.3     1  UNL1        0.0538
     16 C           0.5879   -1.9769    1.0808 C.3     1  UNL1        0.1314
     17 O          -0.1186   -2.0411   -0.1338 O.3     1  UNL1       -0.4857
     18 C          -1.2551   -1.3074   -0.4211 C.ar    1  UNL1        0.1211
     19 C          -1.8659   -1.5394   -1.6686 C.ar    1  UNL1       -0.0196
     20 C          -2.9920   -0.8264   -1.9897 C.ar    1  UNL1       -0.0539
     21 C          -3.5185    0.0981   -1.1156 C.ar    1  UNL1       -0.0331
     22 C          -4.7336    0.9014   -1.4326 C.3     1  UNL1        0.0241
     23 N          -5.9424    0.2465   -1.0679 N.3     1  UNL1       -0.2967
     24 C          -7.1647    0.9740   -1.3382 C.3     1  UNL1        0.0103
     25 C          -7.5326    0.8494    0.0720 C.3     1  UNL1        0.0428
     26 C          -7.8386    2.0455    0.8931 C.3     1  UNL1        0.0578
     27 O          -8.9438    1.3542    1.4031 O.3     1  UNL1       -0.3783
     28 C          -8.8126    0.2687    0.5013 C.3     1  UNL1        0.0578
     29 C          -6.2640    0.1171    0.3304 C.3     1  UNL1        0.0103
     30 C          -2.9180    0.3176    0.0976 C.ar    1  UNL1       -0.0539
     31 C          -1.7911   -0.3857    0.4379 C.ar    1  UNL1       -0.0196
     32 C           1.5439   -3.0598    1.4036 C.3     1  UNL1        0.0538
     33 H           8.9922   -0.9342    0.4135 H       1  UNL1        0.0625
     34 H          11.1609    0.1755   -0.0107 H       1  UNL1        0.0618
     35 H          11.2470    2.5134   -0.6752 H       1  UNL1        0.0618
     36 H           9.0893    3.7425   -0.9166 H       1  UNL1        0.0618
     37 H           6.9593    2.6562   -0.5007 H       1  UNL1        0.0625
     38 H           1.9229   -0.5911   -0.0052 H       1  UNL1        0.0502
     39 H           1.8712   -0.3060    1.7669 H       1  UNL1        0.0502
     40 H          -0.0558   -1.6046    1.9130 H       1  UNL1        0.0765
     41 H          -1.4301   -2.2763   -2.3421 H       1  UNL1        0.0654
     42 H          -3.4734   -1.0005   -2.9558 H       1  UNL1        0.0622
     43 H          -4.6661    1.9073   -0.9490 H       1  UNL1        0.0476
     44 H          -4.7421    1.0304   -2.5436 H       1  UNL1        0.0476
     45 H          -7.8185    0.5381   -2.1229 H       1  UNL1        0.0434
     46 H          -6.8790    2.0348   -1.5885 H       1  UNL1        0.0434
     47 H          -8.0970    2.9208    0.2578 H       1  UNL1        0.0567
     48 H          -7.1319    2.2822    1.7142 H       1  UNL1        0.0567
     49 H          -8.6704   -0.7145    1.0110 H       1  UNL1        0.0567
     50 H          -9.5842    0.2673   -0.3145 H       1  UNL1        0.0567
     51 H          -6.4063   -0.9479    0.6714 H       1  UNL1        0.0434
     52 H          -5.6456    0.6844    1.0521 H       1  UNL1        0.0434
     53 H          -3.3431    1.0657    0.7869 H       1  UNL1        0.0622
     54 H          -1.3206   -0.1954    1.4091 H       1  UNL1        0.0654
     55 H           1.4292   -3.9383    0.7186 H       1  UNL1        0.0502
     56 H           1.4895   -3.4225    2.4597 H       1  UNL1        0.0502
@<TRIPOS>BOND
     1     1     2    2
     2     2     3    1
     3     3     4   ar
     4     4     5   ar
     5     5     6   ar
     6     6     7    1
     7     7     8   ar
     8     8     9   ar
     9     9    10   ar
    10    10    11   ar
    11    11    12   ar
    12     6    13   ar
    13     2    14   am
    14    14    15    1
    15    15    16    1
    16    16    17    1
    17    17    18    1
    18    18    19   ar
    19    19    20   ar
    20    20    21   ar
    21    21    22    1
    22    22    23    1
    23    23    24    1
    24    24    25    1
    25    25    26    1
    26    26    27    1
    27    27    28    1
    28    25    29    1
    29    21    30   ar
    30    30    31   ar
    31    16    32    1
    32    13     3   ar
    33    32    14    1
    34    12     7   ar
    35    31    18   ar
    36    29    23    1
    37    28    25    1
    38     8    33    1
    39     9    34    1
    40    10    35    1
    41    11    36    1
    42    12    37    1
    43    15    38    1
    44    15    39    1
    45    16    40    1
    46    19    41    1
    47    20    42    1
    48    22    43    1
    49    22    44    1
    50    24    45    1
    51    24    46    1
    52    26    47    1
    53    26    48    1
    54    28    49    1
    55    28    50    1
    56    29    51    1
    57    29    52    1
    58    30    53    1
    59    31    54    1
    60    32    55    1
    61    32    56    1
