
     RDKit          3D

 32 34  0  0  0  0  0  0  0  0999 V2000
   -2.4576    2.6455   -1.0108 O   0  0  0  0  0  0  0  0  0  0  0  0
   -1.8135    1.6404   -0.6483 C   0  0  0  0  0  0  0  0  0  0  0  0
   -0.4091    1.6587   -0.6450 C   0  0  0  0  0  0  0  0  0  0  0  0
    0.2596    2.7898   -1.0432 O   0  0  0  0  0  0  0  0  0  0  0  0
    0.2849    0.5619   -0.2495 C   0  0  0  0  0  0  0  0  0  0  0  0
    1.7384    0.4247   -0.1904 C   0  0  0  0  0  0  0  0  0  0  0  0
    2.6464    1.3910   -0.5283 C   0  0  0  0  0  0  0  0  0  0  0  0
    4.0235    1.1598   -0.4363 C   0  0  0  0  0  0  0  0  0  0  0  0
    4.5202   -0.0495   -0.0021 C   0  0  0  0  0  0  0  0  0  0  0  0
    5.8817   -0.3039    0.0980 O   0  0  0  0  0  0  0  0  0  0  0  0
    3.6290   -1.0281    0.3402 C   0  0  0  0  0  0  0  0  0  0  0  0
    4.1218   -2.2532    0.7800 O   0  0  0  0  0  0  0  0  0  0  0  0
    2.2920   -0.7799    0.2424 C   0  0  0  0  0  0  0  0  0  0  0  0
   -0.4186   -0.4928    0.1213 O   0  0  0  0  0  0  0  0  0  0  0  0
   -1.7074   -0.5854    0.1453 C   0  0  0  0  0  0  0  0  0  0  0  0
   -2.3421   -1.7599    0.5592 C   0  0  0  0  0  0  0  0  0  0  0  0
   -3.7124   -1.8651    0.5871 C   0  0  0  0  0  0  0  0  0  0  0  0
   -4.3215   -3.0642    1.0099 O   0  0  0  0  0  0  0  0  0  0  0  0
   -4.4620   -0.7838    0.1967 C   0  0  0  0  0  0  0  0  0  0  0  0
   -3.8407    0.3855   -0.2155 C   0  0  0  0  0  0  0  0  0  0  0  0
   -4.5652    1.5079   -0.6203 O   0  0  0  0  0  0  0  0  0  0  0  0
   -2.4653    0.5048   -0.2484 C   0  0  0  0  0  0  0  0  0  0  0  0
   -0.0722    3.7353   -0.9588 H   0  0  0  0  0  0  0  0  0  0  0  0
    2.3145    2.3463   -0.8708 H   0  0  0  0  0  0  0  0  0  0  0  0
    4.7105    1.9617   -0.7171 H   0  0  0  0  0  0  0  0  0  0  0  0
    6.4309   -0.3220   -0.7523 H   0  0  0  0  0  0  0  0  0  0  0  0
    4.9332   -2.6837    0.3608 H   0  0  0  0  0  0  0  0  0  0  0  0
    1.6206   -1.5828    0.5237 H   0  0  0  0  0  0  0  0  0  0  0  0
   -1.7771   -2.6260    0.8716 H   0  0  0  0  0  0  0  0  0  0  0  0
   -4.6092   -3.1841    1.9820 H   0  0  0  0  0  0  0  0  0  0  0  0
   -5.5276   -0.8360    0.2078 H   0  0  0  0  0  0  0  0  0  0  0  0
   -4.9056    1.4868   -1.5847 H   0  0  0  0  0  0  0  0  0  0  0  0
  1  2  2  0
  2  3  1  0
  3  4  1  0
  3  5  2  0
  5  6  1  0
  6  7  2  0
  7  8  1  0
  8  9  2  0
  9 10  1  0
  9 11  1  0
 11 12  1  0
 11 13  2  0
  5 14  1  0
 14 15  1  0
 15 16  2  0
 16 17  1  0
 17 18  1  0
 17 19  2  0
 19 20  1  0
 20 21  1  0
 20 22  2  0
 22  2  1  0
 13  6  1  0
 22 15  1  0
  4 23  1  0
  7 24  1  0
  8 25  1  0
 10 26  1  0
 12 27  1  0
 13 28  1  0
 16 29  1  0
 18 30  1  0
 19 31  1  0
 21 32  1  0
M  END
$$$$
