@<TRIPOS>MOLECULE
*****
 32 34 0 0 0
SMALL
GASTEIGER

@<TRIPOS>ATOM
      1 O          -2.4576    2.6455   -1.0108 O.2     1  UNL1       -0.2830
      2 C          -1.8135    1.6404   -0.6483 C.ar    1  UNL1        0.2379
      3 C          -0.4091    1.6587   -0.6450 C.ar    1  UNL1        0.2082
      4 O           0.2596    2.7898   -1.0432 O.3     1  UNL1       -0.5007
      5 C           0.2849    0.5619   -0.2495 C.ar    1  UNL1        0.1807
      6 C           1.7384    0.4247   -0.1904 C.ar    1  UNL1        0.0247
      7 C           2.6464    1.3910   -0.5283 C.ar    1  UNL1       -0.0473
      8 C           4.0235    1.1598   -0.4363 C.ar    1  UNL1       -0.0159
      9 C           4.5202   -0.0495   -0.0021 C.ar    1  UNL1        0.1583
     10 O           5.8817   -0.3039    0.0980 O.3     1  UNL1       -0.5033
     11 C           3.6290   -1.0281    0.3402 C.ar    1  UNL1        0.1589
     12 O           4.1218   -2.2532    0.7800 O.3     1  UNL1       -0.5033
     13 C           2.2920   -0.7799    0.2424 C.ar    1  UNL1       -0.0057
     14 O          -0.4186   -0.4928    0.1213 O.2     1  UNL1       -0.4507
     15 C          -1.7074   -0.5854    0.1453 C.ar    1  UNL1        0.1465
     16 C          -2.3421   -1.7599    0.5592 C.ar    1  UNL1        0.0231
     17 C          -3.7124   -1.8651    0.5871 C.ar    1  UNL1        0.1239
     18 O          -4.3215   -3.0642    1.0099 O.3     1  UNL1       -0.5065
     19 C          -4.4620   -0.7838    0.1967 C.ar    1  UNL1        0.0223
     20 C          -3.8407    0.3855   -0.2155 C.ar    1  UNL1        0.1348
     21 O          -4.5652    1.5079   -0.6203 O.3     1  UNL1       -0.5058
     22 C          -2.4653    0.5048   -0.2484 C.ar    1  UNL1        0.1092
     23 H          -0.0722    3.7353   -0.9588 H       1  UNL1        0.2924
     24 H           2.3145    2.3463   -0.8708 H       1  UNL1        0.0626
     25 H           4.7105    1.9617   -0.7171 H       1  UNL1        0.0655
     26 H           6.4309   -0.3220   -0.7523 H       1  UNL1        0.2923
     27 H           4.9332   -2.6837    0.3608 H       1  UNL1        0.2923
     28 H           1.6206   -1.5828    0.5237 H       1  UNL1        0.0662
     29 H          -1.7771   -2.6260    0.8716 H       1  UNL1        0.0691
     30 H          -4.6092   -3.1841    1.9820 H       1  UNL1        0.2921
     31 H          -5.5276   -0.8360    0.2078 H       1  UNL1        0.0691
     32 H          -4.9056    1.4868   -1.5847 H       1  UNL1        0.2922
@<TRIPOS>BOND
     1     1     2    2
     2     2     3   ar
     3     3     4    1
     4     3     5   ar
     5     5     6    1
     6     6     7   ar
     7     7     8   ar
     8     8     9   ar
     9     9    10    1
    10     9    11   ar
    11    11    12    1
    12    11    13   ar
    13     5    14   ar
    14    14    15   ar
    15    15    16   ar
    16    16    17   ar
    17    17    18    1
    18    17    19   ar
    19    19    20   ar
    20    20    21    1
    21    20    22   ar
    22    22     2   ar
    23    13     6   ar
    24    22    15   ar
    25     4    23    1
    26     7    24    1
    27     8    25    1
    28    10    26    1
    29    12    27    1
    30    13    28    1
    31    16    29    1
    32    18    30    1
    33    19    31    1
    34    21    32    1
