@<TRIPOS>MOLECULE
*****
 43 45 0 0 0
SMALL
GASTEIGER

@<TRIPOS>ATOM
      1 C          -5.0285    1.6331   -0.5922 C.3     1  UNL1       -0.0395
      2 C          -3.7786    1.1464   -0.0126 C.ar    1  UNL1       -0.0475
      3 C          -2.6210    1.8729   -0.1734 C.ar    1  UNL1       -0.0575
      4 C          -1.4055    1.4331    0.3710 C.ar    1  UNL1       -0.0477
      5 C          -1.3121    0.2736    1.0794 C.ar    1  UNL1        0.0131
      6 S           0.1934   -0.3843    1.7872 S.3     1  UNL1       -0.0876
      7 C           0.8545   -1.6030    0.6830 C.ar    1  UNL1        0.0337
      8 C           0.2424   -2.8749    0.7101 C.ar    1  UNL1       -0.0462
      9 C           0.7145   -3.9024   -0.0667 C.ar    1  UNL1       -0.0606
     10 C           1.8057   -3.6387   -0.8691 C.ar    1  UNL1       -0.0599
     11 C           2.4124   -2.4118   -0.9084 C.ar    1  UNL1       -0.0396
     12 C           1.9219   -1.3616   -0.1076 C.ar    1  UNL1        0.0437
     13 N           2.5688   -0.1189   -0.1610 N.pl3   1  UNL1       -0.3266
     14 C           2.1004    1.0892   -0.7770 C.3     1  UNL1        0.0248
     15 C           2.3134    2.3002    0.0998 C.3     1  UNL1        0.0117
     16 N           3.7006    2.4184    0.5163 N.3     1  UNL1       -0.3130
     17 C           4.5083    1.3120    0.0385 C.3     1  UNL1        0.0117
     18 C           3.8997    0.0135    0.4861 C.3     1  UNL1        0.0248
     19 C          -2.4962   -0.4608    1.2393 C.ar    1  UNL1       -0.0448
     20 C          -3.6725   -0.0152    0.7010 C.ar    1  UNL1       -0.0465
     21 C          -4.8919   -0.8375    0.9056 C.3     1  UNL1       -0.0394
     22 H          -4.8007    2.4427   -1.3122 H       1  UNL1        0.0278
     23 H          -5.6171    0.8691   -1.1359 H       1  UNL1        0.0278
     24 H          -5.6732    2.1142    0.1967 H       1  UNL1        0.0278
     25 H          -2.6761    2.7963   -0.7338 H       1  UNL1        0.0621
     26 H          -0.5428    2.0486    0.2282 H       1  UNL1        0.0629
     27 H          -0.6109   -3.0434    1.3517 H       1  UNL1        0.0629
     28 H           0.2735   -4.8936   -0.0753 H       1  UNL1        0.0618
     29 H           2.1900   -4.4439   -1.4899 H       1  UNL1        0.0618
     30 H           3.2665   -2.1810   -1.5273 H       1  UNL1        0.0636
     31 H           2.7027    1.2391   -1.7210 H       1  UNL1        0.0476
     32 H           1.0549    1.0654   -1.1045 H       1  UNL1        0.0476
     33 H           2.0642    3.1978   -0.4962 H       1  UNL1        0.0439
     34 H           1.6943    2.2519    1.0119 H       1  UNL1        0.0439
     35 H           4.1210    3.3239    0.2071 H       1  UNL1        0.1220
     36 H           4.6187    1.4117   -1.0467 H       1  UNL1        0.0439
     37 H           5.5039    1.4150    0.5489 H       1  UNL1        0.0439
     38 H           4.5439   -0.8327    0.2280 H       1  UNL1        0.0476
     39 H           3.7573    0.0697    1.5813 H       1  UNL1        0.0476
     40 H          -2.4428   -1.3979    1.8074 H       1  UNL1        0.0631
     41 H          -5.6468   -0.7267    0.1275 H       1  UNL1        0.0278
     42 H          -5.2585   -0.6959    1.9342 H       1  UNL1        0.0278
     43 H          -4.5517   -1.9136    0.8518 H       1  UNL1        0.0278
@<TRIPOS>BOND
     1     1     2    1
     2     2     3   ar
     3     3     4   ar
     4     4     5   ar
     5     5     6    1
     6     6     7    1
     7     7     8   ar
     8     8     9   ar
     9     9    10   ar
    10    10    11   ar
    11    11    12   ar
    12    12    13    1
    13    13    14    1
    14    14    15    1
    15    15    16    1
    16    16    17    1
    17    17    18    1
    18     5    19   ar
    19    19    20   ar
    20    20    21    1
    21    20     2   ar
    22    12     7   ar
    23    18    13    1
    24     1    22    1
    25     1    23    1
    26     1    24    1
    27     3    25    1
    28     4    26    1
    29     8    27    1
    30     9    28    1
    31    10    29    1
    32    11    30    1
    33    14    31    1
    34    14    32    1
    35    15    33    1
    36    15    34    1
    37    16    35    1
    38    17    36    1
    39    17    37    1
    40    18    38    1
    41    18    39    1
    42    19    40    1
    43    21    41    1
    44    21    42    1
    45    21    43    1
