
     RDKit          3D

 46 49  0  0  0  0  0  0  0  0999 V2000
   -3.0485   -1.2556   -0.3409 C   0  0  0  0  0  0  0  0  0  0  0  0
   -2.2023   -0.0263   -0.5902 C   0  0  2  0  0  0  0  0  0  0  0  0
   -1.4636   -0.1410   -1.8458 C   0  0  0  0  0  0  0  0  0  0  0  0
    0.0275   -0.3193   -1.7878 C   0  0  0  0  0  0  0  0  0  0  0  0
    0.6585   -0.2125   -0.4787 C   0  0  2  0  0  0  0  0  0  0  0  0
    1.9819   -0.8740   -0.3342 C   0  0  0  0  0  0  0  0  0  0  0  0
    2.8069   -0.7513   -1.5478 C   0  0  0  0  0  0  0  0  0  0  0  0
    4.1243   -0.1279   -1.4312 C   0  0  0  0  0  0  0  0  0  0  0  0
    4.5927    0.3670   -0.3126 C   0  0  0  0  0  0  0  0  0  0  0  0
    5.8614    0.9368   -0.3441 O   0  0  0  0  0  0  0  0  0  0  0  0
    3.7905    0.2974    0.8860 C   0  0  0  0  0  0  0  0  0  0  0  0
    2.6052   -0.2589    0.8837 C   0  0  0  0  0  0  0  0  0  0  0  0
    1.7915   -0.2626    2.1067 C   0  0  0  0  0  0  0  0  0  0  0  0
    0.4744   -0.9038    1.9172 C   0  0  0  0  0  0  0  0  0  0  0  0
   -0.2712   -0.6890    0.6705 C   0  0  1  0  0  0  0  0  0  0  0  0
   -1.3426    0.3169    0.6368 C   0  0  2  0  0  0  0  0  0  0  0  0
   -2.3589    0.3542    1.6906 C   0  0  0  0  0  0  0  0  0  0  0  0
   -3.5169    1.0843    1.0094 C   0  0  0  0  0  0  0  0  0  0  0  0
   -3.1671    1.1497   -0.4830 C   0  0  0  0  0  0  0  0  0  0  0  0
   -4.2888    0.9787   -1.2693 O   0  0  0  0  0  0  0  0  0  0  0  0
   -3.7472   -1.3013   -1.2296 H   0  0  0  0  0  0  0  0  0  0  0  0
   -3.7108   -1.1532    0.5274 H   0  0  0  0  0  0  0  0  0  0  0  0
   -2.5037   -2.1959   -0.3537 H   0  0  0  0  0  0  0  0  0  0  0  0
   -1.8473   -1.0435   -2.4139 H   0  0  0  0  0  0  0  0  0  0  0  0
   -1.7798    0.7116   -2.5181 H   0  0  0  0  0  0  0  0  0  0  0  0
    0.4334    0.5233   -2.4340 H   0  0  0  0  0  0  0  0  0  0  0  0
    0.3890   -1.2413   -2.3041 H   0  0  0  0  0  0  0  0  0  0  0  0
    0.8221    0.8820   -0.2459 H   0  0  0  0  0  0  0  0  0  0  0  0
    1.7789   -1.9718   -0.1147 H   0  0  0  0  0  0  0  0  0  0  0  0
    2.9137   -1.7821   -2.0337 H   0  0  0  0  0  0  0  0  0  0  0  0
    2.2702   -0.1844   -2.3695 H   0  0  0  0  0  0  0  0  0  0  0  0
    4.7312   -0.0844   -2.3372 H   0  0  0  0  0  0  0  0  0  0  0  0
    6.5869    0.4816    0.1856 H   0  0  0  0  0  0  0  0  0  0  0  0
    4.1580    0.7075    1.8161 H   0  0  0  0  0  0  0  0  0  0  0  0
    1.6091    0.8070    2.4293 H   0  0  0  0  0  0  0  0  0  0  0  0
    2.3214   -0.8101    2.9357 H   0  0  0  0  0  0  0  0  0  0  0  0
    0.6316   -2.0206    2.0903 H   0  0  0  0  0  0  0  0  0  0  0  0
   -0.1856   -0.6345    2.7984 H   0  0  0  0  0  0  0  0  0  0  0  0
   -0.6404   -1.6977    0.2842 H   0  0  0  0  0  0  0  0  0  0  0  0
   -0.9442    1.3330    0.4421 H   0  0  0  0  0  0  0  0  0  0  0  0
   -1.9828    1.0126    2.5266 H   0  0  0  0  0  0  0  0  0  0  0  0
   -2.6441   -0.5822    2.1593 H   0  0  0  0  0  0  0  0  0  0  0  0
   -4.4878    0.6074    1.1919 H   0  0  0  0  0  0  0  0  0  0  0  0
   -3.5530    2.1448    1.3570 H   0  0  0  0  0  0  0  0  0  0  0  0
   -2.5974    2.0649   -0.7250 H   0  0  0  0  0  0  0  0  0  0  0  0
   -5.0764    1.1886   -0.7000 H   0  0  0  0  0  0  0  0  0  0  0  0
  2  1  1  1
  2  3  1  0
  3  4  1  0
  4  5  1  0
  5  6  1  0
  6  7  1  0
  7  8  1  0
  8  9  2  0
  9 10  1  0
  9 11  1  0
 11 12  2  0
 12 13  1  0
 13 14  1  0
 14 15  1  0
 15 16  1  0
 16 17  1  0
 17 18  1  0
 18 19  1  0
 19 20  1  0
 16  2  1  0
 19  2  1  0
 15  5  1  0
 12  6  1  0
  1 21  1  0
  1 22  1  0
  1 23  1  0
  3 24  1  0
  3 25  1  0
  4 26  1  0
  4 27  1  0
  5 28  1  1
  6 29  1  0
  7 30  1  0
  7 31  1  0
  8 32  1  0
 10 33  1  0
 11 34  1  0
 13 35  1  0
 13 36  1  0
 14 37  1  0
 14 38  1  0
 15 39  1  6
 16 40  1  6
 17 41  1  0
 17 42  1  0
 18 43  1  0
 18 44  1  0
 19 45  1  0
 20 46  1  0
M  END
$$$$
