@<TRIPOS>MOLECULE
*****
 46 49 0 0 0
SMALL
GASTEIGER

@<TRIPOS>ATOM
      1 C          -3.0485   -1.2556   -0.3409 C.3     1  UNL1       -0.0569
      2 C          -2.2023   -0.0263   -0.5902 C.3     1  UNL1       -0.0030
      3 C          -1.4636   -0.1410   -1.8458 C.3     1  UNL1       -0.0447
      4 C           0.0275   -0.3193   -1.7878 C.3     1  UNL1       -0.0488
      5 C           0.6585   -0.2125   -0.4787 C.3     1  UNL1       -0.0311
      6 C           1.9819   -0.8740   -0.3342 C.3     1  UNL1       -0.0129
      7 C           2.8069   -0.7513   -1.5478 C.3     1  UNL1       -0.0243
      8 C           4.1243   -0.1279   -1.4312 C.2     1  UNL1       -0.0419
      9 C           4.5927    0.3670   -0.3126 C.2     1  UNL1        0.1129
     10 O           5.8614    0.9368   -0.3441 O.2     1  UNL1       -0.5071
     11 C           3.7905    0.2974    0.8860 C.2     1  UNL1       -0.0210
     12 C           2.6052   -0.2589    0.8837 C.2     1  UNL1       -0.0625
     13 C           1.7915   -0.2626    2.1067 C.3     1  UNL1       -0.0308
     14 C           0.4744   -0.9038    1.9172 C.3     1  UNL1       -0.0460
     15 C          -0.2712   -0.6890    0.6705 C.3     1  UNL1       -0.0340
     16 C          -1.3426    0.3169    0.6368 C.3     1  UNL1       -0.0301
     17 C          -2.3589    0.3542    1.6906 C.3     1  UNL1       -0.0470
     18 C          -3.5169    1.0843    1.0094 C.3     1  UNL1       -0.0261
     19 C          -3.1671    1.1497   -0.4830 C.3     1  UNL1        0.0609
     20 O          -4.2888    0.9787   -1.2693 O.3     1  UNL1       -0.3912
     21 H          -3.7472   -1.3013   -1.2296 H       1  UNL1        0.0236
     22 H          -3.7108   -1.1532    0.5274 H       1  UNL1        0.0236
     23 H          -2.5037   -2.1959   -0.3537 H       1  UNL1        0.0236
     24 H          -1.8473   -1.0435   -2.4139 H       1  UNL1        0.0271
     25 H          -1.7798    0.7116   -2.5181 H       1  UNL1        0.0271
     26 H           0.4334    0.5233   -2.4340 H       1  UNL1        0.0268
     27 H           0.3890   -1.2413   -2.3041 H       1  UNL1        0.0268
     28 H           0.8221    0.8820   -0.2459 H       1  UNL1        0.0309
     29 H           1.7789   -1.9718   -0.1147 H       1  UNL1        0.0351
     30 H           2.9137   -1.7821   -2.0337 H       1  UNL1        0.0314
     31 H           2.2702   -0.1844   -2.3695 H       1  UNL1        0.0314
     32 H           4.7312   -0.0844   -2.3372 H       1  UNL1        0.0608
     33 H           6.5869    0.4816    0.1856 H       1  UNL1        0.2921
     34 H           4.1580    0.7075    1.8161 H       1  UNL1        0.0654
     35 H           1.6091    0.8070    2.4293 H       1  UNL1        0.0310
     36 H           2.3214   -0.8101    2.9357 H       1  UNL1        0.0310
     37 H           0.6316   -2.0206    2.0903 H       1  UNL1        0.0271
     38 H          -0.1856   -0.6345    2.7984 H       1  UNL1        0.0271
     39 H          -0.6404   -1.6977    0.2842 H       1  UNL1        0.0307
     40 H          -0.9442    1.3330    0.4421 H       1  UNL1        0.0310
     41 H          -1.9828    1.0126    2.5266 H       1  UNL1        0.0269
     42 H          -2.6441   -0.5822    2.1593 H       1  UNL1        0.0269
     43 H          -4.4878    0.6074    1.1919 H       1  UNL1        0.0290
     44 H          -3.5530    2.1448    1.3570 H       1  UNL1        0.0290
     45 H          -2.5974    2.0649   -0.7250 H       1  UNL1        0.0599
     46 H          -5.0764    1.1886   -0.7000 H       1  UNL1        0.2098
@<TRIPOS>BOND
     1     2     1    1
     2     2     3    1
     3     3     4    1
     4     4     5    1
     5     5     6    1
     6     6     7    1
     7     7     8    1
     8     8     9    2
     9     9    10    1
    10     9    11    1
    11    11    12    2
    12    12    13    1
    13    13    14    1
    14    14    15    1
    15    15    16    1
    16    16    17    1
    17    17    18    1
    18    18    19    1
    19    19    20    1
    20    16     2    1
    21    19     2    1
    22    15     5    1
    23    12     6    1
    24     1    21    1
    25     1    22    1
    26     1    23    1
    27     3    24    1
    28     3    25    1
    29     4    26    1
    30     4    27    1
    31     5    28    1
    32     6    29    1
    33     7    30    1
    34     7    31    1
    35     8    32    1
    36    10    33    1
    37    11    34    1
    38    13    35    1
    39    13    36    1
    40    14    37    1
    41    14    38    1
    42    15    39    1
    43    16    40    1
    44    17    41    1
    45    17    42    1
    46    18    43    1
    47    18    44    1
    48    19    45    1
    49    20    46    1
