
     RDKit          3D

 53 57  0  0  0  0  0  0  0  0999 V2000
   -2.7108   -1.3110    2.2134 C   0  0  0  0  0  0  0  0  0  0  0  0
   -2.8797   -0.5794    0.8868 C   0  0  1  0  0  0  0  0  0  0  0  0
   -1.9342    0.1965    0.4866 O   0  0  0  0  0  0  0  0  0  0  0  0
   -0.9810    0.9798    0.0830 C   0  0  0  0  0  0  0  0  0  0  0  0
    0.3295    0.5291   -0.1380 C   0  0  0  0  0  0  0  0  0  0  0  0
    1.3605    1.3159   -0.5614 C   0  0  0  0  0  0  0  0  0  0  0  0
    2.7181    0.8114   -0.7820 C   0  0  0  0  0  0  0  0  0  0  0  0
    3.5838    1.3200   -1.7260 C   0  0  0  0  0  0  0  0  0  0  0  0
    4.7062    0.6247   -1.6397 N   0  0  0  0  0  0  0  0  0  0  0  0
    4.6128   -0.3019   -0.6948 N   0  0  0  0  0  0  0  0  0  0  0  0
    5.6617   -1.2148   -0.3596 C   0  0  0  0  0  0  0  0  0  0  0  0
    5.2881   -2.6764   -0.3669 C   0  0  0  0  0  0  0  0  0  0  0  0
    6.1120   -2.8329    0.9060 C   0  0  0  0  0  0  0  0  0  0  0  0
    5.9564   -1.3258    1.1322 C   0  0  0  0  0  0  0  0  0  0  0  0
    3.3858   -0.1991   -0.1534 C   0  0  0  0  0  0  0  0  0  0  0  0
    1.0461    2.6478   -0.7759 C   0  0  0  0  0  0  0  0  0  0  0  0
   -0.2207    3.1401   -0.5747 C   0  0  0  0  0  0  0  0  0  0  0  0
   -0.7601    4.3838   -0.7151 N   0  0  0  0  0  0  0  0  0  0  0  0
   -2.0474    4.3370   -0.3911 N   0  0  0  0  0  0  0  0  0  0  0  0
   -2.9613    5.4575   -0.4132 C   0  0  0  0  0  0  0  0  0  0  0  0
   -2.4039    3.0912   -0.0319 C   0  0  0  0  0  0  0  0  0  0  0  0
   -3.5959    2.5967    0.3668 F   0  0  0  0  0  0  0  0  0  0  0  0
   -1.2299    2.3376   -0.1532 C   0  0  0  0  0  0  0  0  0  0  0  0
   -3.3016   -1.7077   -0.0932 C   0  0  1  0  0  0  0  0  0  0  0  0
   -4.5765   -2.3539    0.3538 C   0  0  0  0  0  0  0  0  0  0  0  0
   -5.2563   -2.7636   -0.8662 N   0  0  0  0  0  0  0  0  0  0  0  0
   -4.6991   -2.0845   -1.9779 C   0  0  0  0  0  0  0  0  0  0  0  0
   -5.0329   -2.2773   -3.1619 O   0  0  0  0  0  0  0  0  0  0  0  0
   -3.6699   -1.1306   -1.4338 C   0  0  0  0  0  0  0  0  0  0  0  0
   -2.3451   -0.6746    3.0145 H   0  0  0  0  0  0  0  0  0  0  0  0
   -2.0101   -2.1652    2.1061 H   0  0  0  0  0  0  0  0  0  0  0  0
   -3.7141   -1.6895    2.4998 H   0  0  0  0  0  0  0  0  0  0  0  0
   -3.8680   -0.0105    1.0030 H   0  0  0  0  0  0  0  0  0  0  0  0
    0.5478   -0.5394    0.0423 H   0  0  0  0  0  0  0  0  0  0  0  0
    3.3555    2.1509   -2.4104 H   0  0  0  0  0  0  0  0  0  0  0  0
    6.6017   -1.0362   -0.8929 H   0  0  0  0  0  0  0  0  0  0  0  0
    4.2153   -2.9031   -0.2418 H   0  0  0  0  0  0  0  0  0  0  0  0
    5.7862   -3.2384   -1.1842 H   0  0  0  0  0  0  0  0  0  0  0  0
    5.6327   -3.4249    1.7008 H   0  0  0  0  0  0  0  0  0  0  0  0
    7.1747   -3.0681    0.7305 H   0  0  0  0  0  0  0  0  0  0  0  0
    6.8956   -0.8309    1.4359 H   0  0  0  0  0  0  0  0  0  0  0  0
    5.1050   -1.0832    1.7864 H   0  0  0  0  0  0  0  0  0  0  0  0
    3.0167   -0.8078    0.6281 H   0  0  0  0  0  0  0  0  0  0  0  0
    1.8419    3.2872   -1.1096 H   0  0  0  0  0  0  0  0  0  0  0  0
   -2.5129    6.2818   -0.9700 H   0  0  0  0  0  0  0  0  0  0  0  0
   -3.9225    5.1063   -0.8765 H   0  0  0  0  0  0  0  0  0  0  0  0
   -3.2108    5.7770    0.6244 H   0  0  0  0  0  0  0  0  0  0  0  0
   -2.4949   -2.4362   -0.1639 H   0  0  0  0  0  0  0  0  0  0  0  0
   -4.3922   -3.2781    0.9409 H   0  0  0  0  0  0  0  0  0  0  0  0
   -5.2650   -1.6541    0.8680 H   0  0  0  0  0  0  0  0  0  0  0  0
   -6.0320   -3.4586   -0.8587 H   0  0  0  0  0  0  0  0  0  0  0  0
   -4.1213   -0.1311   -1.3732 H   0  0  0  0  0  0  0  0  0  0  0  0
   -2.7844   -1.1833   -2.1049 H   0  0  0  0  0  0  0  0  0  0  0  0
  1  2  1  0
  2  3  1  0
  3  4  1  0
  4  5  2  0
  5  6  1  0
  6  7  1  0
  7  8  1  0
  8  9  2  0
  9 10  1  0
 10 11  1  0
 11 12  1  0
 12 13  1  0
 13 14  1  0
 10 15  1  0
  6 16  2  0
 16 17  1  0
 17 18  2  0
 18 19  1  0
 19 20  1  0
 19 21  1  0
 21 22  1  0
 21 23  2  0
  2 24  1  0
 24 25  1  0
 25 26  1  0
 26 27  1  0
 27 28  2  0
 27 29  1  0
 23  4  1  0
 29 24  1  0
 15  7  2  0
 23 17  1  0
 14 11  1  0
  1 30  1  0
  1 31  1  0
  1 32  1  0
  2 33  1  1
  5 34  1  0
  8 35  1  0
 11 36  1  0
 12 37  1  0
 12 38  1  0
 13 39  1  0
 13 40  1  0
 14 41  1  0
 14 42  1  0
 15 43  1  0
 16 44  1  0
 20 45  1  0
 20 46  1  0
 20 47  1  0
 24 48  1  6
 25 49  1  0
 25 50  1  0
 26 51  1  0
 29 52  1  0
 29 53  1  0
M  END
$$$$
