@<TRIPOS>MOLECULE
*****
 53 57 0 0 0
SMALL
GASTEIGER

@<TRIPOS>ATOM
      1 C          -2.7108   -1.3110    2.2134 C.3     1  UNL1       -0.0275
      2 C          -2.8797   -0.5794    0.8868 C.3     1  UNL1        0.1021
      3 O          -1.9342    0.1965    0.4866 O.3     1  UNL1       -0.4879
      4 C          -0.9810    0.9798    0.0830 C.ar    1  UNL1        0.1350
      5 C           0.3295    0.5291   -0.1380 C.ar    1  UNL1       -0.0113
      6 C           1.3605    1.3159   -0.5614 C.ar    1  UNL1       -0.0094
      7 C           2.7181    0.8114   -0.7820 C.ar    1  UNL1        0.0198
      8 C           3.5838    1.3200   -1.7260 C.ar    1  UNL1        0.0571
      9 N           4.7062    0.6247   -1.6397 N.ar    1  UNL1       -0.1788
     10 N           4.6128   -0.3019   -0.6948 N.ar    1  UNL1       -0.2678
     11 C           5.6617   -1.2148   -0.3596 C.3     1  UNL1        0.0527
     12 C           5.2881   -2.6764   -0.3669 C.3     1  UNL1       -0.0304
     13 C           6.1120   -2.8329    0.9060 C.3     1  UNL1       -0.0492
     14 C           5.9564   -1.3258    1.1322 C.3     1  UNL1       -0.0304
     15 C           3.3858   -0.1991   -0.1534 C.ar    1  UNL1        0.0335
     16 C           1.0461    2.6478   -0.7759 C.ar    1  UNL1       -0.0258
     17 C          -0.2207    3.1401   -0.5747 C.ar    1  UNL1        0.0998
     18 N          -0.7601    4.3838   -0.7151 N.ar    1  UNL1       -0.1689
     19 N          -2.0474    4.3370   -0.3911 N.ar    1  UNL1       -0.2408
     20 C          -2.9613    5.4575   -0.4132 C.3     1  UNL1        0.0331
     21 C          -2.4039    3.0912   -0.0319 C.ar    1  UNL1        0.2228
     22 F          -3.5959    2.5967    0.3668 F       1  UNL1       -0.1834
     23 C          -1.2299    2.3376   -0.1532 C.ar    1  UNL1        0.0975
     24 C          -3.3016   -1.7077   -0.0932 C.3     1  UNL1        0.0195
     25 C          -4.5765   -2.3539    0.3538 C.3     1  UNL1        0.0182
     26 N          -5.2563   -2.7636   -0.8662 N.am    1  UNL1       -0.3149
     27 C          -4.6991   -2.0845   -1.9779 C.2     1  UNL1        0.2135
     28 O          -5.0329   -2.2773   -3.1619 O.2     1  UNL1       -0.2758
     29 C          -3.6699   -1.1306   -1.4338 C.3     1  UNL1        0.0315
     30 H          -2.3451   -0.6746    3.0145 H       1  UNL1        0.0265
     31 H          -2.0101   -2.1652    2.1061 H       1  UNL1        0.0265
     32 H          -3.7141   -1.6895    2.4998 H       1  UNL1        0.0265
     33 H          -3.8680   -0.0105    1.0030 H       1  UNL1        0.0733
     34 H           0.5478   -0.5394    0.0423 H       1  UNL1        0.0660
     35 H           3.3555    2.1509   -2.4104 H       1  UNL1        0.0854
     36 H           6.6017   -1.0362   -0.8929 H       1  UNL1        0.0545
     37 H           4.2153   -2.9031   -0.2418 H       1  UNL1        0.0286
     38 H           5.7862   -3.2384   -1.1842 H       1  UNL1        0.0286
     39 H           5.6327   -3.4249    1.7008 H       1  UNL1        0.0267
     40 H           7.1747   -3.0681    0.7305 H       1  UNL1        0.0267
     41 H           6.8956   -0.8309    1.4359 H       1  UNL1        0.0286
     42 H           5.1050   -1.0832    1.7864 H       1  UNL1        0.0286
     43 H           3.0167   -0.8078    0.6281 H       1  UNL1        0.0832
     44 H           1.8419    3.2872   -1.1096 H       1  UNL1        0.0646
     45 H          -2.5129    6.2818   -0.9700 H       1  UNL1        0.0474
     46 H          -3.9225    5.1063   -0.8765 H       1  UNL1        0.0474
     47 H          -3.2108    5.7770    0.6244 H       1  UNL1        0.0474
     48 H          -2.4949   -2.4362   -0.1639 H       1  UNL1        0.0356
     49 H          -4.3922   -3.2781    0.9409 H       1  UNL1        0.0466
     50 H          -5.2650   -1.6541    0.8680 H       1  UNL1        0.0466
     51 H          -6.0320   -3.4586   -0.8587 H       1  UNL1        0.1487
     52 H          -4.1213   -0.1311   -1.3732 H       1  UNL1        0.0363
     53 H          -2.7844   -1.1833   -2.1049 H       1  UNL1        0.0363
@<TRIPOS>BOND
     1     1     2    1
     2     2     3    1
     3     3     4    1
     4     4     5   ar
     5     5     6   ar
     6     6     7    1
     7     7     8   ar
     8     8     9   ar
     9     9    10   ar
    10    10    11    1
    11    11    12    1
    12    12    13    1
    13    13    14    1
    14    10    15   ar
    15     6    16   ar
    16    16    17   ar
    17    17    18   ar
    18    18    19   ar
    19    19    20    1
    20    19    21   ar
    21    21    22    1
    22    21    23   ar
    23     2    24    1
    24    24    25    1
    25    25    26    1
    26    26    27   am
    27    27    28    2
    28    27    29    1
    29    23     4   ar
    30    29    24    1
    31    15     7   ar
    32    23    17   ar
    33    14    11    1
    34     1    30    1
    35     1    31    1
    36     1    32    1
    37     2    33    1
    38     5    34    1
    39     8    35    1
    40    11    36    1
    41    12    37    1
    42    12    38    1
    43    13    39    1
    44    13    40    1
    45    14    41    1
    46    14    42    1
    47    15    43    1
    48    16    44    1
    49    20    45    1
    50    20    46    1
    51    20    47    1
    52    24    48    1
    53    25    49    1
    54    25    50    1
    55    26    51    1
    56    29    52    1
    57    29    53    1
