@<TRIPOS>MOLECULE
*****
 46 49 0 0 0
SMALL
GASTEIGER

@<TRIPOS>ATOM
      1 N           5.8290   -3.9739    0.9115 N.1     1  UNL1       -0.1907
      2 C           5.7845   -2.8974    0.4984 C.1     1  UNL1        0.1029
      3 C           5.7306   -1.5329    0.0019 C.ar    1  UNL1        0.0969
      4 C           6.8558   -0.7377   -0.0661 C.ar    1  UNL1       -0.0406
      5 C           6.8145    0.5501   -0.5327 C.ar    1  UNL1       -0.0569
      6 C           5.6032    1.0492   -0.9422 C.ar    1  UNL1       -0.0162
      7 C           4.4312    0.3068   -0.9019 C.ar    1  UNL1        0.1643
      8 C           4.5213   -0.9808   -0.4261 C.ar    1  UNL1        0.1794
      9 O           3.3591   -1.7347   -0.3800 O.3     1  UNL1       -0.4830
     10 C           2.1279   -1.0460   -0.2878 C.3     1  UNL1        0.1308
     11 C           2.0392    0.0752   -1.3039 C.3     1  UNL1        0.1605
     12 C           0.9108    0.9849   -0.9549 C.ar    1  UNL1        0.0143
     13 C           0.7711    2.2309   -1.5283 C.ar    1  UNL1        0.0344
     14 N          -0.2538    3.0546   -1.2109 N.ar    1  UNL1       -0.2626
     15 C          -1.1885    2.6942   -0.3169 C.ar    1  UNL1        0.0320
     16 C          -1.0942    1.4568    0.2856 C.ar    1  UNL1       -0.0132
     17 C          -2.1548    1.0868    1.2785 C.3     1  UNL1        0.0466
     18 N          -3.2087    0.4484    0.5700 N.3     1  UNL1       -0.1768
     19 C          -4.4803    1.0574    0.5922 C.3     1  UNL1        0.0205
     20 C          -5.6405    0.1985    0.9589 C.3     1  UNL1       -0.0370
     21 C          -5.7496   -1.0432    0.1054 C.3     1  UNL1       -0.0309
     22 C          -4.6857   -2.0172    0.5591 C.3     1  UNL1        0.0820
     23 S          -3.1244   -1.2286    0.4182 S.O2    1  UNL1        0.0321
     24 O          -2.6088   -1.5351   -0.9855 O.2     1  UNL1       -0.1580
     25 O          -2.1142   -1.7765    1.3894 O.2     1  UNL1       -0.1580
     26 C          -0.0509    0.6179   -0.0371 C.ar    1  UNL1       -0.0476
     27 O           3.2255    0.8417   -1.3230 O.3     1  UNL1       -0.4771
     28 H           7.8127   -1.1486    0.2634 H       1  UNL1        0.0632
     29 H           7.7314    1.1442   -0.5688 H       1  UNL1        0.0619
     30 H           5.5286    2.0589   -1.3161 H       1  UNL1        0.0655
     31 H           1.3200   -1.7797   -0.4655 H       1  UNL1        0.0738
     32 H           2.0609   -0.5670    0.7116 H       1  UNL1        0.0738
     33 H           1.8363   -0.4091   -2.2835 H       1  UNL1        0.0820
     34 H           1.5247    2.5499   -2.2645 H       1  UNL1        0.0833
     35 H          -2.0115    3.3731   -0.0710 H       1  UNL1        0.0833
     36 H          -1.6489    0.4314    2.0178 H       1  UNL1        0.0493
     37 H          -2.4515    2.0285    1.7833 H       1  UNL1        0.0493
     38 H          -4.7439    1.5714   -0.3737 H       1  UNL1        0.0444
     39 H          -4.4443    1.8841    1.3593 H       1  UNL1        0.0444
     40 H          -5.6977   -0.1007    2.0040 H       1  UNL1        0.0279
     41 H          -6.5707    0.7958    0.7492 H       1  UNL1        0.0279
     42 H          -6.7344   -1.4901    0.2480 H       1  UNL1        0.0282
     43 H          -5.5573   -0.8231   -0.9627 H       1  UNL1        0.0282
     44 H          -4.8976   -2.4038    1.5745 H       1  UNL1        0.0515
     45 H          -4.7244   -2.9250   -0.1084 H       1  UNL1        0.0515
     46 H           0.0184   -0.3396    0.4324 H       1  UNL1        0.0626
@<TRIPOS>BOND
     1     1     2    3
     2     2     3    1
     3     3     4   ar
     4     4     5   ar
     5     5     6   ar
     6     6     7   ar
     7     7     8   ar
     8     8     9    1
     9     9    10    1
    10    10    11    1
    11    11    12    1
    12    12    13   ar
    13    13    14   ar
    14    14    15   ar
    15    15    16   ar
    16    16    17    1
    17    17    18    1
    18    18    19    1
    19    19    20    1
    20    20    21    1
    21    21    22    1
    22    22    23    1
    23    23    24    2
    24    23    25    2
    25    16    26   ar
    26    11    27    1
    27     8     3   ar
    28    26    12   ar
    29    27     7    1
    30    23    18    1
    31     4    28    1
    32     5    29    1
    33     6    30    1
    34    10    31    1
    35    10    32    1
    36    11    33    1
    37    13    34    1
    38    15    35    1
    39    17    36    1
    40    17    37    1
    41    19    38    1
    42    19    39    1
    43    20    40    1
    44    20    41    1
    45    21    42    1
    46    21    43    1
    47    22    44    1
    48    22    45    1
    49    26    46    1
