@<TRIPOS>MOLECULE
*****
 61 63 0 0 0
SMALL
GASTEIGER

@<TRIPOS>ATOM
      1 C          -0.2502    1.0474    2.0674 C.3     1  UNL1       -0.0461
      2 C          -0.4593    0.3782    0.7157 C.3     1  UNL1        0.0275
      3 N           0.5483    0.7831   -0.2321 N.am    1  UNL1       -0.3089
      4 C           1.6673    0.0236   -0.6332 C.2     1  UNL1        0.2566
      5 O           1.7890   -1.1100   -0.1066 O.2     1  UNL1       -0.2714
      6 C           2.6729    0.4982   -1.6129 C.3     1  UNL1        0.1816
      7 C           1.9709    0.3950   -2.9792 C.3     1  UNL1       -0.0164
      8 C           3.0552    1.9288   -1.4378 C.3     1  UNL1       -0.0164
      9 O           3.7717   -0.3874   -1.7192 O.3     1  UNL1       -0.4609
     10 C           4.5948   -0.7014   -0.6652 C.ar    1  UNL1        0.2156
     11 C           5.7163    0.0549   -0.4105 C.ar    1  UNL1        0.0005
     12 C           6.5706   -0.2336    0.6503 C.ar    1  UNL1       -0.0436
     13 C           6.2902   -1.3197    1.4835 C.ar    1  UNL1        0.0731
     14 C           7.1639   -1.6713    2.6347 C.3     1  UNL1        0.4188
     15 F           6.4331   -1.7049    3.8163 F       1  UNL1       -0.1658
     16 F           7.7637   -2.8994    2.4880 F       1  UNL1       -0.1658
     17 F           8.1259   -0.6817    2.8040 F       1  UNL1       -0.1658
     18 C           5.1572   -2.0453    1.1848 C.ar    1  UNL1        0.0430
     19 N           4.3498   -1.7361    0.1476 N.ar    1  UNL1       -0.2207
     20 C          -1.8551    0.6941    0.2918 C.3     1  UNL1        0.0063
     21 C          -2.1623    0.0848   -1.0352 C.3     1  UNL1       -0.0192
     22 C          -3.5082    0.3458   -1.5605 C.ar    1  UNL1       -0.0466
     23 C          -4.5687   -0.4863   -1.3758 C.ar    1  UNL1       -0.0572
     24 C          -5.8069   -0.1419   -1.9034 C.ar    1  UNL1       -0.0431
     25 C          -6.0093    1.0198   -2.6144 C.ar    1  UNL1        0.0410
     26 CL         -7.5631    1.4393   -3.2747 Cl      1  UNL1       -0.0835
     27 C          -4.9198    1.8731   -2.8033 C.ar    1  UNL1       -0.0431
     28 C          -3.6845    1.5189   -2.2716 C.ar    1  UNL1       -0.0572
     29 C          -2.7565    0.0889    1.3103 C.ar    1  UNL1       -0.0410
     30 C          -3.5330    0.8547    2.1514 C.ar    1  UNL1       -0.0582
     31 C          -4.3461    0.2323    3.0512 C.ar    1  UNL1       -0.0603
     32 C          -4.4040   -1.1484    3.1325 C.ar    1  UNL1       -0.0443
     33 C          -3.6310   -1.9392    2.2940 C.ar    1  UNL1        0.0520
     34 C          -3.7646   -3.3548    2.4002 C.1     1  UNL1        0.0992
     35 N          -3.8663   -4.5208    2.5064 N.1     1  UNL1       -0.1909
     36 C          -2.8151   -1.2902    1.3928 C.ar    1  UNL1       -0.0408
     37 H           0.6181    0.6635    2.6116 H       1  UNL1        0.0248
     38 H          -0.2222    2.1616    1.9392 H       1  UNL1        0.0248
     39 H          -1.1484    0.8368    2.6725 H       1  UNL1        0.0248
     40 H          -0.3485   -0.6991    0.9046 H       1  UNL1        0.0501
     41 H           0.4582    1.7355   -0.6755 H       1  UNL1        0.1491
     42 H           1.4297   -0.5947   -2.9422 H       1  UNL1        0.0273
     43 H           1.2980    1.2346   -3.1698 H       1  UNL1        0.0273
     44 H           2.7361    0.2719   -3.7729 H       1  UNL1        0.0273
     45 H           3.1755    2.2407   -0.3832 H       1  UNL1        0.0273
     46 H           3.9604    2.1135   -2.0453 H       1  UNL1        0.0273
     47 H           2.2652    2.5738   -1.8760 H       1  UNL1        0.0273
     48 H           5.9834    0.9046   -1.0170 H       1  UNL1        0.0671
     49 H           7.4534    0.3539    0.8601 H       1  UNL1        0.0625
     50 H           4.9360   -2.8971    1.8374 H       1  UNL1        0.0836
     51 H          -2.0366    1.7944    0.2429 H       1  UNL1        0.0370
     52 H          -2.0175   -1.0149   -1.0476 H       1  UNL1        0.0320
     53 H          -1.3969    0.4811   -1.7532 H       1  UNL1        0.0320
     54 H          -4.5320   -1.4185   -0.8494 H       1  UNL1        0.0621
     55 H          -6.6760   -0.7868   -1.7716 H       1  UNL1        0.0632
     56 H          -5.0865    2.7758   -3.3570 H       1  UNL1        0.0632
     57 H          -2.8827    2.2218   -2.4551 H       1  UNL1        0.0621
     58 H          -3.4693    1.9212    2.0682 H       1  UNL1        0.0620
     59 H          -4.9617    0.8161    3.7188 H       1  UNL1        0.0618
     60 H          -5.0515   -1.6397    3.8562 H       1  UNL1        0.0630
     61 H          -2.2207   -1.9384    0.7521 H       1  UNL1        0.0633
@<TRIPOS>BOND
     1     1     2    1
     2     2     3    1
     3     3     4   am
     4     4     5    2
     5     4     6    1
     6     6     7    1
     7     6     8    1
     8     6     9    1
     9     9    10    1
    10    10    11   ar
    11    11    12   ar
    12    12    13   ar
    13    13    14    1
    14    14    15    1
    15    14    16    1
    16    14    17    1
    17    13    18   ar
    18    18    19   ar
    19     2    20    1
    20    20    21    1
    21    21    22    1
    22    22    23   ar
    23    23    24   ar
    24    24    25   ar
    25    25    26    1
    26    25    27   ar
    27    27    28   ar
    28    20    29    1
    29    29    30   ar
    30    30    31   ar
    31    31    32   ar
    32    32    33   ar
    33    33    34    1
    34    34    35    3
    35    33    36   ar
    36    19    10   ar
    37    28    22   ar
    38    36    29   ar
    39     1    37    1
    40     1    38    1
    41     1    39    1
    42     2    40    1
    43     3    41    1
    44     7    42    1
    45     7    43    1
    46     7    44    1
    47     8    45    1
    48     8    46    1
    49     8    47    1
    50    11    48    1
    51    12    49    1
    52    18    50    1
    53    20    51    1
    54    21    52    1
    55    21    53    1
    56    23    54    1
    57    24    55    1
    58    27    56    1
    59    28    57    1
    60    30    58    1
    61    31    59    1
    62    32    60    1
    63    36    61    1
