@<TRIPOS>MOLECULE
*****
 45 48 0 0 0
SMALL
GASTEIGER

@<TRIPOS>ATOM
      1 O           2.7540    2.0734   -1.2275 O.2     1  UNL1       -0.2687
      2 C           2.9477    0.8550   -0.9293 C.2     1  UNL1        0.2601
      3 N           1.8951   -0.0278   -1.2563 N.am    1  UNL1       -0.2313
      4 N           0.7068    0.3925   -1.8695 N.pl3   1  UNL1       -0.2467
      5 C          -0.3653    0.7831   -1.0269 C.ar    1  UNL1        0.1574
      6 N          -0.4371    2.0703   -0.6577 N.ar    1  UNL1       -0.2274
      7 C          -1.4192    2.4961    0.1307 C.ar    1  UNL1        0.0914
      8 C          -1.4561    3.8294    0.4872 C.ar    1  UNL1       -0.0342
      9 C          -2.4578    4.3174    1.3047 C.ar    1  UNL1       -0.0596
     10 C          -3.3972    3.4049    1.7314 C.ar    1  UNL1       -0.0596
     11 C          -3.3941    2.0780    1.4000 C.ar    1  UNL1       -0.0342
     12 C          -2.3797    1.6122    0.5792 C.ar    1  UNL1        0.0896
     13 N          -2.3008    0.3231    0.2046 N.ar    1  UNL1       -0.2463
     14 C          -1.3114   -0.1124   -0.5912 C.ar    1  UNL1        0.0872
     15 C          -1.2401   -1.5562   -0.9992 C.3     1  UNL1        0.0182
     16 C          -2.3808   -2.2726   -0.3868 C.ar    1  UNL1       -0.0415
     17 C          -3.5615   -2.3529   -1.0799 C.ar    1  UNL1       -0.0582
     18 C          -4.6492   -3.0105   -0.5462 C.ar    1  UNL1       -0.0615
     19 C          -4.5198   -3.5860    0.7032 C.ar    1  UNL1       -0.0617
     20 C          -3.3482   -3.5234    1.4252 C.ar    1  UNL1       -0.0615
     21 C          -2.2836   -2.8547    0.8526 C.ar    1  UNL1       -0.0582
     22 C           4.1888    0.4495   -0.2944 C.ar    1  UNL1        0.0382
     23 C           4.4380   -0.8581    0.0471 C.ar    1  UNL1       -0.0485
     24 C           5.6390   -1.2335    0.6582 C.ar    1  UNL1       -0.0470
     25 C           6.5889   -0.2641    0.9205 C.ar    1  UNL1        0.0179
     26 BR          8.2318   -0.7559    1.7528 Br      1  UNL1       -0.0503
     27 C           6.3557    1.0491    0.5854 C.ar    1  UNL1       -0.0470
     28 C           5.1475    1.3972   -0.0243 C.ar    1  UNL1       -0.0485
     29 H           2.0020   -1.0370   -1.0337 H       1  UNL1        0.1731
     30 H           0.6177    0.4158   -2.9194 H       1  UNL1        0.1716
     31 H          -0.6828    4.4809    0.1112 H       1  UNL1        0.0639
     32 H          -2.5153    5.3409    1.5985 H       1  UNL1        0.0618
     33 H          -4.1832    3.7945    2.3745 H       1  UNL1        0.0618
     34 H          -4.1376    1.3730    1.7420 H       1  UNL1        0.0639
     35 H          -0.3031   -2.0209   -0.6210 H       1  UNL1        0.0378
     36 H          -1.2636   -1.6302   -2.1107 H       1  UNL1        0.0378
     37 H          -3.6295   -1.8920   -2.0547 H       1  UNL1        0.0620
     38 H          -5.5746   -3.0716   -1.0930 H       1  UNL1        0.0618
     39 H          -5.3700   -4.1112    1.1428 H       1  UNL1        0.0618
     40 H          -3.2443   -3.9771    2.4116 H       1  UNL1        0.0618
     41 H          -1.3373   -2.7709    1.3691 H       1  UNL1        0.0620
     42 H           3.7249   -1.6482   -0.1390 H       1  UNL1        0.0625
     43 H           5.8556   -2.2511    0.9343 H       1  UNL1        0.0629
     44 H           7.0613    1.8431    0.7673 H       1  UNL1        0.0629
     45 H           4.9883    2.4390   -0.2785 H       1  UNL1        0.0625
@<TRIPOS>BOND
     1     1     2    2
     2     2     3   am
     3     3     4    1
     4     4     5    1
     5     5     6   ar
     6     6     7   ar
     7     7     8   ar
     8     8     9   ar
     9     9    10   ar
    10    10    11   ar
    11    11    12   ar
    12    12    13   ar
    13    13    14   ar
    14    14    15    1
    15    15    16    1
    16    16    17   ar
    17    17    18   ar
    18    18    19   ar
    19    19    20   ar
    20    20    21   ar
    21     2    22    1
    22    22    23   ar
    23    23    24   ar
    24    24    25   ar
    25    25    26    1
    26    25    27   ar
    27    27    28   ar
    28    14     5   ar
    29    21    16   ar
    30    28    22   ar
    31    12     7   ar
    32     3    29    1
    33     4    30    1
    34     8    31    1
    35     9    32    1
    36    10    33    1
    37    11    34    1
    38    15    35    1
    39    15    36    1
    40    17    37    1
    41    18    38    1
    42    19    39    1
    43    20    40    1
    44    21    41    1
    45    23    42    1
    46    24    43    1
    47    27    44    1
    48    28    45    1
