
     RDKit          3D

 45 48  0  0  0  0  0  0  0  0999 V2000
    2.7540    2.0734   -1.2275 O   0  0  0  0  0  0  0  0  0  0  0  0
    2.9477    0.8550   -0.9293 C   0  0  0  0  0  0  0  0  0  0  0  0
    1.8951   -0.0278   -1.2563 N   0  0  0  0  0  0  0  0  0  0  0  0
    0.7068    0.3925   -1.8695 N   0  0  0  0  0  0  0  0  0  0  0  0
   -0.3653    0.7831   -1.0269 C   0  0  0  0  0  0  0  0  0  0  0  0
   -0.4371    2.0703   -0.6577 N   0  0  0  0  0  0  0  0  0  0  0  0
   -1.4192    2.4961    0.1307 C   0  0  0  0  0  0  0  0  0  0  0  0
   -1.4561    3.8294    0.4872 C   0  0  0  0  0  0  0  0  0  0  0  0
   -2.4578    4.3174    1.3047 C   0  0  0  0  0  0  0  0  0  0  0  0
   -3.3972    3.4049    1.7314 C   0  0  0  0  0  0  0  0  0  0  0  0
   -3.3941    2.0780    1.4000 C   0  0  0  0  0  0  0  0  0  0  0  0
   -2.3797    1.6122    0.5792 C   0  0  0  0  0  0  0  0  0  0  0  0
   -2.3008    0.3231    0.2046 N   0  0  0  0  0  0  0  0  0  0  0  0
   -1.3114   -0.1124   -0.5912 C   0  0  0  0  0  0  0  0  0  0  0  0
   -1.2401   -1.5562   -0.9992 C   0  0  0  0  0  0  0  0  0  0  0  0
   -2.3808   -2.2726   -0.3868 C   0  0  0  0  0  0  0  0  0  0  0  0
   -3.5615   -2.3529   -1.0799 C   0  0  0  0  0  0  0  0  0  0  0  0
   -4.6492   -3.0105   -0.5462 C   0  0  0  0  0  0  0  0  0  0  0  0
   -4.5198   -3.5860    0.7032 C   0  0  0  0  0  0  0  0  0  0  0  0
   -3.3482   -3.5234    1.4252 C   0  0  0  0  0  0  0  0  0  0  0  0
   -2.2836   -2.8547    0.8526 C   0  0  0  0  0  0  0  0  0  0  0  0
    4.1888    0.4495   -0.2944 C   0  0  0  0  0  0  0  0  0  0  0  0
    4.4380   -0.8581    0.0471 C   0  0  0  0  0  0  0  0  0  0  0  0
    5.6390   -1.2335    0.6582 C   0  0  0  0  0  0  0  0  0  0  0  0
    6.5889   -0.2641    0.9205 C   0  0  0  0  0  0  0  0  0  0  0  0
    8.2318   -0.7559    1.7528 Br  0  0  0  0  0  0  0  0  0  0  0  0
    6.3557    1.0491    0.5854 C   0  0  0  0  0  0  0  0  0  0  0  0
    5.1475    1.3972   -0.0243 C   0  0  0  0  0  0  0  0  0  0  0  0
    2.0020   -1.0370   -1.0337 H   0  0  0  0  0  0  0  0  0  0  0  0
    0.6177    0.4158   -2.9194 H   0  0  0  0  0  0  0  0  0  0  0  0
   -0.6828    4.4809    0.1112 H   0  0  0  0  0  0  0  0  0  0  0  0
   -2.5153    5.3409    1.5985 H   0  0  0  0  0  0  0  0  0  0  0  0
   -4.1832    3.7945    2.3745 H   0  0  0  0  0  0  0  0  0  0  0  0
   -4.1376    1.3730    1.7420 H   0  0  0  0  0  0  0  0  0  0  0  0
   -0.3031   -2.0209   -0.6210 H   0  0  0  0  0  0  0  0  0  0  0  0
   -1.2636   -1.6302   -2.1107 H   0  0  0  0  0  0  0  0  0  0  0  0
   -3.6295   -1.8920   -2.0547 H   0  0  0  0  0  0  0  0  0  0  0  0
   -5.5746   -3.0716   -1.0930 H   0  0  0  0  0  0  0  0  0  0  0  0
   -5.3700   -4.1112    1.1428 H   0  0  0  0  0  0  0  0  0  0  0  0
   -3.2443   -3.9771    2.4116 H   0  0  0  0  0  0  0  0  0  0  0  0
   -1.3373   -2.7709    1.3691 H   0  0  0  0  0  0  0  0  0  0  0  0
    3.7249   -1.6482   -0.1390 H   0  0  0  0  0  0  0  0  0  0  0  0
    5.8556   -2.2511    0.9343 H   0  0  0  0  0  0  0  0  0  0  0  0
    7.0613    1.8431    0.7673 H   0  0  0  0  0  0  0  0  0  0  0  0
    4.9883    2.4390   -0.2785 H   0  0  0  0  0  0  0  0  0  0  0  0
  1  2  2  0
  2  3  1  0
  3  4  1  0
  4  5  1  0
  5  6  2  0
  6  7  1  0
  7  8  2  0
  8  9  1  0
  9 10  2  0
 10 11  1  0
 11 12  2  0
 12 13  1  0
 13 14  2  0
 14 15  1  0
 15 16  1  0
 16 17  2  0
 17 18  1  0
 18 19  2  0
 19 20  1  0
 20 21  2  0
  2 22  1  0
 22 23  2  0
 23 24  1  0
 24 25  2  0
 25 26  1  0
 25 27  1  0
 27 28  2  0
 14  5  1  0
 21 16  1  0
 28 22  1  0
 12  7  1  0
  3 29  1  0
  4 30  1  0
  8 31  1  0
  9 32  1  0
 10 33  1  0
 11 34  1  0
 15 35  1  0
 15 36  1  0
 17 37  1  0
 18 38  1  0
 19 39  1  0
 20 40  1  0
 21 41  1  0
 23 42  1  0
 24 43  1  0
 27 44  1  0
 28 45  1  0
M  END
$$$$
