@<TRIPOS>MOLECULE
*****
 70 74 0 0 0
SMALL
GASTEIGER

@<TRIPOS>ATOM
      1 C          -2.2201    2.2127    1.5688 C.3     1  UNL1       -0.0390
      2 C          -3.5992    1.7137    1.3182 C.ar    1  UNL1       -0.0382
      3 C          -4.6162    2.1203    2.1247 C.ar    1  UNL1       -0.0564
      4 C          -5.8986    1.6448    1.8640 C.ar    1  UNL1       -0.0402
      5 C          -6.1478    0.7829    0.8194 C.ar    1  UNL1        0.0344
      6 N          -7.4691    0.2602    0.5895 N.am    1  UNL1       -0.2815
      7 C          -8.4867    0.1598    1.5392 C.2     1  UNL1        0.2483
      8 O          -8.2130    0.5431    2.7318 O.2     1  UNL1       -0.2699
      9 C          -9.8376   -0.3303    1.3366 C.ar    1  UNL1        0.0370
     10 C         -10.7131   -0.4031    2.4163 C.ar    1  UNL1       -0.0496
     11 C         -12.0235   -0.8340    2.2940 C.ar    1  UNL1       -0.0610
     12 C         -12.5186   -1.2133    1.0864 C.ar    1  UNL1       -0.0617
     13 C         -11.6719   -1.1526   -0.0071 C.ar    1  UNL1       -0.0610
     14 C         -10.3622   -0.7204    0.1279 C.ar    1  UNL1       -0.0496
     15 C          -5.0739    0.3972    0.0242 C.ar    1  UNL1       -0.0281
     16 C          -3.8027    0.8306    0.2344 C.ar    1  UNL1        0.0417
     17 C          -2.6151    0.4598   -0.5214 C.2     1  UNL1        0.2486
     18 O          -2.1101    1.3614   -1.2656 O.2     1  UNL1       -0.2698
     19 N          -1.9881   -0.8091   -0.4748 N.am    1  UNL1       -0.2790
     20 C          -0.8143   -1.0172   -1.2062 C.ar    1  UNL1        0.0704
     21 C          -0.7757   -1.4755   -2.4817 C.ar    1  UNL1        0.0539
     22 N           0.4169   -1.6465   -3.1377 N.ar    1  UNL1       -0.2208
     23 C           1.5729   -1.3690   -2.5467 C.ar    1  UNL1        0.2195
     24 N           2.8552   -1.5098   -3.2013 N.pl3   1  UNL1       -0.2836
     25 C           3.9857   -1.1323   -2.3863 C.ar    1  UNL1        0.0337
     26 C           4.6921    0.0056   -2.6488 C.ar    1  UNL1       -0.0387
     27 C           5.7587    0.4329   -1.8953 C.ar    1  UNL1       -0.0389
     28 C           6.1465   -0.3357   -0.8034 C.ar    1  UNL1        0.0299
     29 N           7.2335    0.0731   -0.0115 N.pl3   1  UNL1       -0.3275
     30 C           8.0267    1.2251   -0.4701 C.3     1  UNL1        0.0250
     31 C           9.3803    1.2394    0.2248 C.3     1  UNL1        0.0144
     32 N           9.9359   -0.0562    0.4416 N.3     1  UNL1       -0.3024
     33 C          10.5416   -0.6202   -0.7300 C.3     1  UNL1       -0.0126
     34 C           9.0970   -0.9951    1.1074 C.3     1  UNL1        0.0144
     35 C           7.6617   -0.5008    1.2329 C.3     1  UNL1        0.0250
     36 C           5.4605   -1.4880   -0.5080 C.ar    1  UNL1       -0.0389
     37 C           4.3766   -1.8826   -1.3075 C.ar    1  UNL1       -0.0387
     38 N           1.5496   -0.9116   -1.2727 N.ar    1  UNL1       -0.2208
     39 C           0.4101   -0.7306   -0.5940 C.ar    1  UNL1        0.0539
     40 H          -2.1597    2.6276    2.5949 H       1  UNL1        0.0278
     41 H          -1.5103    1.3535    1.5362 H       1  UNL1        0.0278
     42 H          -1.8999    2.9508    0.8235 H       1  UNL1        0.0278
     43 H          -4.4877    2.7850    2.9537 H       1  UNL1        0.0621
     44 H          -6.7145    1.9866    2.5115 H       1  UNL1        0.0636
     45 H          -7.6776   -0.0705   -0.3817 H       1  UNL1        0.1551
     46 H         -10.3233   -0.1059    3.3854 H       1  UNL1        0.0625
     47 H         -12.6568   -0.8627    3.1926 H       1  UNL1        0.0618
     48 H         -13.5481   -1.5505    1.0349 H       1  UNL1        0.0618
     49 H         -12.1099   -1.4685   -0.9421 H       1  UNL1        0.0618
     50 H          -9.7214   -0.6893   -0.7508 H       1  UNL1        0.0625
     51 H          -5.2553   -0.2728   -0.8032 H       1  UNL1        0.0644
     52 H          -2.4468   -1.5608    0.1281 H       1  UNL1        0.1552
     53 H          -1.7060   -1.7215   -3.0105 H       1  UNL1        0.0850
     54 H           2.9904   -1.8405   -4.1616 H       1  UNL1        0.1550
     55 H           4.4141    0.6203   -3.4944 H       1  UNL1        0.0637
     56 H           6.2840    1.3462   -2.1297 H       1  UNL1        0.0637
     57 H           8.1324    1.2531   -1.5562 H       1  UNL1        0.0476
     58 H           7.4656    2.1167   -0.1182 H       1  UNL1        0.0476
     59 H           9.2934    1.8489    1.1323 H       1  UNL1        0.0442
     60 H          10.0569    1.7675   -0.5169 H       1  UNL1        0.0442
     61 H          10.0816   -1.6053   -0.9495 H       1  UNL1        0.0391
     62 H          11.6294   -0.7710   -0.6622 H       1  UNL1        0.0391
     63 H          10.3402    0.0225   -1.6340 H       1  UNL1        0.0391
     64 H           9.4900   -1.0701    2.1614 H       1  UNL1        0.0442
     65 H           9.1357   -2.0073    0.6748 H       1  UNL1        0.0442
     66 H           7.0564   -1.3290    1.5962 H       1  UNL1        0.0476
     67 H           7.6788    0.2650    2.0516 H       1  UNL1        0.0476
     68 H           5.7645   -2.0784    0.3344 H       1  UNL1        0.0637
     69 H           3.8832   -2.8065   -1.0300 H       1  UNL1        0.0637
     70 H           0.3766   -0.3709    0.4177 H       1  UNL1        0.0850
@<TRIPOS>BOND
     1     1     2    1
     2     2     3   ar
     3     3     4   ar
     4     4     5   ar
     5     5     6    1
     6     6     7   am
     7     7     8    2
     8     7     9    1
     9     9    10   ar
    10    10    11   ar
    11    11    12   ar
    12    12    13   ar
    13    13    14   ar
    14     5    15   ar
    15    15    16   ar
    16    16    17    1
    17    17    18    2
    18    17    19   am
    19    19    20    1
    20    20    21   ar
    21    21    22   ar
    22    22    23   ar
    23    23    24    1
    24    24    25    1
    25    25    26   ar
    26    26    27   ar
    27    27    28   ar
    28    28    29    1
    29    29    30    1
    30    30    31    1
    31    31    32    1
    32    32    33    1
    33    32    34    1
    34    34    35    1
    35    28    36   ar
    36    36    37   ar
    37    23    38   ar
    38    38    39   ar
    39    16     2   ar
    40    39    20   ar
    41    14     9   ar
    42    37    25   ar
    43    35    29    1
    44     1    40    1
    45     1    41    1
    46     1    42    1
    47     3    43    1
    48     4    44    1
    49     6    45    1
    50    10    46    1
    51    11    47    1
    52    12    48    1
    53    13    49    1
    54    14    50    1
    55    15    51    1
    56    19    52    1
    57    21    53    1
    58    24    54    1
    59    26    55    1
    60    27    56    1
    61    30    57    1
    62    30    58    1
    63    31    59    1
    64    31    60    1
    65    33    61    1
    66    33    62    1
    67    33    63    1
    68    34    64    1
    69    34    65    1
    70    35    66    1
    71    35    67    1
    72    36    68    1
    73    37    69    1
    74    39    70    1
