
     RDKit          3D

 70 74  0  0  0  0  0  0  0  0999 V2000
   -2.2201    2.2127    1.5688 C   0  0  0  0  0  0  0  0  0  0  0  0
   -3.5992    1.7137    1.3182 C   0  0  0  0  0  0  0  0  0  0  0  0
   -4.6162    2.1203    2.1247 C   0  0  0  0  0  0  0  0  0  0  0  0
   -5.8986    1.6448    1.8640 C   0  0  0  0  0  0  0  0  0  0  0  0
   -6.1478    0.7829    0.8194 C   0  0  0  0  0  0  0  0  0  0  0  0
   -7.4691    0.2602    0.5895 N   0  0  0  0  0  0  0  0  0  0  0  0
   -8.4867    0.1598    1.5392 C   0  0  0  0  0  0  0  0  0  0  0  0
   -8.2130    0.5431    2.7318 O   0  0  0  0  0  0  0  0  0  0  0  0
   -9.8376   -0.3303    1.3366 C   0  0  0  0  0  0  0  0  0  0  0  0
  -10.7131   -0.4031    2.4163 C   0  0  0  0  0  0  0  0  0  0  0  0
  -12.0235   -0.8340    2.2940 C   0  0  0  0  0  0  0  0  0  0  0  0
  -12.5186   -1.2133    1.0864 C   0  0  0  0  0  0  0  0  0  0  0  0
  -11.6719   -1.1526   -0.0071 C   0  0  0  0  0  0  0  0  0  0  0  0
  -10.3622   -0.7204    0.1279 C   0  0  0  0  0  0  0  0  0  0  0  0
   -5.0739    0.3972    0.0242 C   0  0  0  0  0  0  0  0  0  0  0  0
   -3.8027    0.8306    0.2344 C   0  0  0  0  0  0  0  0  0  0  0  0
   -2.6151    0.4598   -0.5214 C   0  0  0  0  0  0  0  0  0  0  0  0
   -2.1101    1.3614   -1.2656 O   0  0  0  0  0  0  0  0  0  0  0  0
   -1.9881   -0.8091   -0.4748 N   0  0  0  0  0  0  0  0  0  0  0  0
   -0.8143   -1.0172   -1.2062 C   0  0  0  0  0  0  0  0  0  0  0  0
   -0.7757   -1.4755   -2.4817 C   0  0  0  0  0  0  0  0  0  0  0  0
    0.4169   -1.6465   -3.1377 N   0  0  0  0  0  0  0  0  0  0  0  0
    1.5729   -1.3690   -2.5467 C   0  0  0  0  0  0  0  0  0  0  0  0
    2.8552   -1.5098   -3.2013 N   0  0  0  0  0  0  0  0  0  0  0  0
    3.9857   -1.1323   -2.3863 C   0  0  0  0  0  0  0  0  0  0  0  0
    4.6921    0.0056   -2.6488 C   0  0  0  0  0  0  0  0  0  0  0  0
    5.7587    0.4329   -1.8953 C   0  0  0  0  0  0  0  0  0  0  0  0
    6.1465   -0.3357   -0.8034 C   0  0  0  0  0  0  0  0  0  0  0  0
    7.2335    0.0731   -0.0115 N   0  0  0  0  0  0  0  0  0  0  0  0
    8.0267    1.2251   -0.4701 C   0  0  0  0  0  0  0  0  0  0  0  0
    9.3803    1.2394    0.2248 C   0  0  0  0  0  0  0  0  0  0  0  0
    9.9359   -0.0562    0.4416 N   0  0  0  0  0  0  0  0  0  0  0  0
   10.5416   -0.6202   -0.7300 C   0  0  0  0  0  0  0  0  0  0  0  0
    9.0970   -0.9951    1.1074 C   0  0  0  0  0  0  0  0  0  0  0  0
    7.6617   -0.5008    1.2329 C   0  0  0  0  0  0  0  0  0  0  0  0
    5.4605   -1.4880   -0.5080 C   0  0  0  0  0  0  0  0  0  0  0  0
    4.3766   -1.8826   -1.3075 C   0  0  0  0  0  0  0  0  0  0  0  0
    1.5496   -0.9116   -1.2727 N   0  0  0  0  0  0  0  0  0  0  0  0
    0.4101   -0.7306   -0.5940 C   0  0  0  0  0  0  0  0  0  0  0  0
   -2.1597    2.6276    2.5949 H   0  0  0  0  0  0  0  0  0  0  0  0
   -1.5103    1.3535    1.5362 H   0  0  0  0  0  0  0  0  0  0  0  0
   -1.8999    2.9508    0.8235 H   0  0  0  0  0  0  0  0  0  0  0  0
   -4.4877    2.7850    2.9537 H   0  0  0  0  0  0  0  0  0  0  0  0
   -6.7145    1.9866    2.5115 H   0  0  0  0  0  0  0  0  0  0  0  0
   -7.6776   -0.0705   -0.3817 H   0  0  0  0  0  0  0  0  0  0  0  0
  -10.3233   -0.1059    3.3854 H   0  0  0  0  0  0  0  0  0  0  0  0
  -12.6568   -0.8627    3.1926 H   0  0  0  0  0  0  0  0  0  0  0  0
  -13.5481   -1.5505    1.0349 H   0  0  0  0  0  0  0  0  0  0  0  0
  -12.1099   -1.4685   -0.9421 H   0  0  0  0  0  0  0  0  0  0  0  0
   -9.7214   -0.6893   -0.7508 H   0  0  0  0  0  0  0  0  0  0  0  0
   -5.2553   -0.2728   -0.8032 H   0  0  0  0  0  0  0  0  0  0  0  0
   -2.4468   -1.5608    0.1281 H   0  0  0  0  0  0  0  0  0  0  0  0
   -1.7060   -1.7215   -3.0105 H   0  0  0  0  0  0  0  0  0  0  0  0
    2.9904   -1.8405   -4.1616 H   0  0  0  0  0  0  0  0  0  0  0  0
    4.4141    0.6203   -3.4944 H   0  0  0  0  0  0  0  0  0  0  0  0
    6.2840    1.3462   -2.1297 H   0  0  0  0  0  0  0  0  0  0  0  0
    8.1324    1.2531   -1.5562 H   0  0  0  0  0  0  0  0  0  0  0  0
    7.4656    2.1167   -0.1182 H   0  0  0  0  0  0  0  0  0  0  0  0
    9.2934    1.8489    1.1323 H   0  0  0  0  0  0  0  0  0  0  0  0
   10.0569    1.7675   -0.5169 H   0  0  0  0  0  0  0  0  0  0  0  0
   10.0816   -1.6053   -0.9495 H   0  0  0  0  0  0  0  0  0  0  0  0
   11.6294   -0.7710   -0.6622 H   0  0  0  0  0  0  0  0  0  0  0  0
   10.3402    0.0225   -1.6340 H   0  0  0  0  0  0  0  0  0  0  0  0
    9.4900   -1.0701    2.1614 H   0  0  0  0  0  0  0  0  0  0  0  0
    9.1357   -2.0073    0.6748 H   0  0  0  0  0  0  0  0  0  0  0  0
    7.0564   -1.3290    1.5962 H   0  0  0  0  0  0  0  0  0  0  0  0
    7.6788    0.2650    2.0516 H   0  0  0  0  0  0  0  0  0  0  0  0
    5.7645   -2.0784    0.3344 H   0  0  0  0  0  0  0  0  0  0  0  0
    3.8832   -2.8065   -1.0300 H   0  0  0  0  0  0  0  0  0  0  0  0
    0.3766   -0.3709    0.4177 H   0  0  0  0  0  0  0  0  0  0  0  0
  1  2  1  0
  2  3  2  0
  3  4  1  0
  4  5  2  0
  5  6  1  0
  6  7  1  0
  7  8  2  0
  7  9  1  0
  9 10  2  0
 10 11  1  0
 11 12  2  0
 12 13  1  0
 13 14  2  0
  5 15  1  0
 15 16  2  0
 16 17  1  0
 17 18  2  0
 17 19  1  0
 19 20  1  0
 20 21  2  0
 21 22  1  0
 22 23  2  0
 23 24  1  0
 24 25  1  0
 25 26  2  0
 26 27  1  0
 27 28  2  0
 28 29  1  0
 29 30  1  0
 30 31  1  0
 31 32  1  0
 32 33  1  0
 32 34  1  0
 34 35  1  0
 28 36  1  0
 36 37  2  0
 23 38  1  0
 38 39  2  0
 16  2  1  0
 39 20  1  0
 14  9  1  0
 37 25  1  0
 35 29  1  0
  1 40  1  0
  1 41  1  0
  1 42  1  0
  3 43  1  0
  4 44  1  0
  6 45  1  0
 10 46  1  0
 11 47  1  0
 12 48  1  0
 13 49  1  0
 14 50  1  0
 15 51  1  0
 19 52  1  0
 21 53  1  0
 24 54  1  0
 26 55  1  0
 27 56  1  0
 30 57  1  0
 30 58  1  0
 31 59  1  0
 31 60  1  0
 33 61  1  0
 33 62  1  0
 33 63  1  0
 34 64  1  0
 34 65  1  0
 35 66  1  0
 35 67  1  0
 36 68  1  0
 37 69  1  0
 39 70  1  0
M  END
$$$$
