@<TRIPOS>MOLECULE
*****
 48 50 0 0 0
SMALL
GASTEIGER

@<TRIPOS>ATOM
      1 C           4.3029    2.8922    1.2911 C.3     1  UNL1        0.0789
      2 O           3.8275    1.6766    0.7987 O.3     1  UNL1       -0.4928
      3 C           4.4804    0.9193   -0.1265 C.ar    1  UNL1        0.1519
      4 C           5.7056    1.3809   -0.6203 C.ar    1  UNL1        0.0021
      5 C           6.3826    0.6320   -1.5557 C.ar    1  UNL1        0.0625
      6 CL          7.9336    1.1741   -2.2087 Cl      1  UNL1       -0.0819
      7 C           5.8119   -0.5505   -1.9642 C.ar    1  UNL1        0.0470
      8 N           4.6484   -0.9520   -1.4710 N.ar    1  UNL1       -0.2453
      9 C           3.9478   -0.2639   -0.5603 C.ar    1  UNL1        0.1672
     10 C           2.6951   -0.8317   -0.1186 C.2     1  UNL1        0.2702
     11 O           2.3369   -1.9532   -0.6258 O.2     1  UNL1       -0.2680
     12 N           1.7868   -0.3051    0.8214 N.am    1  UNL1       -0.2800
     13 C           0.5639   -0.9934    1.1640 C.ar    1  UNL1        0.0369
     14 C           0.4855   -1.9098    2.1898 C.ar    1  UNL1       -0.0023
     15 C          -0.7087   -2.5531    2.4911 C.ar    1  UNL1        0.1605
     16 F          -0.7885   -3.4578    3.5028 F       1  UNL1       -0.2024
     17 C          -1.8396   -2.2494    1.7257 C.ar    1  UNL1        0.1640
     18 F          -2.9985   -2.8768    2.0228 F       1  UNL1       -0.2021
     19 C          -1.7841   -1.3369    0.6960 C.ar    1  UNL1        0.0197
     20 C          -3.0332   -1.0848   -0.0527 C.3     1  UNL1        0.0952
     21 C          -3.5644   -2.4395   -0.5575 C.3     1  UNL1       -0.0352
     22 C          -2.8676   -0.2290   -1.2517 C.3     1  UNL1        0.0223
     23 C          -3.0860    1.2482   -0.8886 C.3     1  UNL1        0.1997
     24 C          -3.1699    1.9972   -2.2135 C.3     1  UNL1        0.4266
     25 F          -4.2202    1.5168   -2.9683 F       1  UNL1       -0.1669
     26 F          -3.3930    3.3449   -2.0094 F       1  UNL1       -0.1669
     27 F          -1.9620    1.7907   -2.8619 F       1  UNL1       -0.1669
     28 O          -4.3573    1.3498   -0.2779 O.2     1  UNL1       -0.4534
     29 C          -4.6202    0.5191    0.8003 C.2     1  UNL1        0.2765
     30 N          -5.5699    0.8970    1.8080 N.pl3   1  UNL1       -0.3134
     31 N          -4.0010   -0.5920    0.8820 N.2     1  UNL1       -0.2257
     32 C          -0.5733   -0.7317    0.4447 C.ar    1  UNL1       -0.0321
     33 H           3.7595    3.1225    2.2343 H       1  UNL1        0.0660
     34 H           5.3776    2.8849    1.5421 H       1  UNL1        0.0660
     35 H           4.0518    3.6875    0.5490 H       1  UNL1        0.0660
     36 H           6.1248    2.3012   -0.2862 H       1  UNL1        0.0670
     37 H           6.3327   -1.1682   -2.7112 H       1  UNL1        0.0845
     38 H           1.9954    0.5936    1.2790 H       1  UNL1        0.1552
     39 H           1.3697   -2.1319    2.7704 H       1  UNL1        0.0666
     40 H          -2.7339   -3.1146   -0.7857 H       1  UNL1        0.0256
     41 H          -4.1208   -2.2633   -1.5010 H       1  UNL1        0.0256
     42 H          -4.3103   -2.8602    0.1469 H       1  UNL1        0.0256
     43 H          -1.9209   -0.3100   -1.7797 H       1  UNL1        0.0330
     44 H          -3.6641   -0.4366   -2.0275 H       1  UNL1        0.0330
     45 H          -2.2901    1.6384   -0.2467 H       1  UNL1        0.0826
     46 H          -5.2974    1.4827    2.6089 H       1  UNL1        0.1466
     47 H          -6.5386    0.5642    1.7080 H       1  UNL1        0.1466
     48 H          -0.5066   -0.0184   -0.3505 H       1  UNL1        0.0640
@<TRIPOS>BOND
     1     1     2    1
     2     2     3    1
     3     3     4   ar
     4     4     5   ar
     5     5     6    1
     6     5     7   ar
     7     7     8   ar
     8     8     9   ar
     9     9    10    1
    10    10    11    2
    11    10    12   am
    12    12    13    1
    13    13    14   ar
    14    14    15   ar
    15    15    16    1
    16    15    17   ar
    17    17    18    1
    18    17    19   ar
    19    19    20    1
    20    20    21    1
    21    20    22    1
    22    22    23    1
    23    23    24    1
    24    24    25    1
    25    24    26    1
    26    24    27    1
    27    23    28    1
    28    28    29    1
    29    29    30    1
    30    29    31    2
    31    19    32   ar
    32     9     3   ar
    33    32    13   ar
    34    31    20    1
    35     1    33    1
    36     1    34    1
    37     1    35    1
    38     4    36    1
    39     7    37    1
    40    12    38    1
    41    14    39    1
    42    21    40    1
    43    21    41    1
    44    21    42    1
    45    22    43    1
    46    22    44    1
    47    23    45    1
    48    30    46    1
    49    30    47    1
    50    32    48    1
