
     RDKit          3D

 48 50  0  0  0  0  0  0  0  0999 V2000
    4.3029    2.8922    1.2911 C   0  0  0  0  0  0  0  0  0  0  0  0
    3.8275    1.6766    0.7987 O   0  0  0  0  0  0  0  0  0  0  0  0
    4.4804    0.9193   -0.1265 C   0  0  0  0  0  0  0  0  0  0  0  0
    5.7056    1.3809   -0.6203 C   0  0  0  0  0  0  0  0  0  0  0  0
    6.3826    0.6320   -1.5557 C   0  0  0  0  0  0  0  0  0  0  0  0
    7.9336    1.1741   -2.2087 Cl  0  0  0  0  0  0  0  0  0  0  0  0
    5.8119   -0.5505   -1.9642 C   0  0  0  0  0  0  0  0  0  0  0  0
    4.6484   -0.9520   -1.4710 N   0  0  0  0  0  0  0  0  0  0  0  0
    3.9478   -0.2639   -0.5603 C   0  0  0  0  0  0  0  0  0  0  0  0
    2.6951   -0.8317   -0.1186 C   0  0  0  0  0  0  0  0  0  0  0  0
    2.3369   -1.9532   -0.6258 O   0  0  0  0  0  0  0  0  0  0  0  0
    1.7868   -0.3051    0.8214 N   0  0  0  0  0  0  0  0  0  0  0  0
    0.5639   -0.9934    1.1640 C   0  0  0  0  0  0  0  0  0  0  0  0
    0.4855   -1.9098    2.1898 C   0  0  0  0  0  0  0  0  0  0  0  0
   -0.7087   -2.5531    2.4911 C   0  0  0  0  0  0  0  0  0  0  0  0
   -0.7885   -3.4578    3.5028 F   0  0  0  0  0  0  0  0  0  0  0  0
   -1.8396   -2.2494    1.7257 C   0  0  0  0  0  0  0  0  0  0  0  0
   -2.9985   -2.8768    2.0228 F   0  0  0  0  0  0  0  0  0  0  0  0
   -1.7841   -1.3369    0.6960 C   0  0  0  0  0  0  0  0  0  0  0  0
   -3.0332   -1.0848   -0.0527 C   0  0  2  0  0  0  0  0  0  0  0  0
   -3.5644   -2.4395   -0.5575 C   0  0  0  0  0  0  0  0  0  0  0  0
   -2.8676   -0.2290   -1.2517 C   0  0  0  0  0  0  0  0  0  0  0  0
   -3.0860    1.2482   -0.8886 C   0  0  1  0  0  0  0  0  0  0  0  0
   -3.1699    1.9972   -2.2135 C   0  0  0  0  0  0  0  0  0  0  0  0
   -4.2202    1.5168   -2.9683 F   0  0  0  0  0  0  0  0  0  0  0  0
   -3.3930    3.3449   -2.0094 F   0  0  0  0  0  0  0  0  0  0  0  0
   -1.9620    1.7907   -2.8619 F   0  0  0  0  0  0  0  0  0  0  0  0
   -4.3573    1.3498   -0.2779 O   0  0  0  0  0  0  0  0  0  0  0  0
   -4.6202    0.5191    0.8003 C   0  0  0  0  0  0  0  0  0  0  0  0
   -5.5699    0.8970    1.8080 N   0  0  0  0  0  0  0  0  0  0  0  0
   -4.0010   -0.5920    0.8820 N   0  0  0  0  0  0  0  0  0  0  0  0
   -0.5733   -0.7317    0.4447 C   0  0  0  0  0  0  0  0  0  0  0  0
    3.7595    3.1225    2.2343 H   0  0  0  0  0  0  0  0  0  0  0  0
    5.3776    2.8849    1.5421 H   0  0  0  0  0  0  0  0  0  0  0  0
    4.0518    3.6875    0.5490 H   0  0  0  0  0  0  0  0  0  0  0  0
    6.1248    2.3012   -0.2862 H   0  0  0  0  0  0  0  0  0  0  0  0
    6.3327   -1.1682   -2.7112 H   0  0  0  0  0  0  0  0  0  0  0  0
    1.9954    0.5936    1.2790 H   0  0  0  0  0  0  0  0  0  0  0  0
    1.3697   -2.1319    2.7704 H   0  0  0  0  0  0  0  0  0  0  0  0
   -2.7339   -3.1146   -0.7857 H   0  0  0  0  0  0  0  0  0  0  0  0
   -4.1208   -2.2633   -1.5010 H   0  0  0  0  0  0  0  0  0  0  0  0
   -4.3103   -2.8602    0.1469 H   0  0  0  0  0  0  0  0  0  0  0  0
   -1.9209   -0.3100   -1.7797 H   0  0  0  0  0  0  0  0  0  0  0  0
   -3.6641   -0.4366   -2.0275 H   0  0  0  0  0  0  0  0  0  0  0  0
   -2.2901    1.6384   -0.2467 H   0  0  0  0  0  0  0  0  0  0  0  0
   -5.2974    1.4827    2.6089 H   0  0  0  0  0  0  0  0  0  0  0  0
   -6.5386    0.5642    1.7080 H   0  0  0  0  0  0  0  0  0  0  0  0
   -0.5066   -0.0184   -0.3505 H   0  0  0  0  0  0  0  0  0  0  0  0
  1  2  1  0
  2  3  1  0
  3  4  2  0
  4  5  1  0
  5  6  1  0
  5  7  2  0
  7  8  1  0
  8  9  2  0
  9 10  1  0
 10 11  2  0
 10 12  1  0
 12 13  1  0
 13 14  2  0
 14 15  1  0
 15 16  1  0
 15 17  2  0
 17 18  1  0
 17 19  1  0
 19 20  1  0
 20 21  1  6
 20 22  1  0
 22 23  1  0
 23 24  1  0
 24 25  1  0
 24 26  1  0
 24 27  1  0
 23 28  1  0
 28 29  1  0
 29 30  1  0
 29 31  2  0
 19 32  2  0
  9  3  1  0
 32 13  1  0
 31 20  1  0
  1 33  1  0
  1 34  1  0
  1 35  1  0
  4 36  1  0
  7 37  1  0
 12 38  1  0
 14 39  1  0
 21 40  1  0
 21 41  1  0
 21 42  1  0
 22 43  1  0
 22 44  1  0
 23 45  1  1
 30 46  1  0
 30 47  1  0
 32 48  1  0
M  END
$$$$
