@<TRIPOS>MOLECULE
*****
 69 68 0 0 0
SMALL
GASTEIGER

@<TRIPOS>ATOM
      1 C          -2.9725   -0.2489   -2.9343 C.3     0  UNK0        0.0122
      2 C          -3.2706   -0.0358   -1.4836 C.2     0  UNK0        0.2105
      3 O          -3.7582   -1.0287   -0.8846 O.2     0  UNK0       -0.2761
      4 N          -2.9990    1.2186   -0.8900 N.am    1  LEU1       -0.3042
      5 CA         -3.2765    1.4416    0.4907 C.3     1  LEU1        0.0996
      6 CB         -4.7155    1.1732    0.8113 C.3     1  LEU1       -0.0236
      7 CG         -5.7191    2.0023    0.1027 C.3     1  LEU1       -0.0446
      8 CD1        -5.7440    1.9117   -1.3811 C.3     1  LEU1       -0.0626
      9 CD2        -5.6276    3.4754    0.4751 C.3     1  LEU1       -0.0626
     10 C          -2.4416    0.5775    1.3888 C.2     1  LEU1        0.2340
     11 O          -2.5959    0.5972    2.6394 O.2     1  LEU1       -0.2738
     12 N          -1.4484   -0.2931    0.8899 N.am    2  LEU2       -0.3025
     13 CA         -0.6362   -1.1411    1.8205 C.3     2  LEU2        0.0996
     14 CB         -1.0263   -2.5170    1.4642 C.3     2  LEU2       -0.0236
     15 CG         -0.4650   -3.6887    2.1449 C.3     2  LEU2       -0.0446
     16 CD1         1.0154   -3.9258    2.0430 C.3     2  LEU2       -0.0626
     17 CD2        -1.1370   -4.9197    1.4896 C.3     2  LEU2       -0.0626
     18 C           0.7703   -0.7440    1.6987 C.2     2  LEU2        0.2340
     19 O           1.6557   -1.1853    2.4596 O.2     2  LEU2       -0.2738
     20 N           1.1755    0.1663    0.6994 N.am    3  ARG3       -0.3008
     21 CA          2.6497    0.5378    0.6237 C.3     3  ARG3        0.1203
     22 CB          3.0230    0.0331   -0.7005 C.3     3  ARG3       -0.0213
     23 CG          4.3682    0.0972   -1.2739 C.3     3  ARG3       -0.0200
     24 CD          4.9721    1.4167   -1.5332 C.3     3  ARG3        0.0647
     25 NE          6.2952    1.2803   -2.1806 N.pl3   3  ARG3       -0.2761
     26 CZ          7.3972    0.7400   -1.4669 C.cat   3  ARG3        0.3762
     27 NH1         7.1876    0.4795   -0.1997 N.pl3   3  ARG3       -0.1298
     28 NH2         8.6556    0.4920   -2.0637 N.pl3   3  ARG3       -0.2893
     29 C           2.6271    1.9602    0.9115 C.2     3  ARG3        0.3253
     30 O           3.6400    2.6290    1.1999 O.2     3  ARG3       -0.2489
     31 OXT         1.4357    2.7036    0.8847 O.3     3  ARG3       -0.4793
     32 H          -2.7309    0.6920   -3.4281 H       0  UNK0        0.0322
     33 H          -2.0688   -0.8970   -2.9952 H       0  UNK0        0.0322
     34 H          -3.7940   -0.7799   -3.4223 H       0  UNK0        0.0322
     35 H          -2.5759    1.9710   -1.5119 H       1  LEU1        0.1494
     36 HA         -3.0342    2.5339    0.7252 H       1  LEU1        0.0594
     37 HB1        -4.9903    0.1010    0.6327 H       1  LEU1        0.0290
     38 HB2        -4.8770    1.3553    1.9137 H       1  LEU1        0.0290
     39 HG         -6.7259    1.6704    0.4642 H       1  LEU1        0.0296
     40 HD11       -6.6264    2.5053   -1.7911 H       1  LEU1        0.0232
     41 HD12       -5.9641    0.8769   -1.7630 H       1  LEU1        0.0232
     42 HD13       -4.8697    2.3393   -1.8683 H       1  LEU1        0.0232
     43 HD21       -6.6151    3.9312    0.4210 H       1  LEU1        0.0232
     44 HD22       -5.2126    3.6033    1.4916 H       1  LEU1        0.0232
     45 HD23       -4.9200    3.9540   -0.2526 H       1  LEU1        0.0232
     46 H          -1.2447   -0.3755   -0.1192 H       2  LEU2        0.1495
     47 HA         -1.0089   -0.9376    2.8699 H       2  LEU2        0.0594
     48 HB1        -2.1626   -2.5852    1.6056 H       2  LEU2        0.0290
     49 HB2        -0.9393   -2.6896    0.3486 H       2  LEU2        0.0290
     50 HG         -0.7928   -3.7704    3.2206 H       2  LEU2        0.0296
     51 HD11        1.4932   -3.4773    1.1562 H       2  LEU2        0.0232
     52 HD12        1.2027   -5.0517    1.8738 H       2  LEU2        0.0232
     53 HD13        1.5599   -3.7628    3.0030 H       2  LEU2        0.0232
     54 HD21       -2.2069   -4.9318    1.7195 H       2  LEU2        0.0232
     55 HD22       -0.6050   -5.8422    1.7410 H       2  LEU2        0.0232
     56 HD23       -1.0283   -4.7523    0.3985 H       2  LEU2        0.0232
     57 H           0.5287    0.5769    0.0395 H       3  ARG3        0.1496
     58 HA          3.1875   -0.0428    1.4141 H       3  ARG3        0.0614
     59 HB1         2.3175    0.5569   -1.4598 H       3  ARG3        0.0289
     60 HB2         2.6389   -1.0654   -0.7134 H       3  ARG3        0.0289
     61 HG1         4.4310   -0.5534   -2.2176 H       3  ARG3        0.0296
     62 HG2         5.0676   -0.5017   -0.5736 H       3  ARG3        0.0296
     63 HD1         4.3379    1.9841   -2.2399 H       3  ARG3        0.0655
     64 HD2         5.0982    1.9841   -0.6137 H       3  ARG3        0.0655
     65 HE          6.4459    1.5746   -3.1660 H       3  ARG3        0.2579
     66 HH1         7.9799    0.0843    0.3398 H       3  ARG3        0.3062
     67 HH21        9.5171    0.8015   -1.5880 H       3  ARG3        0.2546
     68 HH22        8.7181    0.0046   -2.9704 H       3  ARG3        0.2546
     69 HXT         1.4345    3.7111    1.0558 H       3  ARG3        0.2951
@<TRIPOS>BOND
     1     1     2    1
     2     2     3    2
     3     2     4   am
     4     4     5    1
     5     5     6    1
     6     6     7    1
     7     7     8    1
     8     7     9    1
     9     5    10    1
    10    10    11    2
    11    10    12   am
    12    12    13    1
    13    13    14    1
    14    14    15    1
    15    15    16    1
    16    15    17    1
    17    13    18    1
    18    18    19    2
    19    18    20   am
    20    20    21    1
    21    21    22    1
    22    22    23    1
    23    23    24    1
    24    24    25    1
    25    25    26    1
    26    26    27    2
    27    26    28    1
    28    21    29    1
    29    29    30    2
    30    29    31    1
    31     1    32    1
    32     1    33    1
    33     1    34    1
    34     4    35    1
    35     5    36    1
    36     6    37    1
    37     6    38    1
    38     7    39    1
    39     8    40    1
    40     8    41    1
    41     8    42    1
    42     9    43    1
    43     9    44    1
    44     9    45    1
    45    12    46    1
    46    13    47    1
    47    14    48    1
    48    14    49    1
    49    15    50    1
    50    16    51    1
    51    16    52    1
    52    16    53    1
    53    17    54    1
    54    17    55    1
    55    17    56    1
    56    20    57    1
    57    21    58    1
    58    22    59    1
    59    22    60    1
    60    23    61    1
    61    23    62    1
    62    24    63    1
    63    24    64    1
    64    25    65    1
    65    27    66    1
    66    28    67    1
    67    28    68    1
    68    31    69    1
