
     RDKit          3D

 30 31  0  0  0  0  0  0  0  0999 V2000
   -1.1376   -2.3958    0.7339 C   0  0  0  0  0  0  0  0  0  0  0  0
   -1.1604   -1.1295    1.5100 C   0  0  0  0  0  0  0  0  0  0  0  0
   -1.3830    0.0088    0.5984 C   0  0  0  0  0  0  0  0  0  0  0  0
   -2.6162    0.5840    0.4686 N   0  0  0  0  0  0  0  0  0  0  0  0
   -2.8691    1.6113   -0.3539 C   0  0  0  0  0  0  0  0  0  0  0  0
   -4.1927    2.1797   -0.4551 N   0  0  0  0  0  0  0  0  0  0  0  0
   -1.8452    2.0863   -1.0798 N   0  0  0  0  0  0  0  0  0  0  0  0
   -0.5952    1.5544   -0.9923 C   0  0  0  0  0  0  0  0  0  0  0  0
    0.4850    2.0663   -1.7621 N   0  0  0  0  0  0  0  0  0  0  0  0
   -0.3318    0.4961   -0.1459 C   0  0  0  0  0  0  0  0  0  0  0  0
    1.0297   -0.0236   -0.0910 C   0  0  0  0  0  0  0  0  0  0  0  0
    1.9145    0.5226    0.8386 C   0  0  0  0  0  0  0  0  0  0  0  0
    3.2189    0.1042    0.9622 C   0  0  0  0  0  0  0  0  0  0  0  0
    3.6927   -0.8903    0.1477 C   0  0  0  0  0  0  0  0  0  0  0  0
    5.3541   -1.4092    0.3174 Cl  0  0  0  0  0  0  0  0  0  0  0  0
    2.8202   -1.4401   -0.7810 C   0  0  0  0  0  0  0  0  0  0  0  0
    1.5169   -1.0108   -0.8921 C   0  0  0  0  0  0  0  0  0  0  0  0
   -2.1212   -2.9153    0.8838 H   0  0  0  0  0  0  0  0  0  0  0  0
   -0.3583   -3.1138    1.1029 H   0  0  0  0  0  0  0  0  0  0  0  0
   -1.0410   -2.1678   -0.3434 H   0  0  0  0  0  0  0  0  0  0  0  0
   -0.2223   -0.9942    2.0837 H   0  0  0  0  0  0  0  0  0  0  0  0
   -1.9942   -1.1471    2.2604 H   0  0  0  0  0  0  0  0  0  0  0  0
   -4.8969    1.8070   -1.1233 H   0  0  0  0  0  0  0  0  0  0  0  0
   -4.5047    2.9844    0.1316 H   0  0  0  0  0  0  0  0  0  0  0  0
    0.6666    1.6281   -2.6889 H   0  0  0  0  0  0  0  0  0  0  0  0
    1.0872    2.8340   -1.4563 H   0  0  0  0  0  0  0  0  0  0  0  0
    1.5532    1.3066    1.4853 H   0  0  0  0  0  0  0  0  0  0  0  0
    3.8651    0.5749    1.7120 H   0  0  0  0  0  0  0  0  0  0  0  0
    3.2078   -2.2380   -1.4312 H   0  0  0  0  0  0  0  0  0  0  0  0
    0.8576   -1.4732   -1.6402 H   0  0  0  0  0  0  0  0  0  0  0  0
  1  2  1  0
  2  3  1  0
  3  4  2  0
  4  5  1  0
  5  6  1  0
  5  7  2  0
  7  8  1  0
  8  9  1  0
  8 10  2  0
 10 11  1  0
 11 12  2  0
 12 13  1  0
 13 14  2  0
 14 15  1  0
 14 16  1  0
 16 17  2  0
 10  3  1  0
 17 11  1  0
  1 18  1  0
  1 19  1  0
  1 20  1  0
  2 21  1  0
  2 22  1  0
  6 23  1  0
  6 24  1  0
  9 25  1  0
  9 26  1  0
 12 27  1  0
 13 28  1  0
 16 29  1  0
 17 30  1  0
M  END
$$$$
