@<TRIPOS>MOLECULE
*****
 30 31 0 0 0
SMALL
GASTEIGER

@<TRIPOS>ATOM
      1 C          -1.1376   -2.3958    0.7339 C.3     1  UNL1       -0.0598
      2 C          -1.1604   -1.1295    1.5100 C.3     1  UNL1       -0.0124
      3 C          -1.3830    0.0088    0.5984 C.ar    1  UNL1        0.0556
      4 N          -2.6162    0.5840    0.4686 N.ar    1  UNL1       -0.2190
      5 C          -2.8691    1.6113   -0.3539 C.ar    1  UNL1        0.2145
      6 N          -4.1927    2.1797   -0.4551 N.pl3   1  UNL1       -0.3274
      7 N          -1.8452    2.0863   -1.0798 N.ar    1  UNL1       -0.1995
      8 C          -0.5952    1.5544   -0.9923 C.ar    1  UNL1        0.1293
      9 N           0.4850    2.0663   -1.7621 N.pl3   1  UNL1       -0.3425
     10 C          -0.3318    0.4961   -0.1459 C.ar    1  UNL1        0.0430
     11 C           1.0297   -0.0236   -0.0910 C.ar    1  UNL1       -0.0128
     12 C           1.9145    0.5226    0.8386 C.ar    1  UNL1       -0.0525
     13 C           3.2189    0.1042    0.9622 C.ar    1  UNL1       -0.0428
     14 C           3.6927   -0.8903    0.1477 C.ar    1  UNL1        0.0410
     15 CL          5.3541   -1.4092    0.3174 Cl      1  UNL1       -0.0835
     16 C           2.8202   -1.4401   -0.7810 C.ar    1  UNL1       -0.0428
     17 C           1.5169   -1.0108   -0.8921 C.ar    1  UNL1       -0.0525
     18 H          -2.1212   -2.9153    0.8838 H       1  UNL1        0.0233
     19 H          -0.3583   -3.1138    1.1029 H       1  UNL1        0.0233
     20 H          -1.0410   -2.1678   -0.3434 H       1  UNL1        0.0233
     21 H          -0.2223   -0.9942    2.0837 H       1  UNL1        0.0326
     22 H          -1.9942   -1.1471    2.2604 H       1  UNL1        0.0326
     23 H          -4.8969    1.8070   -1.1233 H       1  UNL1        0.1452
     24 H          -4.5047    2.9844    0.1316 H       1  UNL1        0.1452
     25 H           0.6666    1.6281   -2.6889 H       1  UNL1        0.1437
     26 H           1.0872    2.8340   -1.4563 H       1  UNL1        0.1437
     27 H           1.5532    1.3066    1.4853 H       1  UNL1        0.0624
     28 H           3.8651    0.5749    1.7120 H       1  UNL1        0.0632
     29 H           3.2078   -2.2380   -1.4312 H       1  UNL1        0.0632
     30 H           0.8576   -1.4732   -1.6402 H       1  UNL1        0.0624
@<TRIPOS>BOND
     1     1     2    1
     2     2     3    1
     3     3     4   ar
     4     4     5   ar
     5     5     6    1
     6     5     7   ar
     7     7     8   ar
     8     8     9    1
     9     8    10   ar
    10    10    11    1
    11    11    12   ar
    12    12    13   ar
    13    13    14   ar
    14    14    15    1
    15    14    16   ar
    16    16    17   ar
    17    10     3   ar
    18    17    11   ar
    19     1    18    1
    20     1    19    1
    21     1    20    1
    22     2    21    1
    23     2    22    1
    24     6    23    1
    25     6    24    1
    26     9    25    1
    27     9    26    1
    28    12    27    1
    29    13    28    1
    30    16    29    1
    31    17    30    1
