@<TRIPOS>MOLECULE
*****
 118 122 0 0 0
SMALL
GASTEIGER

@<TRIPOS>ATOM
      1 C          -0.7149    4.3202   -3.3138 C.3     1  UNL1        0.0000
      2 C          -1.3339    3.4655   -2.2120 C.3     1  UNL1        0.0000
      3 C          -2.0136    2.3283   -2.8866 C.2     1  UNL1        0.0000
      4 C          -2.3924    1.3277   -2.0762 C.2     1  UNL1        0.0000
      5 C          -3.0581    0.1478   -2.5291 C.2     1  UNL1        0.0000
      6 C          -3.2038   -0.8784   -1.7093 C.2     1  UNL1        0.0000
      7 C          -2.6805   -0.8021   -0.3300 C.3     1  UNL1        0.0000
      8 C          -3.2979   -1.8876    0.5058 C.3     1  UNL1        0.0000
      9 C          -2.6523    0.5460    0.2902 C.3     1  UNL1        0.0000
     10 C          -3.7781    1.0636    1.0448 C.3     1  UNL1        0.0000
     11 C          -5.1186    1.3489    0.6382 C.3     1  UNL1        0.0000
     12 C          -6.1486    0.3832    0.1966 C.3     1  UNL1        0.0000
     13 C          -6.5786   -0.6582    1.1838 C.3     1  UNL1        0.0000
     14 C          -7.8195   -1.3198    0.5553 C.3     1  UNL1        0.0000
     15 O          -8.4776   -0.3568   -0.1663 O.3     1  UNL1        0.0000
     16 SI        -10.1316   -0.2101    0.0777 Si      1  UNL1        0.0000
     17 C         -10.6486    1.5052    0.6155 C.3     1  UNL1        0.0000
     18 C         -10.9633   -0.5109   -1.5860 C.3     1  UNL1        0.0000
     19 C         -10.8599   -1.4408    1.2652 C.3     1  UNL1        0.0000
     20 C         -12.3698   -1.1520    1.2986 C.3     1  UNL1        0.0000
     21 C         -10.7163   -2.8508    0.7388 C.3     1  UNL1        0.0000
     22 C         -10.3641   -1.2878    2.6639 C.3     1  UNL1        0.0000
     23 C          -7.1951   -2.2427   -0.5152 C.3     1  UNL1        0.0000
     24 C          -6.5747   -1.3255   -1.4956 C.2     1  UNL1        0.0000
     25 O          -6.4988   -1.6038   -2.7192 O.2     1  UNL1        0.0000
     26 O          -6.0588   -0.1282   -1.0820 O.3     1  UNL1        0.0000
     27 C          -2.0463    1.5613   -0.6600 C.3     1  UNL1        0.0000
     28 C          -0.5596    1.7011   -0.6027 C.3     1  UNL1        0.0000
     29 O           0.1577    0.6497   -1.1283 O.3     1  UNL1        0.0000
     30 C           1.1567   -0.0803   -0.5107 C.2     1  UNL1        0.0000
     31 O           1.4379    0.2685    0.6565 O.2     1  UNL1        0.0000
     32 N           1.8212   -1.1447   -1.1462 N.am    1  UNL1        0.0000
     33 C           2.8658   -1.8849   -0.5034 C.3     1  UNL1        0.0000
     34 C           4.1816   -1.1951   -0.5066 C.ar    1  UNL1        0.0000
     35 C           4.7022   -0.4425    0.4893 C.ar    1  UNL1        0.0000
     36 C           5.9412    0.1878    0.3970 C.ar    1  UNL1        0.0000
     37 C           6.6986    0.0618   -0.7461 C.ar    1  UNL1        0.0000
     38 C           8.0090    0.6807   -0.9077 C.ar    1  UNL1        0.0000
     39 C           8.6647    1.4336    0.0371 C.ar    1  UNL1        0.0000
     40 N           9.8575    1.8453   -0.4365 N.ar    1  UNL1        0.0000
     41 C          10.8896    2.6383    0.1724 C.3     1  UNL1        0.0000
     42 C          12.0008    1.9529    0.8422 C.3     1  UNL1        0.0000
     43 C          11.8053    1.1125    2.0231 C.3     1  UNL1        0.0000
     44 C          10.9911   -0.1009    1.9966 C.3     1  UNL1        0.0000
     45 C          11.3054   -1.2470    1.1327 C.3     1  UNL1        0.0000
     46 C          12.5073   -2.0528    1.3407 C.3     1  UNL1        0.0000
     47 C          13.8443   -1.5296    1.2207 C.2     1  UNL1        0.0000
     48 O          14.2017   -0.3991    0.8808 O.2     1  UNL1        0.0000
     49 N          14.9553   -2.4402    1.5385 N.am    1  UNL1        0.0000
     50 O          16.1983   -1.9932    1.4392 O.3     1  UNL1        0.0000
     51 N           9.9080    1.3255   -1.6854 N.ar    1  UNL1        0.0000
     52 N           8.8262    0.6450   -1.9586 N.ar    1  UNL1        0.0000
     53 C           6.1629   -0.7141   -1.7731 C.ar    1  UNL1        0.0000
     54 C           4.9385   -1.3359   -1.6788 C.ar    1  UNL1        0.0000
     55 C          -0.2186    3.0336   -1.2886 C.3     1  UNL1        0.0000
     56 H          -0.6996    3.7778   -4.2841 H       1  UNL1        0.0000
     57 H           0.3284    4.6005   -3.1092 H       1  UNL1        0.0000
     58 H          -1.3714    5.1997   -3.4898 H       1  UNL1        0.0000
     59 H          -2.0770    4.0976   -1.6488 H       1  UNL1        0.0000
     60 H          -2.2177    2.2439   -3.9240 H       1  UNL1        0.0000
     61 H          -3.4411    0.1123   -3.5538 H       1  UNL1        0.0000
     62 H          -3.6990   -1.7795   -2.0215 H       1  UNL1        0.0000
     63 H          -1.5771   -1.1838   -0.4310 H       1  UNL1        0.0000
     64 H          -3.4756   -1.6041    1.5629 H       1  UNL1        0.0000
     65 H          -4.2278   -2.3014    0.0160 H       1  UNL1        0.0000
     66 H          -2.6444   -2.8044    0.5866 H       1  UNL1        0.0000
     67 H          -1.7890    0.4459    1.0712 H       1  UNL1        0.0000
     68 H          -3.4134    1.9887    1.6657 H       1  UNL1        0.0000
     69 H          -3.8928    0.3435    1.9639 H       1  UNL1        0.0000
     70 H          -5.6521    1.9181    1.5145 H       1  UNL1        0.0000
     71 H          -5.2023    2.1822   -0.1490 H       1  UNL1        0.0000
     72 H          -7.1283    1.0491    0.1252 H       1  UNL1        0.0000
     73 H          -5.8542   -1.3952    1.4893 H       1  UNL1        0.0000
     74 H          -6.9217   -0.1437    2.1271 H       1  UNL1        0.0000
     75 H          -8.4080   -1.8900    1.2655 H       1  UNL1        0.0000
     76 H         -11.7487    1.5869    0.3612 H       1  UNL1        0.0000
     77 H         -10.5690    1.6592    1.6903 H       1  UNL1        0.0000
     78 H         -10.1611    2.2853    0.0131 H       1  UNL1        0.0000
     79 H         -12.0578   -0.4558   -1.5305 H       1  UNL1        0.0000
     80 H         -10.5238    0.2237   -2.3177 H       1  UNL1        0.0000
     81 H         -10.6232   -1.5053   -1.9217 H       1  UNL1        0.0000
     82 H         -12.5713   -0.0610    1.3006 H       1  UNL1        0.0000
     83 H         -12.7737   -1.5249    0.3398 H       1  UNL1        0.0000
     84 H         -12.7988   -1.6791    2.1542 H       1  UNL1        0.0000
     85 H         -11.7062   -3.3447    0.5612 H       1  UNL1        0.0000
     86 H         -10.1526   -3.5167    1.4096 H       1  UNL1        0.0000
     87 H         -10.2624   -2.8111   -0.2944 H       1  UNL1        0.0000
     88 H         -11.1732   -1.0113    3.4013 H       1  UNL1        0.0000
     89 H          -9.5906   -0.5110    2.8047 H       1  UNL1        0.0000
     90 H          -9.9510   -2.2531    3.0773 H       1  UNL1        0.0000
     91 H          -6.5226   -2.9695   -0.0671 H       1  UNL1        0.0000
     92 H          -7.9814   -2.8230   -1.0433 H       1  UNL1        0.0000
     93 H          -2.4426    2.5641   -0.3044 H       1  UNL1        0.0000
     94 H          -0.2546    1.8523    0.4441 H       1  UNL1        0.0000
     95 H           1.5159   -1.3856   -2.1406 H       1  UNL1        0.0000
     96 H           2.5818   -2.2015    0.5375 H       1  UNL1        0.0000
     97 H           3.0200   -2.8608   -1.0491 H       1  UNL1        0.0000
     98 H           4.1550   -0.3147    1.3969 H       1  UNL1        0.0000
     99 H           6.3093    0.7821    1.2353 H       1  UNL1        0.0000
    100 H           8.2822    1.6709    1.0421 H       1  UNL1        0.0000
    101 H          10.3718    3.2974    0.9459 H       1  UNL1        0.0000
    102 H          11.2291    3.3947   -0.5882 H       1  UNL1        0.0000
    103 H          12.7220    2.7902    1.1696 H       1  UNL1        0.0000
    104 H          12.6232    1.4560    0.0319 H       1  UNL1        0.0000
    105 H          12.7714    1.0009    2.5994 H       1  UNL1        0.0000
    106 H          11.2390    1.8137    2.7757 H       1  UNL1        0.0000
    107 H           9.9020    0.1374    2.0346 H       1  UNL1        0.0000
    108 H          11.1411   -0.5469    3.0837 H       1  UNL1        0.0000
    109 H          10.4189   -1.9678    1.2304 H       1  UNL1        0.0000
    110 H          11.2391   -0.9800    0.0275 H       1  UNL1        0.0000
    111 H          12.4432   -2.9253    0.5985 H       1  UNL1        0.0000
    112 H          12.4518   -2.6045    2.3410 H       1  UNL1        0.0000
    113 H          14.7502   -3.4012    1.8311 H       1  UNL1        0.0000
    114 H          16.5786   -2.1164    0.5103 H       1  UNL1        0.0000
    115 H           6.7590   -0.8068   -2.6579 H       1  UNL1        0.0000
    116 H           4.5388   -1.9356   -2.4898 H       1  UNL1        0.0000
    117 H           0.7104    2.9768   -1.8832 H       1  UNL1        0.0000
    118 H          -0.0800    3.8469   -0.5530 H       1  UNL1        0.0000
@<TRIPOS>BOND
     1     1     2    1
     2     2     3    1
     3     3     4    2
     4     4     5    1
     5     5     6    2
     6     6     7    1
     7     7     8    1
     8     7     9    1
     9     9    10    1
    10    10    11    1
    11    11    12    1
    12    12    13    1
    13    13    14    1
    14    14    15    1
    15    15    16    1
    16    16    17    1
    17    16    18    1
    18    16    19    1
    19    19    20    1
    20    19    21    1
    21    19    22    1
    22    14    23    1
    23    23    24    1
    24    24    25    2
    25    24    26    1
    26     9    27    1
    27    27    28    1
    28    28    29    1
    29    29    30    1
    30    30    31    2
    31    30    32   am
    32    32    33    1
    33    33    34    1
    34    34    35   ar
    35    35    36   ar
    36    36    37   ar
    37    37    38    1
    38    38    39   ar
    39    39    40   ar
    40    40    41    1
    41    41    42    1
    42    42    43    1
    43    43    44    1
    44    44    45    1
    45    45    46    1
    46    46    47    1
    47    47    48    2
    48    47    49   am
    49    49    50    1
    50    40    51   ar
    51    51    52   ar
    52    37    53   ar
    53    53    54   ar
    54    28    55    1
    55    55     2    1
    56    27     4    1
    57    54    34   ar
    58    26    12    1
    59    52    38   ar
    60     1    56    1
    61     1    57    1
    62     1    58    1
    63     2    59    1
    64     3    60    1
    65     5    61    1
    66     6    62    1
    67     7    63    1
    68     8    64    1
    69     8    65    1
    70     8    66    1
    71     9    67    1
    72    10    68    1
    73    10    69    1
    74    11    70    1
    75    11    71    1
    76    12    72    1
    77    13    73    1
    78    13    74    1
    79    14    75    1
    80    17    76    1
    81    17    77    1
    82    17    78    1
    83    18    79    1
    84    18    80    1
    85    18    81    1
    86    20    82    1
    87    20    83    1
    88    20    84    1
    89    21    85    1
    90    21    86    1
    91    21    87    1
    92    22    88    1
    93    22    89    1
    94    22    90    1
    95    23    91    1
    96    23    92    1
    97    27    93    1
    98    28    94    1
    99    32    95    1
   100    33    96    1
   101    33    97    1
   102    35    98    1
   103    36    99    1
   104    39   100    1
   105    41   101    1
   106    41   102    1
   107    42   103    1
   108    42   104    1
   109    43   105    1
   110    43   106    1
   111    44   107    1
   112    44   108    1
   113    45   109    1
   114    45   110    1
   115    46   111    1
   116    46   112    1
   117    49   113    1
   118    50   114    1
   119    53   115    1
   120    54   116    1
   121    55   117    1
   122    55   118    1
