
     RDKit          3D

118122  0  0  0  0  0  0  0  0999 V2000
   -0.7149    4.3202   -3.3138 C   0  0  0  0  0  0  0  0  0  0  0  0
   -1.3339    3.4655   -2.2120 C   0  0  1  0  0  0  0  0  0  0  0  0
   -2.0136    2.3283   -2.8866 C   0  0  0  0  0  0  0  0  0  0  0  0
   -2.3924    1.3277   -2.0762 C   0  0  0  0  0  0  0  0  0  0  0  0
   -3.0581    0.1478   -2.5291 C   0  0  0  0  0  0  0  0  0  0  0  0
   -3.2038   -0.8784   -1.7093 C   0  0  0  0  0  0  0  0  0  0  0  0
   -2.6805   -0.8021   -0.3300 C   0  0  2  0  0  0  0  0  0  0  0  0
   -3.2979   -1.8876    0.5058 C   0  0  0  0  0  0  0  0  0  0  0  0
   -2.6523    0.5460    0.2902 C   0  0  2  0  0  0  0  0  0  0  0  0
   -3.7781    1.0636    1.0448 C   0  0  0  0  0  0  0  0  0  0  0  0
   -5.1186    1.3489    0.6382 C   0  0  0  0  0  0  0  0  0  0  0  0
   -6.1486    0.3832    0.1966 C   0  0  2  0  0  0  0  0  0  0  0  0
   -6.5786   -0.6582    1.1838 C   0  0  0  0  0  0  0  0  0  0  0  0
   -7.8195   -1.3198    0.5553 C   0  0  1  0  0  0  0  0  0  0  0  0
   -8.4776   -0.3568   -0.1663 O   0  0  0  0  0  0  0  0  0  0  0  0
  -10.1316   -0.2101    0.0777 Si  0  0  0  0  0  4  0  0  0  0  0  0
  -10.6486    1.5052    0.6155 C   0  0  0  0  0  0  0  0  0  0  0  0
  -10.9633   -0.5109   -1.5860 C   0  0  0  0  0  0  0  0  0  0  0  0
  -10.8599   -1.4408    1.2652 C   0  0  0  0  0  0  0  0  0  0  0  0
  -12.3698   -1.1520    1.2986 C   0  0  0  0  0  0  0  0  0  0  0  0
  -10.7163   -2.8508    0.7388 C   0  0  0  0  0  0  0  0  0  0  0  0
  -10.3641   -1.2878    2.6639 C   0  0  0  0  0  0  0  0  0  0  0  0
   -7.1951   -2.2427   -0.5152 C   0  0  0  0  0  0  0  0  0  0  0  0
   -6.5747   -1.3255   -1.4956 C   0  0  0  0  0  0  0  0  0  0  0  0
   -6.4988   -1.6038   -2.7192 O   0  0  0  0  0  0  0  0  0  0  0  0
   -6.0588   -0.1282   -1.0820 O   0  0  0  0  0  0  0  0  0  0  0  0
   -2.0463    1.5613   -0.6600 C   0  0  1  0  0  0  0  0  0  0  0  0
   -0.5596    1.7011   -0.6027 C   0  0  1  0  0  0  0  0  0  0  0  0
    0.1577    0.6497   -1.1283 O   0  0  0  0  0  0  0  0  0  0  0  0
    1.1567   -0.0803   -0.5107 C   0  0  0  0  0  0  0  0  0  0  0  0
    1.4379    0.2685    0.6565 O   0  0  0  0  0  0  0  0  0  0  0  0
    1.8212   -1.1447   -1.1462 N   0  0  0  0  0  0  0  0  0  0  0  0
    2.8658   -1.8849   -0.5034 C   0  0  0  0  0  0  0  0  0  0  0  0
    4.1816   -1.1951   -0.5066 C   0  0  0  0  0  0  0  0  0  0  0  0
    4.7022   -0.4425    0.4893 C   0  0  0  0  0  0  0  0  0  0  0  0
    5.9412    0.1878    0.3970 C   0  0  0  0  0  0  0  0  0  0  0  0
    6.6986    0.0618   -0.7461 C   0  0  0  0  0  0  0  0  0  0  0  0
    8.0090    0.6807   -0.9077 C   0  0  0  0  0  0  0  0  0  0  0  0
    8.6647    1.4336    0.0371 C   0  0  0  0  0  0  0  0  0  0  0  0
    9.8575    1.8453   -0.4365 N   0  0  0  0  0  0  0  0  0  0  0  0
   10.8896    2.6383    0.1724 C   0  0  0  0  0  0  0  0  0  0  0  0
   12.0008    1.9529    0.8422 C   0  0  0  0  0  0  0  0  0  0  0  0
   11.8053    1.1125    2.0231 C   0  0  0  0  0  0  0  0  0  0  0  0
   10.9911   -0.1009    1.9966 C   0  0  0  0  0  0  0  0  0  0  0  0
   11.3054   -1.2470    1.1327 C   0  0  0  0  0  0  0  0  0  0  0  0
   12.5073   -2.0528    1.3407 C   0  0  0  0  0  0  0  0  0  0  0  0
   13.8443   -1.5296    1.2207 C   0  0  0  0  0  0  0  0  0  0  0  0
   14.2017   -0.3991    0.8808 O   0  0  0  0  0  0  0  0  0  0  0  0
   14.9553   -2.4402    1.5385 N   0  0  0  0  0  0  0  0  0  0  0  0
   16.1983   -1.9932    1.4392 O   0  0  0  0  0  0  0  0  0  0  0  0
    9.9080    1.3255   -1.6854 N   0  0  0  0  0  0  0  0  0  0  0  0
    8.8262    0.6450   -1.9586 N   0  0  0  0  0  0  0  0  0  0  0  0
    6.1629   -0.7141   -1.7731 C   0  0  0  0  0  0  0  0  0  0  0  0
    4.9385   -1.3359   -1.6788 C   0  0  0  0  0  0  0  0  0  0  0  0
   -0.2186    3.0336   -1.2886 C   0  0  0  0  0  0  0  0  0  0  0  0
   -0.6996    3.7778   -4.2841 H   0  0  0  0  0  0  0  0  0  0  0  0
    0.3284    4.6005   -3.1092 H   0  0  0  0  0  0  0  0  0  0  0  0
   -1.3714    5.1997   -3.4898 H   0  0  0  0  0  0  0  0  0  0  0  0
   -2.0770    4.0976   -1.6488 H   0  0  0  0  0  0  0  0  0  0  0  0
   -2.2177    2.2439   -3.9240 H   0  0  0  0  0  0  0  0  0  0  0  0
   -3.4411    0.1123   -3.5538 H   0  0  0  0  0  0  0  0  0  0  0  0
   -3.6990   -1.7795   -2.0215 H   0  0  0  0  0  0  0  0  0  0  0  0
   -1.5771   -1.1838   -0.4310 H   0  0  0  0  0  0  0  0  0  0  0  0
   -3.4756   -1.6041    1.5629 H   0  0  0  0  0  0  0  0  0  0  0  0
   -4.2278   -2.3014    0.0160 H   0  0  0  0  0  0  0  0  0  0  0  0
   -2.6444   -2.8044    0.5866 H   0  0  0  0  0  0  0  0  0  0  0  0
   -1.7890    0.4459    1.0712 H   0  0  0  0  0  0  0  0  0  0  0  0
   -3.4134    1.9887    1.6657 H   0  0  0  0  0  0  0  0  0  0  0  0
   -3.8928    0.3435    1.9639 H   0  0  0  0  0  0  0  0  0  0  0  0
   -5.6521    1.9181    1.5145 H   0  0  0  0  0  0  0  0  0  0  0  0
   -5.2023    2.1822   -0.1490 H   0  0  0  0  0  0  0  0  0  0  0  0
   -7.1283    1.0491    0.1252 H   0  0  0  0  0  0  0  0  0  0  0  0
   -5.8542   -1.3952    1.4893 H   0  0  0  0  0  0  0  0  0  0  0  0
   -6.9217   -0.1437    2.1271 H   0  0  0  0  0  0  0  0  0  0  0  0
   -8.4080   -1.8900    1.2655 H   0  0  0  0  0  0  0  0  0  0  0  0
  -11.7487    1.5869    0.3612 H   0  0  0  0  0  0  0  0  0  0  0  0
  -10.5690    1.6592    1.6903 H   0  0  0  0  0  0  0  0  0  0  0  0
  -10.1611    2.2853    0.0131 H   0  0  0  0  0  0  0  0  0  0  0  0
  -12.0578   -0.4558   -1.5305 H   0  0  0  0  0  0  0  0  0  0  0  0
  -10.5238    0.2237   -2.3177 H   0  0  0  0  0  0  0  0  0  0  0  0
  -10.6232   -1.5053   -1.9217 H   0  0  0  0  0  0  0  0  0  0  0  0
  -12.5713   -0.0610    1.3006 H   0  0  0  0  0  0  0  0  0  0  0  0
  -12.7737   -1.5249    0.3398 H   0  0  0  0  0  0  0  0  0  0  0  0
  -12.7988   -1.6791    2.1542 H   0  0  0  0  0  0  0  0  0  0  0  0
  -11.7062   -3.3447    0.5612 H   0  0  0  0  0  0  0  0  0  0  0  0
  -10.1526   -3.5167    1.4096 H   0  0  0  0  0  0  0  0  0  0  0  0
  -10.2624   -2.8111   -0.2944 H   0  0  0  0  0  0  0  0  0  0  0  0
  -11.1732   -1.0113    3.4013 H   0  0  0  0  0  0  0  0  0  0  0  0
   -9.5906   -0.5110    2.8047 H   0  0  0  0  0  0  0  0  0  0  0  0
   -9.9510   -2.2531    3.0773 H   0  0  0  0  0  0  0  0  0  0  0  0
   -6.5226   -2.9695   -0.0671 H   0  0  0  0  0  0  0  0  0  0  0  0
   -7.9814   -2.8230   -1.0433 H   0  0  0  0  0  0  0  0  0  0  0  0
   -2.4426    2.5641   -0.3044 H   0  0  0  0  0  0  0  0  0  0  0  0
   -0.2546    1.8523    0.4441 H   0  0  0  0  0  0  0  0  0  0  0  0
    1.5159   -1.3856   -2.1406 H   0  0  0  0  0  0  0  0  0  0  0  0
    2.5818   -2.2015    0.5375 H   0  0  0  0  0  0  0  0  0  0  0  0
    3.0200   -2.8608   -1.0491 H   0  0  0  0  0  0  0  0  0  0  0  0
    4.1550   -0.3147    1.3969 H   0  0  0  0  0  0  0  0  0  0  0  0
    6.3093    0.7821    1.2353 H   0  0  0  0  0  0  0  0  0  0  0  0
    8.2822    1.6709    1.0421 H   0  0  0  0  0  0  0  0  0  0  0  0
   10.3718    3.2974    0.9459 H   0  0  0  0  0  0  0  0  0  0  0  0
   11.2291    3.3947   -0.5882 H   0  0  0  0  0  0  0  0  0  0  0  0
   12.7220    2.7902    1.1696 H   0  0  0  0  0  0  0  0  0  0  0  0
   12.6232    1.4560    0.0319 H   0  0  0  0  0  0  0  0  0  0  0  0
   12.7714    1.0009    2.5994 H   0  0  0  0  0  0  0  0  0  0  0  0
   11.2390    1.8137    2.7757 H   0  0  0  0  0  0  0  0  0  0  0  0
    9.9020    0.1374    2.0346 H   0  0  0  0  0  0  0  0  0  0  0  0
   11.1411   -0.5469    3.0837 H   0  0  0  0  0  0  0  0  0  0  0  0
   10.4189   -1.9678    1.2304 H   0  0  0  0  0  0  0  0  0  0  0  0
   11.2391   -0.9800    0.0275 H   0  0  0  0  0  0  0  0  0  0  0  0
   12.4432   -2.9253    0.5985 H   0  0  0  0  0  0  0  0  0  0  0  0
   12.4518   -2.6045    2.3410 H   0  0  0  0  0  0  0  0  0  0  0  0
   14.7502   -3.4012    1.8311 H   0  0  0  0  0  0  0  0  0  0  0  0
   16.5786   -2.1164    0.5103 H   0  0  0  0  0  0  0  0  0  0  0  0
    6.7590   -0.8068   -2.6579 H   0  0  0  0  0  0  0  0  0  0  0  0
    4.5388   -1.9356   -2.4898 H   0  0  0  0  0  0  0  0  0  0  0  0
    0.7104    2.9768   -1.8832 H   0  0  0  0  0  0  0  0  0  0  0  0
   -0.0800    3.8469   -0.5530 H   0  0  0  0  0  0  0  0  0  0  0  0
  1  2  1  0
  2  3  1  0
  3  4  2  0
  4  5  1  0
  5  6  2  0
  6  7  1  0
  7  8  1  0
  7  9  1  0
  9 10  1  0
 10 11  1  0
 11 12  1  0
 12 13  1  0
 13 14  1  0
 14 15  1  0
 15 16  1  0
 16 17  1  0
 16 18  1  0
 16 19  1  0
 19 20  1  0
 19 21  1  0
 19 22  1  0
 14 23  1  0
 23 24  1  0
 24 25  2  0
 24 26  1  0
  9 27  1  0
 27 28  1  0
 28 29  1  0
 29 30  1  0
 30 31  2  0
 30 32  1  0
 32 33  1  0
 33 34  1  0
 34 35  2  0
 35 36  1  0
 36 37  2  0
 37 38  1  0
 38 39  2  0
 39 40  1  0
 40 41  1  0
 41 42  1  0
 42 43  1  0
 43 44  1  0
 44 45  1  0
 45 46  1  0
 46 47  1  0
 47 48  2  0
 47 49  1  0
 49 50  1  0
 40 51  1  0
 51 52  2  0
 37 53  1  0
 53 54  2  0
 28 55  1  0
 55  2  1  0
 27  4  1  0
 54 34  1  0
 26 12  1  0
 52 38  1  0
  1 56  1  0
  1 57  1  0
  1 58  1  0
  2 59  1  1
  3 60  1  0
  5 61  1  0
  6 62  1  0
  7 63  1  6
  8 64  1  0
  8 65  1  0
  8 66  1  0
  9 67  1  1
 10 68  1  0
 10 69  1  0
 11 70  1  0
 11 71  1  0
 12 72  1  6
 13 73  1  0
 13 74  1  0
 14 75  1  1
 17 76  1  0
 17 77  1  0
 17 78  1  0
 18 79  1  0
 18 80  1  0
 18 81  1  0
 20 82  1  0
 20 83  1  0
 20 84  1  0
 21 85  1  0
 21 86  1  0
 21 87  1  0
 22 88  1  0
 22 89  1  0
 22 90  1  0
 23 91  1  0
 23 92  1  0
 27 93  1  1
 28 94  1  1
 32 95  1  0
 33 96  1  0
 33 97  1  0
 35 98  1  0
 36 99  1  0
 39100  1  0
 41101  1  0
 41102  1  0
 42103  1  0
 42104  1  0
 43105  1  0
 43106  1  0
 44107  1  0
 44108  1  0
 45109  1  0
 45110  1  0
 46111  1  0
 46112  1  0
 49113  1  0
 50114  1  0
 53115  1  0
 54116  1  0
 55117  1  0
 55118  1  0
M  END
$$$$
