
     RDKit          3D

 49 52  0  0  0  0  0  0  0  0999 V2000
    6.2810   -2.7219   -0.5306 O   0  0  0  0  0  0  0  0  0  0  0  0
    5.5109   -1.7227   -0.5329 C   0  0  0  0  0  0  0  0  0  0  0  0
    4.1617   -1.9140   -0.6890 O   0  0  0  0  0  0  0  0  0  0  0  0
    6.0768   -0.3920   -0.3694 C   0  0  0  0  0  0  0  0  0  0  0  0
    7.4219   -0.1827   -0.2122 C   0  0  0  0  0  0  0  0  0  0  0  0
    7.8701    1.0766   -0.0666 N   0  0  0  0  0  0  0  0  0  0  0  0
    7.0668    2.1280   -0.0683 N   0  0  0  0  0  0  0  0  0  0  0  0
    5.7443    1.9900   -0.2175 C   0  0  0  0  0  0  0  0  0  0  0  0
    5.2481    0.6905   -0.3712 C   0  0  0  0  0  0  0  0  0  0  0  0
    3.8507    0.4807   -0.5339 N   0  0  0  0  0  0  0  0  0  0  0  0
    2.9710    0.2747    0.5560 C   0  0  0  0  0  0  0  0  0  0  0  0
    3.4586    0.2800    1.7108 O   0  0  0  0  0  0  0  0  0  0  0  0
    1.5839    0.0662    0.3992 N   0  0  0  0  0  0  0  0  0  0  0  0
    0.7939    0.0178   -0.8275 C   0  0  0  0  0  0  0  0  0  0  0  0
   -0.4234    0.7917   -0.4436 C   0  0  1  0  0  0  0  0  0  0  0  0
   -1.7298    0.1247   -0.9438 C   0  0  0  0  0  0  0  0  0  0  0  0
   -2.6240    0.4530    0.1717 C   0  0  1  0  0  0  0  0  0  0  0  0
   -4.0098    0.3200    0.2376 C   0  0  0  0  0  0  0  0  0  0  0  0
   -4.7929    1.4600   -0.0747 C   0  0  0  0  0  0  0  0  0  0  0  0
   -6.1473    1.4936   -0.0667 C   0  0  0  0  0  0  0  0  0  0  0  0
   -6.8679    0.3803    0.2577 C   0  0  0  0  0  0  0  0  0  0  0  0
   -6.1571   -0.7524    0.5688 C   0  0  0  0  0  0  0  0  0  0  0  0
   -4.7469   -0.7853    0.5596 C   0  0  0  0  0  0  0  0  0  0  0  0
   -4.0725   -2.0204    0.9032 C   0  0  0  0  0  0  0  0  0  0  0  0
   -3.2174   -2.5540   -0.0258 F   0  0  0  0  0  0  0  0  0  0  0  0
   -3.7270   -2.1862    2.2194 F   0  0  0  0  0  0  0  0  0  0  0  0
   -5.0951   -3.0390    0.8214 F   0  0  0  0  0  0  0  0  0  0  0  0
   -1.8202   -0.0209    1.3626 C   0  0  0  0  0  0  0  0  0  0  0  0
   -0.5121    0.7481    1.0682 C   0  0  1  0  0  0  0  0  0  0  0  0
    0.6350   -0.1492    1.4655 C   0  0  0  0  0  0  0  0  0  0  0  0
    3.7609   -2.7566   -1.1211 H   0  0  0  0  0  0  0  0  0  0  0  0
    8.0996   -1.0394   -0.2085 H   0  0  0  0  0  0  0  0  0  0  0  0
    5.0658    2.8318   -0.2225 H   0  0  0  0  0  0  0  0  0  0  0  0
    3.4027    0.4696   -1.4936 H   0  0  0  0  0  0  0  0  0  0  0  0
    0.5262   -1.0577   -0.9679 H   0  0  0  0  0  0  0  0  0  0  0  0
    1.3401    0.4331   -1.6943 H   0  0  0  0  0  0  0  0  0  0  0  0
   -0.3828    1.8565   -0.7434 H   0  0  0  0  0  0  0  0  0  0  0  0
   -1.9260    0.6859   -1.8826 H   0  0  0  0  0  0  0  0  0  0  0  0
   -1.4176   -0.9015   -1.0963 H   0  0  0  0  0  0  0  0  0  0  0  0
   -2.4065    1.6082    0.2556 H   0  0  0  0  0  0  0  0  0  0  0  0
   -4.2991    2.4016   -0.3501 H   0  0  0  0  0  0  0  0  0  0  0  0
   -6.7289    2.3860   -0.3116 H   0  0  0  0  0  0  0  0  0  0  0  0
   -7.9500    0.3510    0.2802 H   0  0  0  0  0  0  0  0  0  0  0  0
   -6.7124   -1.6649    0.8362 H   0  0  0  0  0  0  0  0  0  0  0  0
   -2.2865    0.3910    2.2721 H   0  0  0  0  0  0  0  0  0  0  0  0
   -1.6017   -1.0854    1.3809 H   0  0  0  0  0  0  0  0  0  0  0  0
   -0.5033    1.7329    1.5440 H   0  0  0  0  0  0  0  0  0  0  0  0
    1.0065    0.2184    2.4426 H   0  0  0  0  0  0  0  0  0  0  0  0
    0.2821   -1.1960    1.5126 H   0  0  0  0  0  0  0  0  0  0  0  0
  1  2  2  0
  2  3  1  0
  2  4  1  0
  4  5  2  0
  5  6  1  0
  6  7  2  0
  7  8  1  0
  8  9  2  0
  9 10  1  0
 10 11  1  0
 11 12  2  0
 11 13  1  0
 13 14  1  0
 14 15  1  0
 15 16  1  0
 16 17  1  0
 17 18  1  0
 18 19  2  0
 19 20  1  0
 20 21  2  0
 21 22  1  0
 22 23  2  0
 23 24  1  0
 24 25  1  0
 24 26  1  0
 24 27  1  0
 17 28  1  0
 28 29  1  0
 29 30  1  0
  9  4  1  0
 30 13  1  0
 29 15  1  0
 23 18  1  0
  3 31  1  0
  5 32  1  0
  8 33  1  0
 10 34  1  0
 14 35  1  0
 14 36  1  0
 15 37  1  6
 16 38  1  0
 16 39  1  0
 17 40  1  1
 19 41  1  0
 20 42  1  0
 21 43  1  0
 22 44  1  0
 28 45  1  0
 28 46  1  0
 29 47  1  1
 30 48  1  0
 30 49  1  0
M  END
$$$$
