@<TRIPOS>MOLECULE
*****
 49 52 0 0 0
SMALL
GASTEIGER

@<TRIPOS>ATOM
      1 O           6.2810   -2.7219   -0.5306 O.2     1  UNL1       -0.2450
      2 C           5.5109   -1.7227   -0.5329 C.2     1  UNL1        0.3402
      3 O           4.1617   -1.9140   -0.6890 O.3     1  UNL1       -0.4770
      4 C           6.0768   -0.3920   -0.3694 C.ar    1  UNL1        0.1012
      5 C           7.4219   -0.1827   -0.2122 C.ar    1  UNL1        0.0657
      6 N           7.8701    1.0766   -0.0666 N.ar    1  UNL1       -0.1568
      7 N           7.0668    2.1280   -0.0683 N.ar    1  UNL1       -0.1558
      8 C           5.7443    1.9900   -0.2175 C.ar    1  UNL1        0.0720
      9 C           5.2481    0.6905   -0.3712 C.ar    1  UNL1        0.0702
     10 N           3.8507    0.4807   -0.5339 N.am    1  UNL1       -0.2671
     11 C           2.9710    0.2747    0.5560 C.2     1  UNL1        0.3065
     12 O           3.4586    0.2800    1.7108 O.2     1  UNL1       -0.2523
     13 N           1.5839    0.0662    0.3992 N.am    1  UNL1       -0.2848
     14 C           0.7939    0.0178   -0.8275 C.3     1  UNL1        0.0193
     15 C          -0.4234    0.7917   -0.4436 C.3     1  UNL1       -0.0203
     16 C          -1.7298    0.1247   -0.9438 C.3     1  UNL1       -0.0416
     17 C          -2.6240    0.4530    0.1717 C.3     1  UNL1       -0.0147
     18 C          -4.0098    0.3200    0.2376 C.ar    1  UNL1       -0.0326
     19 C          -4.7929    1.4600   -0.0747 C.ar    1  UNL1       -0.0578
     20 C          -6.1473    1.4936   -0.0667 C.ar    1  UNL1       -0.0615
     21 C          -6.8679    0.3803    0.2577 C.ar    1  UNL1       -0.0612
     22 C          -6.1571   -0.7524    0.5688 C.ar    1  UNL1       -0.0498
     23 C          -4.7469   -0.7853    0.5596 C.ar    1  UNL1        0.0582
     24 C          -4.0725   -2.0204    0.9032 C.3     1  UNL1        0.4177
     25 F          -3.2174   -2.5540   -0.0258 F       1  UNL1       -0.1659
     26 F          -3.7270   -2.1862    2.2194 F       1  UNL1       -0.1659
     27 F          -5.0951   -3.0390    0.8214 F       1  UNL1       -0.1659
     28 C          -1.8202   -0.0209    1.3626 C.3     1  UNL1       -0.0416
     29 C          -0.5121    0.7481    1.0682 C.3     1  UNL1       -0.0203
     30 C           0.6350   -0.1492    1.4655 C.3     1  UNL1        0.0193
     31 H           3.7609   -2.7566   -1.1211 H       1  UNL1        0.2954
     32 H           8.0996   -1.0394   -0.2085 H       1  UNL1        0.0857
     33 H           5.0658    2.8318   -0.2225 H       1  UNL1        0.0867
     34 H           3.4027    0.4696   -1.4936 H       1  UNL1        0.1564
     35 H           0.5262   -1.0577   -0.9679 H       1  UNL1        0.0468
     36 H           1.3401    0.4331   -1.6943 H       1  UNL1        0.0468
     37 H          -0.3828    1.8565   -0.7434 H       1  UNL1        0.0319
     38 H          -1.9260    0.6859   -1.8826 H       1  UNL1        0.0274
     39 H          -1.4176   -0.9015   -1.0963 H       1  UNL1        0.0274
     40 H          -2.4065    1.6082    0.2556 H       1  UNL1        0.0349
     41 H          -4.2991    2.4016   -0.3501 H       1  UNL1        0.0620
     42 H          -6.7289    2.3860   -0.3116 H       1  UNL1        0.0618
     43 H          -7.9500    0.3510    0.2802 H       1  UNL1        0.0618
     44 H          -6.7124   -1.6649    0.8362 H       1  UNL1        0.0623
     45 H          -2.2865    0.3910    2.2721 H       1  UNL1        0.0274
     46 H          -1.6017   -1.0854    1.3809 H       1  UNL1        0.0274
     47 H          -0.5033    1.7329    1.5440 H       1  UNL1        0.0319
     48 H           1.0065    0.2184    2.4426 H       1  UNL1        0.0468
     49 H           0.2821   -1.1960    1.5126 H       1  UNL1        0.0468
@<TRIPOS>BOND
     1     1     2    2
     2     2     3    1
     3     2     4    1
     4     4     5   ar
     5     5     6   ar
     6     6     7   ar
     7     7     8   ar
     8     8     9   ar
     9     9    10    1
    10    10    11   am
    11    11    12    2
    12    11    13   am
    13    13    14    1
    14    14    15    1
    15    15    16    1
    16    16    17    1
    17    17    18    1
    18    18    19   ar
    19    19    20   ar
    20    20    21   ar
    21    21    22   ar
    22    22    23   ar
    23    23    24    1
    24    24    25    1
    25    24    26    1
    26    24    27    1
    27    17    28    1
    28    28    29    1
    29    29    30    1
    30     9     4   ar
    31    30    13    1
    32    29    15    1
    33    23    18   ar
    34     3    31    1
    35     5    32    1
    36     8    33    1
    37    10    34    1
    38    14    35    1
    39    14    36    1
    40    15    37    1
    41    16    38    1
    42    16    39    1
    43    17    40    1
    44    19    41    1
    45    20    42    1
    46    21    43    1
    47    22    44    1
    48    28    45    1
    49    28    46    1
    50    29    47    1
    51    30    48    1
    52    30    49    1
