
     RDKit          3D

 76 80  0  0  0  0  0  0  0  0999 V2000
   -3.9109    0.9328   -2.0627 C   0  0  1  0  0  0  0  0  0  0  0  0
   -2.6865    0.6649   -1.2169 C   0  0  0  0  0  0  0  0  0  0  0  0
   -2.0660   -0.5147   -1.5498 O   0  0  0  0  0  0  0  0  0  0  0  0
   -0.7108   -0.7443   -0.5654 P   0  0  0  0  0  0  0  0  0  0  0  0
   -0.2953   -2.3895   -0.6049 O   0  0  0  0  0  0  0  0  0  0  0  0
   -0.9947   -0.2524    0.8167 O   0  0  0  0  0  0  0  0  0  0  0  0
    0.5502    0.1963   -1.2098 O   0  0  0  0  0  0  0  0  0  0  0  0
    1.8078    0.4194   -0.1098 P   0  0  0  0  0  0  0  0  0  0  0  0
    2.1197    2.0971   -0.0027 O   0  0  0  0  0  0  0  0  0  0  0  0
    1.4915   -0.1024    1.2659 O   0  0  0  0  0  0  0  0  0  0  0  0
    3.2560   -0.2783   -0.6591 O   0  0  0  0  0  0  0  0  0  0  0  0
    3.6946   -1.2683    0.1926 C   0  0  0  0  0  0  0  0  0  0  0  0
    5.0007   -1.8822   -0.3234 C   0  0  1  0  0  0  0  0  0  0  0  0
    5.9519   -0.8743   -0.3958 O   0  0  0  0  0  0  0  0  0  0  0  0
    7.1741   -1.5359   -0.2210 C   0  0  1  0  0  0  0  0  0  0  0  0
    8.2215   -0.5459    0.0114 N   0  0  0  0  0  4  0  0  0  0  0  0
    9.3453   -0.8388    0.7135 C   0  0  0  0  0  0  0  0  0  0  0  0
   10.3365    0.1203    0.9260 C   0  0  0  0  0  0  0  0  0  0  0  0
   10.1844    1.4052    0.4149 C   0  0  0  0  0  0  0  0  0  0  0  0
    9.0146    1.6096   -0.2823 C   0  0  0  0  0  0  0  0  0  0  0  0
    8.0364    0.6931   -0.5021 C   0  0  0  0  0  0  0  0  0  0  0  0
    8.7949    2.9370   -0.8439 C   0  0  0  0  0  0  0  0  0  0  0  0
    7.3304    3.3889   -1.7823 S   0  0  0  0  0  1  0  0  0  0  0  0
    9.5485    3.9824   -0.7880 N   0  0  0  0  0  0  0  0  0  0  0  0
    6.9098   -2.4089    0.9631 C   0  0  2  0  0  0  0  0  0  0  0  0
    7.7566   -3.5074    1.0656 O   0  0  0  0  0  0  0  0  0  0  0  0
    5.5001   -2.9084    0.6566 C   0  0  2  0  0  0  0  0  0  0  0  0
    5.6098   -4.1460    0.0063 O   0  0  0  0  0  0  0  0  0  0  0  0
   -4.8783   -0.0258   -1.9640 O   0  0  0  0  0  0  0  0  0  0  0  0
   -6.0293    0.5477   -1.4367 C   0  0  1  0  0  0  0  0  0  0  0  0
   -6.6160   -0.3668   -0.4757 N   0  0  0  0  0  0  0  0  0  0  0  0
   -6.0419   -0.9946    0.5652 C   0  0  0  0  0  0  0  0  0  0  0  0
   -6.9561   -1.7700    1.2175 N   0  0  0  0  0  0  0  0  0  0  0  0
   -8.1441   -1.6494    0.5970 C   0  0  0  0  0  0  0  0  0  0  0  0
   -9.4225   -2.1464    0.7448 C   0  0  0  0  0  0  0  0  0  0  0  0
   -9.6716   -3.0453    1.8173 N   0  0  0  0  0  0  0  0  0  0  0  0
  -10.4176   -1.7997   -0.0945 N   0  0  0  0  0  0  0  0  0  0  0  0
  -10.1324   -0.9453   -1.0950 C   0  0  0  0  0  0  0  0  0  0  0  0
   -8.9083   -0.4259   -1.2933 N   0  0  0  0  0  0  0  0  0  0  0  0
   -7.9190   -0.7738   -0.4546 C   0  0  0  0  0  0  0  0  0  0  0  0
   -5.5887    1.8098   -0.7309 C   0  0  2  0  0  0  0  0  0  0  0  0
   -6.5657    2.6785   -0.4423 O   0  0  0  0  0  0  0  0  0  0  0  0
   -6.8785    3.0851    1.1264 P   0  0  0  0  0  0  0  0  0  0  0  0
   -7.1184    4.7397    1.3949 O   0  0  0  0  0  0  0  0  0  0  0  0
   -5.7735    2.4356    2.2322 O   0  0  0  0  0  0  0  0  0  0  0  0
   -8.2274    2.4417    1.4743 O   0  0  0  0  0  0  0  0  0  0  0  0
   -4.5014    2.2684   -1.6511 C   0  0  2  0  0  0  0  0  0  0  0  0
   -4.9469    2.8798   -2.7952 O   0  0  0  0  0  0  0  0  0  0  0  0
   -3.5936    0.9709   -3.1377 H   0  0  0  0  0  0  0  0  0  0  0  0
   -2.0227    1.5505   -1.3597 H   0  0  0  0  0  0  0  0  0  0  0  0
   -2.9570    0.6657   -0.1456 H   0  0  0  0  0  0  0  0  0  0  0  0
   -0.0257   -2.7309    0.2889 H   0  0  0  0  0  0  0  0  0  0  0  0
    1.3478    2.5844    0.4012 H   0  0  0  0  0  0  0  0  0  0  0  0
    3.8964   -0.9156    1.2140 H   0  0  0  0  0  0  0  0  0  0  0  0
    2.9009   -2.0586    0.1849 H   0  0  0  0  0  0  0  0  0  0  0  0
    4.8541   -2.3321   -1.3391 H   0  0  0  0  0  0  0  0  0  0  0  0
    7.4769   -2.0997   -1.1353 H   0  0  0  0  0  0  0  0  0  0  0  0
    9.4818   -1.8468    1.1237 H   0  0  0  0  0  0  0  0  0  0  0  0
   11.2399   -0.1163    1.4908 H   0  0  0  0  0  0  0  0  0  0  0  0
   10.9536    2.1377    0.5838 H   0  0  0  0  0  0  0  0  0  0  0  0
    7.1485    0.8986   -1.0481 H   0  0  0  0  0  0  0  0  0  0  0  0
   10.4566    3.9176   -0.2782 H   0  0  0  0  0  0  0  0  0  0  0  0
    6.9402   -1.7844    1.8759 H   0  0  0  0  0  0  0  0  0  0  0  0
    7.6775   -4.0275    0.2271 H   0  0  0  0  0  0  0  0  0  0  0  0
    4.8744   -2.9896    1.5624 H   0  0  0  0  0  0  0  0  0  0  0  0
    5.7260   -3.9937   -0.9726 H   0  0  0  0  0  0  0  0  0  0  0  0
   -6.7694    0.7883   -2.2031 H   0  0  0  0  0  0  0  0  0  0  0  0
   -4.9890   -0.8652    0.8077 H   0  0  0  0  0  0  0  0  0  0  0  0
   -9.6775   -4.0790    1.6356 H   0  0  0  0  0  0  0  0  0  0  0  0
   -9.8456   -2.6605    2.7737 H   0  0  0  0  0  0  0  0  0  0  0  0
  -10.8988   -0.6391   -1.7926 H   0  0  0  0  0  0  0  0  0  0  0  0
   -5.1014    1.4710    0.2099 H   0  0  0  0  0  0  0  0  0  0  0  0
   -7.4316    5.1703    0.5541 H   0  0  0  0  0  0  0  0  0  0  0  0
   -5.4774    3.0912    2.9079 H   0  0  0  0  0  0  0  0  0  0  0  0
   -3.7152    2.8543   -1.1515 H   0  0  0  0  0  0  0  0  0  0  0  0
   -4.7033    3.8460   -2.7221 H   0  0  0  0  0  0  0  0  0  0  0  0
  1  2  1  0
  2  3  1  0
  3  4  1  0
  4  5  1  0
  4  6  2  0
  4  7  1  0
  7  8  1  0
  8  9  1  0
  8 10  2  0
  8 11  1  0
 11 12  1  0
 12 13  1  0
 13 14  1  0
 14 15  1  0
 15 16  1  0
 16 17  2  0
 17 18  1  0
 18 19  2  0
 19 20  1  0
 20 21  2  0
 20 22  1  0
 22 23  1  0
 22 24  2  3
 15 25  1  0
 25 26  1  0
 25 27  1  0
 27 28  1  0
  1 29  1  0
 29 30  1  0
 30 31  1  0
 31 32  1  0
 32 33  2  0
 33 34  1  0
 34 35  2  0
 35 36  1  0
 35 37  1  0
 37 38  2  0
 38 39  1  0
 39 40  2  0
 30 41  1  0
 41 42  1  0
 42 43  1  0
 43 44  1  0
 43 45  1  0
 43 46  2  0
 41 47  1  0
 47 48  1  0
 47  1  1  0
 27 13  1  0
 40 31  1  0
 21 16  1  0
 40 34  1  0
  1 49  1  6
  2 50  1  0
  2 51  1  0
  5 52  1  0
  9 53  1  0
 12 54  1  0
 12 55  1  0
 13 56  1  6
 15 57  1  6
 17 58  1  0
 18 59  1  0
 19 60  1  0
 21 61  1  0
 24 62  1  0
 25 63  1  1
 26 64  1  0
 27 65  1  1
 28 66  1  0
 30 67  1  6
 32 68  1  0
 36 69  1  0
 36 70  1  0
 38 71  1  0
 41 72  1  1
 44 73  1  0
 45 74  1  0
 47 75  1  1
 48 76  1  0
M  CHG  2  16   1  23  -1
M  END
$$$$
