@<TRIPOS>MOLECULE
*****
 76 80 0 0 0
SMALL
GASTEIGER

@<TRIPOS>ATOM
      1 C          -3.9109    0.9328   -2.0627 C.3     1  UNL1        0.1134
      2 C          -2.6865    0.6649   -1.2169 C.3     1  UNL1        0.0879
      3 O          -2.0660   -0.5147   -1.5498 O.3     1  UNL1       -0.2837
      4 P          -0.7108   -0.7443   -0.5654 P.3     1  UNL1        0.4835
      5 O          -0.2953   -2.3895   -0.6049 O.3     1  UNL1       -0.3022
      6 O          -0.9947   -0.2524    0.8167 O.2     1  UNL1       -0.2269
      7 O           0.5502    0.1963   -1.2098 O.3     1  UNL1       -0.1861
      8 P           1.8078    0.4194   -0.1098 P.3     1  UNL1        0.4835
      9 O           2.1197    2.0971   -0.0027 O.3     1  UNL1       -0.3022
     10 O           1.4915   -0.1024    1.2659 O.2     1  UNL1       -0.2269
     11 O           3.2560   -0.2783   -0.6591 O.3     1  UNL1       -0.2837
     12 C           3.6946   -1.2683    0.1926 C.3     1  UNL1        0.0880
     13 C           5.0007   -1.8822   -0.3234 C.3     1  UNL1        0.1177
     14 O           5.9519   -0.8743   -0.3958 O.3     1  UNL1       -0.3094
     15 C           7.1741   -1.5359   -0.2210 C.3     1  UNL1        0.2949
     16 N           8.2215   -0.5459    0.0114 N.ar    1  UNL1       -0.1733
     17 C           9.3453   -0.8388    0.7135 C.ar    1  UNL1        0.1738
     18 C          10.3365    0.1203    0.9260 C.ar    1  UNL1        0.0027
     19 C          10.1844    1.4052    0.4149 C.ar    1  UNL1       -0.0436
     20 C           9.0146    1.6096   -0.2823 C.ar    1  UNL1        0.0342
     21 C           8.0364    0.6931   -0.5021 C.ar    1  UNL1        0.1806
     22 C           8.7949    2.9370   -0.8439 C.2     1  UNL1       -0.0955
     23 S           7.3304    3.3889   -1.7823 S.3     1  UNL1       -0.7393
     24 N           9.5485    3.9824   -0.7880 N.2     1  UNL1       -0.3298
     25 C           6.9098   -2.4089    0.9631 C.3     1  UNL1        0.1727
     26 O           7.7566   -3.5074    1.0656 O.3     1  UNL1       -0.3803
     27 C           5.5001   -2.9084    0.6566 C.3     1  UNL1        0.1184
     28 O           5.6098   -4.1460    0.0063 O.3     1  UNL1       -0.3862
     29 O          -4.8783   -0.0258   -1.9640 O.3     1  UNL1       -0.3456
     30 C          -6.0293    0.5477   -1.4367 C.3     1  UNL1        0.1675
     31 N          -6.6160   -0.3668   -0.4757 N.ar    1  UNL1       -0.2855
     32 C          -6.0419   -0.9946    0.5652 C.ar    1  UNL1        0.1004
     33 N          -6.9561   -1.7700    1.2175 N.ar    1  UNL1       -0.2306
     34 C          -8.1441   -1.6494    0.5970 C.ar    1  UNL1        0.1473
     35 C          -9.4225   -2.1464    0.7448 C.ar    1  UNL1        0.1472
     36 N          -9.6716   -3.0453    1.8173 N.pl3   1  UNL1       -0.3413
     37 N         -10.4176   -1.7997   -0.0945 N.ar    1  UNL1       -0.2188
     38 C         -10.1324   -0.9453   -1.0950 C.ar    1  UNL1        0.1205
     39 N          -8.9083   -0.4259   -1.2933 N.ar    1  UNL1       -0.2159
     40 C          -7.9190   -0.7738   -0.4546 C.ar    1  UNL1        0.1674
     41 C          -5.5887    1.8098   -0.7309 C.3     1  UNL1        0.1433
     42 O          -6.5657    2.6785   -0.4423 O.3     1  UNL1       -0.2762
     43 P          -6.8785    3.0851    1.1264 P.3     1  UNL1        0.4728
     44 O          -7.1184    4.7397    1.3949 O.3     1  UNL1       -0.3026
     45 O          -5.7735    2.4356    2.2322 O.3     1  UNL1       -0.3026
     46 O          -8.2274    2.4417    1.4743 O.2     1  UNL1       -0.2275
     47 C          -4.5014    2.2684   -1.6511 C.3     1  UNL1        0.1144
     48 O          -4.9469    2.8798   -2.7952 O.3     1  UNL1       -0.3864
     49 H          -3.5936    0.9709   -3.1377 H       1  UNL1        0.0647
     50 H          -2.0227    1.5505   -1.3597 H       1  UNL1        0.0592
     51 H          -2.9570    0.6657   -0.1456 H       1  UNL1        0.0592
     52 H          -0.0257   -2.7309    0.2889 H       1  UNL1        0.2220
     53 H           1.3478    2.5844    0.4012 H       1  UNL1        0.2220
     54 H           3.8964   -0.9156    1.2140 H       1  UNL1        0.0592
     55 H           2.9009   -2.0586    0.1849 H       1  UNL1        0.0592
     56 H           4.8541   -2.3321   -1.3391 H       1  UNL1        0.0648
     57 H           7.4769   -2.0997   -1.1353 H       1  UNL1        0.1444
     58 H           9.4818   -1.8468    1.1237 H       1  UNL1        0.1377
     59 H          11.2399   -0.1163    1.4908 H       1  UNL1        0.0677
     60 H          10.9536    2.1377    0.5838 H       1  UNL1        0.0627
     61 H           7.1485    0.8986   -1.0481 H       1  UNL1        0.1383
     62 H          10.4566    3.9176   -0.2782 H       1  UNL1        0.1840
     63 H           6.9402   -1.7844    1.8759 H       1  UNL1        0.0716
     64 H           7.6775   -4.0275    0.2271 H       1  UNL1        0.2103
     65 H           4.8744   -2.9896    1.5624 H       1  UNL1        0.0649
     66 H           5.7260   -3.9937   -0.9726 H       1  UNL1        0.2100
     67 H          -6.7694    0.7883   -2.2031 H       1  UNL1        0.0867
     68 H          -4.9890   -0.8652    0.8077 H       1  UNL1        0.1030
     69 H          -9.6775   -4.0790    1.6356 H       1  UNL1        0.1438
     70 H          -9.8456   -2.6605    2.7737 H       1  UNL1        0.1438
     71 H         -10.8988   -0.6391   -1.7926 H       1  UNL1        0.1048
     72 H          -5.1014    1.4710    0.2099 H       1  UNL1        0.0674
     73 H          -7.4316    5.1703    0.5541 H       1  UNL1        0.2220
     74 H          -5.4774    3.0912    2.9079 H       1  UNL1        0.2220
     75 H          -3.7152    2.8543   -1.1515 H       1  UNL1        0.0648
     76 H          -4.7033    3.8460   -2.7221 H       1  UNL1        0.2100
@<TRIPOS>UNITY_ATOM_ATTR
16 1
charge 1
23 1
charge -1
@<TRIPOS>BOND
     1     1     2    1
     2     2     3    1
     3     3     4    1
     4     4     5    1
     5     4     6    2
     6     4     7    1
     7     7     8    1
     8     8     9    1
     9     8    10    2
    10     8    11    1
    11    11    12    1
    12    12    13    1
    13    13    14    1
    14    14    15    1
    15    15    16    1
    16    16    17   ar
    17    17    18   ar
    18    18    19   ar
    19    19    20   ar
    20    20    21   ar
    21    20    22    1
    22    22    23    1
    23    22    24    2
    24    15    25    1
    25    25    26    1
    26    25    27    1
    27    27    28    1
    28     1    29    1
    29    29    30    1
    30    30    31    1
    31    31    32   ar
    32    32    33   ar
    33    33    34   ar
    34    34    35   ar
    35    35    36    1
    36    35    37   ar
    37    37    38   ar
    38    38    39   ar
    39    39    40   ar
    40    30    41    1
    41    41    42    1
    42    42    43    1
    43    43    44    1
    44    43    45    1
    45    43    46    2
    46    41    47    1
    47    47    48    1
    48    47     1    1
    49    27    13    1
    50    40    31   ar
    51    21    16   ar
    52    40    34   ar
    53     1    49    1
    54     2    50    1
    55     2    51    1
    56     5    52    1
    57     9    53    1
    58    12    54    1
    59    12    55    1
    60    13    56    1
    61    15    57    1
    62    17    58    1
    63    18    59    1
    64    19    60    1
    65    21    61    1
    66    24    62    1
    67    25    63    1
    68    26    64    1
    69    27    65    1
    70    28    66    1
    71    30    67    1
    72    32    68    1
    73    36    69    1
    74    36    70    1
    75    38    71    1
    76    41    72    1
    77    44    73    1
    78    45    74    1
    79    47    75    1
    80    48    76    1
