@<TRIPOS>MOLECULE
*****
 62 65 0 0 0
SMALL
GASTEIGER

@<TRIPOS>ATOM
      1 C           9.9373    1.1227    0.8803 C.3     1  UNL1        0.0788
      2 O           9.2682    0.9796   -0.3577 O.3     1  UNL1       -0.4951
      3 C           7.9714    0.4863   -0.3345 C.ar    1  UNL1        0.1201
      4 C           7.3332    0.1400    0.8378 C.ar    1  UNL1       -0.0194
      5 C           6.0441   -0.3499    0.8570 C.ar    1  UNL1       -0.0506
      6 C           5.3303   -0.5153   -0.3207 C.ar    1  UNL1       -0.0177
      7 C           3.9634   -1.0370   -0.2766 C.ar    1  UNL1       -0.0178
      8 C           3.4449   -1.7921   -1.3060 C.ar    1  UNL1       -0.0522
      9 C           2.1399   -2.2837   -1.2529 C.ar    1  UNL1       -0.0348
     10 C           1.3289   -2.0185   -0.1492 C.ar    1  UNL1        0.1053
     11 S          -0.2844   -2.6803   -0.1643 S.O2    1  UNL1        0.0591
     12 O          -0.2870   -4.0480   -0.7918 O.2     1  UNL1       -0.1530
     13 O          -0.8022   -2.7409    1.2521 O.2     1  UNL1       -0.1530
     14 N          -1.3170   -1.6089   -1.0293 N.3     1  UNL1       -0.1759
     15 C          -1.3255   -0.3209   -0.3125 C.3     1  UNL1        0.1281
     16 C          -0.7380    0.6845   -1.2400 C.2     1  UNL1        0.3238
     17 O          -0.5387    1.8898   -0.9582 O.2     1  UNL1       -0.2492
     18 O          -0.3548    0.3210   -2.5492 O.3     1  UNL1       -0.4795
     19 C          -2.7339   -0.0034    0.1137 C.3     1  UNL1       -0.0134
     20 C          -2.7639    1.2954    0.8548 C.3     1  UNL1       -0.0434
     21 C          -4.1681    1.6012    1.3667 C.3     1  UNL1        0.0017
     22 C          -5.2102    1.0393    0.4185 C.3     1  UNL1        0.1700
     23 C          -4.5985    1.1286   -0.9850 C.3     1  UNL1        0.0017
     24 C          -3.6148   -0.0048   -1.1047 C.3     1  UNL1       -0.0434
     25 O          -6.3408    1.8361    0.3994 O.3     1  UNL1       -0.3485
     26 C          -7.2660    1.5190    1.3649 C.3     1  UNL1        0.0530
     27 C          -7.8049    0.1258    1.0670 C.3     1  UNL1       -0.0057
     28 C          -6.7056   -0.7281    0.5014 C.3     1  UNL1        0.0530
     29 O          -5.4442   -0.2647    0.7830 O.3     1  UNL1       -0.3485
     30 C           1.8342   -1.2685    0.8810 C.ar    1  UNL1       -0.0348
     31 C           3.1475   -0.7870    0.8026 C.ar    1  UNL1       -0.0522
     32 C           5.9547   -0.1742   -1.4927 C.ar    1  UNL1       -0.0506
     33 C           7.2410    0.3143   -1.5076 C.ar    1  UNL1       -0.0194
     34 H           9.3259    1.8165    1.5177 H       1  UNL1        0.0660
     35 H          10.9748    1.4701    0.7664 H       1  UNL1        0.0660
     36 H           9.8641    0.1272    1.3857 H       1  UNL1        0.0660
     37 H           7.8629    0.2553    1.7940 H       1  UNL1        0.0654
     38 H           5.5327   -0.6256    1.7755 H       1  UNL1        0.0625
     39 H           4.0855   -1.9887   -2.1538 H       1  UNL1        0.0624
     40 H           1.7455   -2.8733   -2.0644 H       1  UNL1        0.0637
     41 H          -1.0402   -1.5004   -2.0094 H       1  UNL1        0.1489
     42 H          -0.7031   -0.3325    0.5794 H       1  UNL1        0.0595
     43 H           0.0524    1.0028   -3.1744 H       1  UNL1        0.2951
     44 H          -3.0754   -0.8349    0.7666 H       1  UNL1        0.0322
     45 H          -2.1189    1.1998    1.7508 H       1  UNL1        0.0270
     46 H          -2.4018    2.1609    0.2776 H       1  UNL1        0.0270
     47 H          -4.3650    1.2364    2.3704 H       1  UNL1        0.0317
     48 H          -4.2756    2.7009    1.3585 H       1  UNL1        0.0317
     49 H          -5.3988    1.0836   -1.7484 H       1  UNL1        0.0317
     50 H          -4.0253    2.0781   -1.0022 H       1  UNL1        0.0317
     51 H          -3.0352    0.1416   -2.0420 H       1  UNL1        0.0270
     52 H          -4.1885   -0.9440   -1.2391 H       1  UNL1        0.0270
     53 H          -6.7798    1.5538    2.3616 H       1  UNL1        0.0561
     54 H          -8.0752    2.2838    1.3103 H       1  UNL1        0.0561
     55 H          -8.2748   -0.3103    1.9742 H       1  UNL1        0.0310
     56 H          -8.5745    0.2492    0.2729 H       1  UNL1        0.0310
     57 H          -6.8189   -0.9121   -0.5894 H       1  UNL1        0.0561
     58 H          -6.7966   -1.7372    0.9856 H       1  UNL1        0.0561
     59 H           1.2233   -1.0609    1.7395 H       1  UNL1        0.0637
     60 H           3.5316   -0.1945    1.6273 H       1  UNL1        0.0624
     61 H           5.3755   -0.3115   -2.4149 H       1  UNL1        0.0625
     62 H           7.7327    0.5823   -2.4232 H       1  UNL1        0.0654
@<TRIPOS>BOND
     1     1     2    1
     2     2     3    1
     3     3     4   ar
     4     4     5   ar
     5     5     6   ar
     6     6     7    1
     7     7     8   ar
     8     8     9   ar
     9     9    10   ar
    10    10    11    1
    11    11    12    2
    12    11    13    2
    13    11    14    1
    14    14    15    1
    15    15    16    1
    16    16    17    2
    17    16    18    1
    18    15    19    1
    19    19    20    1
    20    20    21    1
    21    21    22    1
    22    22    23    1
    23    23    24    1
    24    22    25    1
    25    25    26    1
    26    26    27    1
    27    27    28    1
    28    28    29    1
    29    10    30   ar
    30    30    31   ar
    31     6    32   ar
    32    32    33   ar
    33    33     3   ar
    34    31     7   ar
    35    24    19    1
    36    29    22    1
    37     1    34    1
    38     1    35    1
    39     1    36    1
    40     4    37    1
    41     5    38    1
    42     8    39    1
    43     9    40    1
    44    14    41    1
    45    15    42    1
    46    18    43    1
    47    19    44    1
    48    20    45    1
    49    20    46    1
    50    21    47    1
    51    21    48    1
    52    23    49    1
    53    23    50    1
    54    24    51    1
    55    24    52    1
    56    26    53    1
    57    26    54    1
    58    27    55    1
    59    27    56    1
    60    28    57    1
    61    28    58    1
    62    30    59    1
    63    31    60    1
    64    32    61    1
    65    33    62    1
