
     RDKit          3D

 46 48  0  0  0  0  0  0  0  0999 V2000
    7.0634    2.7275    0.1851 C   0  0  0  0  0  0  0  0  0  0  0  0
    6.2284    1.6034   -0.3449 C   0  0  0  0  0  0  0  0  0  0  0  0
    6.6339    0.9787   -1.5157 C   0  0  0  0  0  0  0  0  0  0  0  0
    5.9093   -0.0548   -2.0464 C   0  0  0  0  0  0  0  0  0  0  0  0
    4.7478   -0.4726   -1.3856 C   0  0  0  0  0  0  0  0  0  0  0  0
    4.3284    0.1298   -0.2280 C   0  0  0  0  0  0  0  0  0  0  0  0
    3.1268   -0.2924    0.4680 C   0  0  0  0  0  0  0  0  0  0  0  0
    2.8014    0.3196    1.5424 O   0  0  0  0  0  0  0  0  0  0  0  0
    2.3035   -1.3497    0.0080 N   0  0  0  0  0  0  0  0  0  0  0  0
    1.1417   -1.7024    0.7486 C   0  0  0  0  0  0  0  0  0  0  0  0
    1.1471   -2.6422    1.7585 C   0  0  0  0  0  0  0  0  0  0  0  0
   -0.0305   -2.9356    2.4401 C   0  0  0  0  0  0  0  0  0  0  0  0
   -1.2284   -2.3013    2.1296 C   0  0  0  0  0  0  0  0  0  0  0  0
   -1.1914   -1.3716    1.1173 C   0  0  0  0  0  0  0  0  0  0  0  0
   -2.3948   -0.6713    0.7374 N   0  0  0  0  0  0  0  0  0  0  0  0
   -3.2490   -1.1964   -0.2656 C   0  0  0  0  0  0  0  0  0  0  0  0
   -2.9360   -2.2821   -0.8150 O   0  0  0  0  0  0  0  0  0  0  0  0
   -4.4502   -0.4560   -0.6150 C   0  0  0  0  0  0  0  0  0  0  0  0
   -5.2639   -1.0067   -1.6066 C   0  0  0  0  0  0  0  0  0  0  0  0
   -6.4274   -0.4004   -2.0246 C   0  0  0  0  0  0  0  0  0  0  0  0
   -6.7827    0.7990   -1.4247 C   0  0  0  0  0  0  0  0  0  0  0  0
   -6.0134    1.3822   -0.4424 C   0  0  0  0  0  0  0  0  0  0  0  0
   -6.4009    2.6663    0.1946 C   0  0  0  0  0  0  0  0  0  0  0  0
   -4.8473    0.7160   -0.0654 C   0  0  0  0  0  0  0  0  0  0  0  0
   -0.0455   -1.0579    0.4236 C   0  0  0  0  0  0  0  0  0  0  0  0
    5.0964    1.1783    0.2773 C   0  0  0  0  0  0  0  0  0  0  0  0
    7.9671    2.3739    0.6832 H   0  0  0  0  0  0  0  0  0  0  0  0
    6.4471    3.3306    0.8657 H   0  0  0  0  0  0  0  0  0  0  0  0
    7.3425    3.4020   -0.6660 H   0  0  0  0  0  0  0  0  0  0  0  0
    7.5383    1.3193   -2.0117 H   0  0  0  0  0  0  0  0  0  0  0  0
    6.1944   -0.5663   -2.9577 H   0  0  0  0  0  0  0  0  0  0  0  0
    4.1760   -1.2900   -1.8066 H   0  0  0  0  0  0  0  0  0  0  0  0
    2.5183   -1.8751   -0.8493 H   0  0  0  0  0  0  0  0  0  0  0  0
    2.0679   -3.1403    2.0087 H   0  0  0  0  0  0  0  0  0  0  0  0
   -0.0599   -3.6684    3.2381 H   0  0  0  0  0  0  0  0  0  0  0  0
   -2.1446   -2.5377    2.6686 H   0  0  0  0  0  0  0  0  0  0  0  0
   -2.5616    0.2178    1.2530 H   0  0  0  0  0  0  0  0  0  0  0  0
   -4.9754   -1.9443   -2.0677 H   0  0  0  0  0  0  0  0  0  0  0  0
   -7.0667   -0.8070   -2.7849 H   0  0  0  0  0  0  0  0  0  0  0  0
   -7.6898    1.3273   -1.7107 H   0  0  0  0  0  0  0  0  0  0  0  0
   -6.9790    2.5018    1.1302 H   0  0  0  0  0  0  0  0  0  0  0  0
   -6.9860    3.3126   -0.4874 H   0  0  0  0  0  0  0  0  0  0  0  0
   -5.4886    3.2428    0.5223 H   0  0  0  0  0  0  0  0  0  0  0  0
   -4.2488    1.1702    0.6992 H   0  0  0  0  0  0  0  0  0  0  0  0
   -0.0781   -0.3201   -0.3604 H   0  0  0  0  0  0  0  0  0  0  0  0
    4.7604    1.6435    1.1835 H   0  0  0  0  0  0  0  0  0  0  0  0
  1  2  1  0
  2  3  2  0
  3  4  1  0
  4  5  2  0
  5  6  1  0
  6  7  1  0
  7  8  2  0
  7  9  1  0
  9 10  1  0
 10 11  2  0
 11 12  1  0
 12 13  2  0
 13 14  1  0
 14 15  1  0
 15 16  1  0
 16 17  2  0
 16 18  1  0
 18 19  2  0
 19 20  1  0
 20 21  2  0
 21 22  1  0
 22 23  1  0
 22 24  2  0
 14 25  2  0
  6 26  2  0
 26  2  1  0
 25 10  1  0
 24 18  1  0
  1 27  1  0
  1 28  1  0
  1 29  1  0
  3 30  1  0
  4 31  1  0
  5 32  1  0
  9 33  1  0
 11 34  1  0
 12 35  1  0
 13 36  1  0
 15 37  1  0
 19 38  1  0
 20 39  1  0
 21 40  1  0
 23 41  1  0
 23 42  1  0
 23 43  1  0
 24 44  1  0
 25 45  1  0
 26 46  1  0
M  END
$$$$
