@<TRIPOS>MOLECULE
*****
 46 48 0 0 0
SMALL
GASTEIGER

@<TRIPOS>ATOM
      1 C           7.0634    2.7275    0.1851 C.3     1  UNL1       -0.0397
      2 C           6.2284    1.6034   -0.3449 C.ar    1  UNL1       -0.0497
      3 C           6.6339    0.9787   -1.5157 C.ar    1  UNL1       -0.0588
      4 C           5.9093   -0.0548   -2.0464 C.ar    1  UNL1       -0.0608
      5 C           4.7478   -0.4726   -1.3856 C.ar    1  UNL1       -0.0496
      6 C           4.3284    0.1298   -0.2280 C.ar    1  UNL1        0.0373
      7 C           3.1268   -0.2924    0.4680 C.2     1  UNL1        0.2483
      8 O           2.8014    0.3196    1.5424 O.2     1  UNL1       -0.2699
      9 N           2.3035   -1.3497    0.0080 N.am    1  UNL1       -0.2814
     10 C           1.1417   -1.7024    0.7486 C.ar    1  UNL1        0.0354
     11 C           1.1471   -2.6422    1.7585 C.ar    1  UNL1       -0.0404
     12 C          -0.0305   -2.9356    2.4401 C.ar    1  UNL1       -0.0583
     13 C          -1.2284   -2.3013    2.1296 C.ar    1  UNL1       -0.0404
     14 C          -1.1914   -1.3716    1.1173 C.ar    1  UNL1        0.0354
     15 N          -2.3948   -0.6713    0.7374 N.am    1  UNL1       -0.2814
     16 C          -3.2490   -1.1964   -0.2656 C.2     1  UNL1        0.2483
     17 O          -2.9360   -2.2821   -0.8150 O.2     1  UNL1       -0.2699
     18 C          -4.4502   -0.4560   -0.6150 C.ar    1  UNL1        0.0373
     19 C          -5.2639   -1.0067   -1.6066 C.ar    1  UNL1       -0.0496
     20 C          -6.4274   -0.4004   -2.0246 C.ar    1  UNL1       -0.0608
     21 C          -6.7827    0.7990   -1.4247 C.ar    1  UNL1       -0.0588
     22 C          -6.0134    1.3822   -0.4424 C.ar    1  UNL1       -0.0497
     23 C          -6.4009    2.6663    0.1946 C.3     1  UNL1       -0.0397
     24 C          -4.8473    0.7160   -0.0654 C.ar    1  UNL1       -0.0467
     25 C          -0.0455   -1.0579    0.4236 C.ar    1  UNL1       -0.0192
     26 C           5.0964    1.1783    0.2773 C.ar    1  UNL1       -0.0467
     27 H           7.9671    2.3739    0.6832 H       1  UNL1        0.0278
     28 H           6.4471    3.3306    0.8657 H       1  UNL1        0.0278
     29 H           7.3425    3.4020   -0.6660 H       1  UNL1        0.0278
     30 H           7.5383    1.3193   -2.0117 H       1  UNL1        0.0620
     31 H           6.1944   -0.5663   -2.9577 H       1  UNL1        0.0618
     32 H           4.1760   -1.2900   -1.8066 H       1  UNL1        0.0625
     33 H           2.5183   -1.8751   -0.8493 H       1  UNL1        0.1551
     34 H           2.0679   -3.1403    2.0087 H       1  UNL1        0.0636
     35 H          -0.0599   -3.6684    3.2381 H       1  UNL1        0.0619
     36 H          -2.1446   -2.5377    2.6686 H       1  UNL1        0.0636
     37 H          -2.5616    0.2178    1.2530 H       1  UNL1        0.1551
     38 H          -4.9754   -1.9443   -2.0677 H       1  UNL1        0.0625
     39 H          -7.0667   -0.8070   -2.7849 H       1  UNL1        0.0618
     40 H          -7.6898    1.3273   -1.7107 H       1  UNL1        0.0620
     41 H          -6.9790    2.5018    1.1302 H       1  UNL1        0.0278
     42 H          -6.9860    3.3126   -0.4874 H       1  UNL1        0.0278
     43 H          -5.4886    3.2428    0.5223 H       1  UNL1        0.0278
     44 H          -4.2488    1.1702    0.6992 H       1  UNL1        0.0628
     45 H          -0.0781   -0.3201   -0.3604 H       1  UNL1        0.0655
     46 H           4.7604    1.6435    1.1835 H       1  UNL1        0.0628
@<TRIPOS>BOND
     1     1     2    1
     2     2     3   ar
     3     3     4   ar
     4     4     5   ar
     5     5     6   ar
     6     6     7    1
     7     7     8    2
     8     7     9   am
     9     9    10    1
    10    10    11   ar
    11    11    12   ar
    12    12    13   ar
    13    13    14   ar
    14    14    15    1
    15    15    16   am
    16    16    17    2
    17    16    18    1
    18    18    19   ar
    19    19    20   ar
    20    20    21   ar
    21    21    22   ar
    22    22    23    1
    23    22    24   ar
    24    14    25   ar
    25     6    26   ar
    26    26     2   ar
    27    25    10   ar
    28    24    18   ar
    29     1    27    1
    30     1    28    1
    31     1    29    1
    32     3    30    1
    33     4    31    1
    34     5    32    1
    35     9    33    1
    36    11    34    1
    37    12    35    1
    38    13    36    1
    39    15    37    1
    40    19    38    1
    41    20    39    1
    42    21    40    1
    43    23    41    1
    44    23    42    1
    45    23    43    1
    46    24    44    1
    47    25    45    1
    48    26    46    1
