
     RDKit          3D

 56 57  0  0  0  0  0  0  0  0999 V2000
    1.4372   -0.4342   -0.2733 C   0  0  2  0  0  0  0  0  0  0  0  0
    1.7335   -1.8269   -0.5581 C   0  0  0  0  0  0  0  0  0  0  0  0
    2.9732   -2.4828   -0.1450 C   0  0  0  0  0  0  0  0  0  0  0  0
    4.2069   -1.8252   -0.7262 C   0  0  0  0  0  0  0  0  0  0  0  0
    3.0196   -3.9214   -0.7171 C   0  0  0  0  0  0  0  0  0  0  0  0
    1.3582    0.0926    1.0978 C   0  0  0  0  0  0  0  0  0  0  0  0
    2.5956   -0.0091    1.9100 C   0  0  0  0  0  0  0  0  0  0  0  0
    3.7990   -0.3219    2.1076 O   0  0  0  0  0  0  0  0  0  0  0  0
    2.3103    0.5501    3.2046 N   0  0  0  0  0  0  0  0  0  0  0  0
    3.2442    0.6150    4.2087 O   0  0  0  0  0  0  0  0  0  0  0  0
    0.1453   -0.1100   -0.9956 C   0  0  0  0  0  0  0  0  0  0  0  0
   -0.2526   -1.1609   -1.6075 O   0  0  0  0  0  0  0  0  0  0  0  0
   -0.5697    1.1153   -1.0416 N   0  0  0  0  0  0  0  0  0  0  0  0
   -1.7559    1.1720   -1.7881 C   0  0  1  0  0  0  0  0  0  0  0  0
   -3.0437    1.5073   -1.1671 C   0  0  0  0  0  0  0  0  0  0  0  0
   -3.4235    0.5487   -0.0974 C   0  0  0  0  0  0  0  0  0  0  0  0
   -4.3476   -0.4862   -0.1764 C   0  0  0  0  0  0  0  0  0  0  0  0
   -4.4674   -1.1898    0.9624 N   0  0  0  0  0  0  0  0  0  0  0  0
   -3.6163   -0.6196    1.8086 C   0  0  0  0  0  0  0  0  0  0  0  0
   -3.3275   -0.9328    3.1235 C   0  0  0  0  0  0  0  0  0  0  0  0
   -2.3866   -0.1946    3.8478 C   0  0  0  0  0  0  0  0  0  0  0  0
   -1.7442    0.8662    3.2150 C   0  0  0  0  0  0  0  0  0  0  0  0
   -2.0237    1.1978    1.8844 C   0  0  0  0  0  0  0  0  0  0  0  0
   -2.9579    0.4392    1.2168 C   0  0  0  0  0  0  0  0  0  0  0  0
   -1.5165    2.0405   -2.9961 C   0  0  0  0  0  0  0  0  0  0  0  0
   -2.4624    2.2254   -3.8065 O   0  0  0  0  0  0  0  0  0  0  0  0
   -0.2719    2.6411   -3.2323 N   0  0  0  0  0  0  0  0  0  0  0  0
    0.1092    3.4895   -4.3283 C   0  0  0  0  0  0  0  0  0  0  0  0
    2.1763    0.2419   -0.8153 H   0  0  0  0  0  0  0  0  0  0  0  0
    1.6632   -1.9629   -1.6849 H   0  0  0  0  0  0  0  0  0  0  0  0
    0.8778   -2.4952   -0.2190 H   0  0  0  0  0  0  0  0  0  0  0  0
    3.1430   -2.6368    0.9151 H   0  0  0  0  0  0  0  0  0  0  0  0
    5.0030   -1.7572    0.0365 H   0  0  0  0  0  0  0  0  0  0  0  0
    4.5995   -2.3664   -1.6107 H   0  0  0  0  0  0  0  0  0  0  0  0
    3.9113   -0.8076   -1.0972 H   0  0  0  0  0  0  0  0  0  0  0  0
    2.2908   -4.5691   -0.2064 H   0  0  0  0  0  0  0  0  0  0  0  0
    2.7985   -3.7854   -1.7936 H   0  0  0  0  0  0  0  0  0  0  0  0
    4.0550   -4.2601   -0.5996 H   0  0  0  0  0  0  0  0  0  0  0  0
    1.1544    1.1987    1.0131 H   0  0  0  0  0  0  0  0  0  0  0  0
    0.4687   -0.2559    1.6736 H   0  0  0  0  0  0  0  0  0  0  0  0
    1.4970    0.9969    3.7203 H   0  0  0  0  0  0  0  0  0  0  0  0
    3.9448    1.2800    3.9371 H   0  0  0  0  0  0  0  0  0  0  0  0
   -0.0720    1.8374   -0.4767 H   0  0  0  0  0  0  0  0  0  0  0  0
   -1.9100    0.1493   -2.2470 H   0  0  0  0  0  0  0  0  0  0  0  0
   -3.8101    1.3934   -1.9744 H   0  0  0  0  0  0  0  0  0  0  0  0
   -3.1777    2.5585   -0.8534 H   0  0  0  0  0  0  0  0  0  0  0  0
   -4.9003   -0.6768   -1.0893 H   0  0  0  0  0  0  0  0  0  0  0  0
   -5.1017   -1.9974    1.1032 H   0  0  0  0  0  0  0  0  0  0  0  0
   -3.8121   -1.7599    3.6541 H   0  0  0  0  0  0  0  0  0  0  0  0
   -2.1665   -0.4463    4.8774 H   0  0  0  0  0  0  0  0  0  0  0  0
   -1.0059    1.4432    3.7894 H   0  0  0  0  0  0  0  0  0  0  0  0
   -1.5165    2.0161    1.4270 H   0  0  0  0  0  0  0  0  0  0  0  0
    0.5253    2.4890   -2.5554 H   0  0  0  0  0  0  0  0  0  0  0  0
   -0.6531    3.5256   -5.1361 H   0  0  0  0  0  0  0  0  0  0  0  0
    0.1992    4.5408   -3.9605 H   0  0  0  0  0  0  0  0  0  0  0  0
    1.0533    3.1212   -4.7581 H   0  0  0  0  0  0  0  0  0  0  0  0
  1  2  1  0
  2  3  1  0
  3  4  1  0
  3  5  1  0
  1  6  1  0
  6  7  1  0
  7  8  2  0
  7  9  1  0
  9 10  1  0
  1 11  1  0
 11 12  2  0
 11 13  1  0
 13 14  1  0
 14 15  1  0
 15 16  1  0
 16 17  2  0
 17 18  1  0
 18 19  1  0
 19 20  2  0
 20 21  1  0
 21 22  2  0
 22 23  1  0
 23 24  2  0
 14 25  1  0
 25 26  2  0
 25 27  1  0
 27 28  1  0
 24 16  1  0
 24 19  1  0
  1 29  1  6
  2 30  1  0
  2 31  1  0
  3 32  1  0
  4 33  1  0
  4 34  1  0
  4 35  1  0
  5 36  1  0
  5 37  1  0
  5 38  1  0
  6 39  1  0
  6 40  1  0
  9 41  1  0
 10 42  1  0
 13 43  1  0
 14 44  1  6
 15 45  1  0
 15 46  1  0
 17 47  1  0
 18 48  1  0
 20 49  1  0
 21 50  1  0
 22 51  1  0
 23 52  1  0
 27 53  1  0
 28 54  1  0
 28 55  1  0
 28 56  1  0
M  END
$$$$
