
     RDKit          3D

 59 62  0  0  0  0  0  0  0  0999 V2000
    1.0687   -0.3782    0.5241 N   0  0  0  0  0  0  0  0  0  0  0  0
    0.8332    0.8050   -0.2728 C   0  0  0  0  0  0  0  0  0  0  0  0
   -0.6310    0.9233   -0.5426 C   0  0  0  0  0  0  0  0  0  0  0  0
   -0.9984    1.9481   -1.1924 O   0  0  0  0  0  0  0  0  0  0  0  0
   -1.4993   -0.0809   -0.0746 N   0  0  0  0  0  0  0  0  0  0  0  0
   -2.9178    0.0344   -0.3357 C   0  0  0  0  0  0  0  0  0  0  0  0
   -3.6029    0.1588    1.0093 C   0  0  0  0  0  0  0  0  0  0  0  0
   -5.1018    0.2859    0.8641 C   0  0  0  0  0  0  0  0  0  0  0  0
   -5.7860    0.4257    2.5073 S   0  0  0  0  0  6  0  0  0  0  0  0
   -5.0779    1.8554    3.2190 N   0  0  0  0  0  0  0  0  0  0  0  0
   -5.4099   -0.7423    3.3686 O   0  0  0  0  0  0  0  0  0  0  0  0
   -7.2658    0.5278    2.4282 O   0  0  0  0  0  0  0  0  0  0  0  0
   -3.4202   -1.0900   -1.1250 C   0  0  0  0  0  0  0  0  0  0  0  0
   -4.2735   -0.8819   -2.1806 C   0  0  0  0  0  0  0  0  0  0  0  0
   -4.7268   -1.9871   -2.9086 C   0  0  0  0  0  0  0  0  0  0  0  0
   -4.3448   -3.2746   -2.6005 C   0  0  0  0  0  0  0  0  0  0  0  0
   -4.9380   -4.6516   -3.5438 Cl  0  0  0  0  0  0  0  0  0  0  0  0
   -3.4899   -3.4680   -1.5408 C   0  0  0  0  0  0  0  0  0  0  0  0
   -3.0380   -2.3735   -0.8157 C   0  0  0  0  0  0  0  0  0  0  0  0
    1.5595    0.7336   -1.6023 C   0  0  0  0  0  0  0  0  0  0  0  0
    3.0001    1.0737   -1.3733 C   0  0  0  0  0  0  0  0  0  0  0  0
    3.3504    1.0440    0.0393 N   0  0  0  0  0  0  0  0  0  0  0  0
    4.3490    0.1567    0.4336 C   0  0  0  0  0  0  0  0  0  0  0  0
    4.1159   -0.8023    1.3311 N   0  0  0  0  0  0  0  0  0  0  0  0
    5.0908   -1.6551    1.7062 C   0  0  0  0  0  0  0  0  0  0  0  0
    6.3361   -1.5904    1.2054 N   0  0  0  0  0  0  0  0  0  0  0  0
    6.5991   -0.6390    0.3036 C   0  0  0  0  0  0  0  0  0  0  0  0
    7.7121   -0.3273   -0.3588 N   0  0  0  0  0  0  0  0  0  0  0  0
    7.5235    0.7160   -1.1764 C   0  0  0  0  0  0  0  0  0  0  0  0
    6.2073    1.0808   -1.0151 C   0  0  0  0  0  0  0  0  0  0  0  0
    5.6238    0.2467   -0.0991 C   0  0  0  0  0  0  0  0  0  0  0  0
    2.6513    1.9266    0.9245 C   0  0  0  0  0  0  0  0  0  0  0  0
    1.2197    2.0257    0.5179 C   0  0  0  0  0  0  0  0  0  0  0  0
    0.5740   -0.2710    1.4222 H   0  0  0  0  0  0  0  0  0  0  0  0
    0.8574   -1.2335   -0.0029 H   0  0  0  0  0  0  0  0  0  0  0  0
   -1.1069   -0.9142    0.4651 H   0  0  0  0  0  0  0  0  0  0  0  0
   -3.0774    1.0054   -0.8736 H   0  0  0  0  0  0  0  0  0  0  0  0
   -3.2231    1.0467    1.5502 H   0  0  0  0  0  0  0  0  0  0  0  0
   -3.4011   -0.7184    1.6574 H   0  0  0  0  0  0  0  0  0  0  0  0
   -5.2884    1.2717    0.3692 H   0  0  0  0  0  0  0  0  0  0  0  0
   -5.5504   -0.5549    0.3246 H   0  0  0  0  0  0  0  0  0  0  0  0
   -4.1319    1.5712    3.5518 H   0  0  0  0  0  0  0  0  0  0  0  0
   -4.9326    2.5393    2.4435 H   0  0  0  0  0  0  0  0  0  0  0  0
   -4.6139    0.0972   -2.4788 H   0  0  0  0  0  0  0  0  0  0  0  0
   -5.4039   -1.8203   -3.7460 H   0  0  0  0  0  0  0  0  0  0  0  0
   -3.1839   -4.4717   -1.2893 H   0  0  0  0  0  0  0  0  0  0  0  0
   -2.3668   -2.5936    0.0070 H   0  0  0  0  0  0  0  0  0  0  0  0
    1.1003    1.5001   -2.2643 H   0  0  0  0  0  0  0  0  0  0  0  0
    1.3988   -0.2980   -1.9894 H   0  0  0  0  0  0  0  0  0  0  0  0
    3.6086    0.3707   -1.9785 H   0  0  0  0  0  0  0  0  0  0  0  0
    3.1908    2.1322   -1.7147 H   0  0  0  0  0  0  0  0  0  0  0  0
    4.8807   -2.4301    2.4395 H   0  0  0  0  0  0  0  0  0  0  0  0
    8.6464   -0.8168   -0.2777 H   0  0  0  0  0  0  0  0  0  0  0  0
    8.2261    1.1890   -1.8290 H   0  0  0  0  0  0  0  0  0  0  0  0
    5.7301    1.9025   -1.5417 H   0  0  0  0  0  0  0  0  0  0  0  0
    2.6790    1.5354    1.9797 H   0  0  0  0  0  0  0  0  0  0  0  0
    3.0689    2.9586    0.9058 H   0  0  0  0  0  0  0  0  0  0  0  0
    0.5201    2.0714    1.3872 H   0  0  0  0  0  0  0  0  0  0  0  0
    1.0803    2.9050   -0.1464 H   0  0  0  0  0  0  0  0  0  0  0  0
  1  2  1  0
  2  3  1  0
  3  4  2  0
  3  5  1  0
  5  6  1  0
  6  7  1  0
  7  8  1  0
  8  9  1  0
  9 10  1  0
  9 11  2  0
  9 12  2  0
  6 13  1  0
 13 14  2  0
 14 15  1  0
 15 16  2  0
 16 17  1  0
 16 18  1  0
 18 19  2  0
  2 20  1  0
 20 21  1  0
 21 22  1  0
 22 23  1  0
 23 24  2  0
 24 25  1  0
 25 26  2  0
 26 27  1  0
 27 28  1  0
 28 29  1  0
 29 30  2  0
 30 31  1  0
 22 32  1  0
 32 33  1  0
 33  2  1  0
 19 13  1  0
 31 23  1  0
 31 27  2  0
  1 34  1  0
  1 35  1  0
  5 36  1  0
  6 37  1  0
  7 38  1  0
  7 39  1  0
  8 40  1  0
  8 41  1  0
 10 42  1  0
 10 43  1  0
 14 44  1  0
 15 45  1  0
 18 46  1  0
 19 47  1  0
 20 48  1  0
 20 49  1  0
 21 50  1  0
 21 51  1  0
 25 52  1  0
 28 53  1  0
 29 54  1  0
 30 55  1  0
 32 56  1  0
 32 57  1  0
 33 58  1  0
 33 59  1  0
M  END
$$$$
