@<TRIPOS>MOLECULE
*****
 59 62 0 0 0
SMALL
GASTEIGER

@<TRIPOS>ATOM
      1 N           1.0687   -0.3782    0.5241 N.3     1  UNL1       -0.3173
      2 C           0.8332    0.8050   -0.2728 C.3     1  UNL1        0.0965
      3 C          -0.6310    0.9233   -0.5426 C.2     1  UNL1        0.2336
      4 O          -0.9984    1.9481   -1.1924 O.2     1  UNL1       -0.2738
      5 N          -1.4993   -0.0809   -0.0746 N.am    1  UNL1       -0.3069
      6 C          -2.9178    0.0344   -0.3357 C.3     1  UNL1        0.0499
      7 C          -3.6029    0.1588    1.0093 C.3     1  UNL1       -0.0095
      8 C          -5.1018    0.2859    0.8641 C.3     1  UNL1        0.0835
      9 S          -5.7860    0.4257    2.5073 S.O2    1  UNL1        0.0270
     10 N          -5.0779    1.8554    3.2190 N.3     1  UNL1       -0.2081
     11 O          -5.4099   -0.7423    3.3686 O.2     1  UNL1       -0.1584
     12 O          -7.2658    0.5278    2.4282 O.2     1  UNL1       -0.1584
     13 C          -3.4202   -1.0900   -1.1250 C.ar    1  UNL1       -0.0271
     14 C          -4.2735   -0.8819   -2.1806 C.ar    1  UNL1       -0.0554
     15 C          -4.7268   -1.9871   -2.9086 C.ar    1  UNL1       -0.0431
     16 C          -4.3448   -3.2746   -2.6005 C.ar    1  UNL1        0.0410
     17 CL         -4.9380   -4.6516   -3.5438 Cl      1  UNL1       -0.0835
     18 C          -3.4899   -3.4680   -1.5408 C.ar    1  UNL1       -0.0431
     19 C          -3.0380   -2.3735   -0.8157 C.ar    1  UNL1       -0.0554
     20 C           1.5595    0.7336   -1.6023 C.3     1  UNL1       -0.0104
     21 C           3.0001    1.0737   -1.3733 C.3     1  UNL1        0.0156
     22 N           3.3504    1.0440    0.0393 N.pl3   1  UNL1       -0.3144
     23 C           4.3490    0.1567    0.4336 C.ar    1  UNL1        0.1337
     24 N           4.1159   -0.8023    1.3311 N.ar    1  UNL1       -0.2200
     25 C           5.0908   -1.6551    1.7062 C.ar    1  UNL1        0.1204
     26 N           6.3361   -1.5904    1.2054 N.ar    1  UNL1       -0.2178
     27 C           6.5991   -0.6390    0.3036 C.ar    1  UNL1        0.1432
     28 N           7.7121   -0.3273   -0.3588 N.ar    1  UNL1       -0.3457
     29 C           7.5235    0.7160   -1.1764 C.ar    1  UNL1        0.0042
     30 C           6.2073    1.0808   -1.0151 C.ar    1  UNL1       -0.0318
     31 C           5.6238    0.2467   -0.0991 C.ar    1  UNL1        0.0585
     32 C           2.6513    1.9266    0.9245 C.3     1  UNL1        0.0156
     33 C           1.2197    2.0257    0.5179 C.3     1  UNL1       -0.0104
     34 H           0.5740   -0.2710    1.4222 H       1  UNL1        0.1192
     35 H           0.8574   -1.2335   -0.0029 H       1  UNL1        0.1192
     36 H          -1.1069   -0.9142    0.4651 H       1  UNL1        0.1493
     37 H          -3.0774    1.0054   -0.8736 H       1  UNL1        0.0549
     38 H          -3.2231    1.0467    1.5502 H       1  UNL1        0.0302
     39 H          -3.4011   -0.7184    1.6574 H       1  UNL1        0.0302
     40 H          -5.2884    1.2717    0.3692 H       1  UNL1        0.0516
     41 H          -5.5504   -0.5549    0.3246 H       1  UNL1        0.0516
     42 H          -4.1319    1.5712    3.5518 H       1  UNL1        0.1438
     43 H          -4.9326    2.5393    2.4435 H       1  UNL1        0.1438
     44 H          -4.6139    0.0972   -2.4788 H       1  UNL1        0.0621
     45 H          -5.4039   -1.8203   -3.7460 H       1  UNL1        0.0632
     46 H          -3.1839   -4.4717   -1.2893 H       1  UNL1        0.0632
     47 H          -2.3668   -2.5936    0.0070 H       1  UNL1        0.0621
     48 H           1.1003    1.5001   -2.2643 H       1  UNL1        0.0303
     49 H           1.3988   -0.2980   -1.9894 H       1  UNL1        0.0303
     50 H           3.6086    0.3707   -1.9785 H       1  UNL1        0.0465
     51 H           3.1908    2.1322   -1.7147 H       1  UNL1        0.0465
     52 H           4.8807   -2.4301    2.4395 H       1  UNL1        0.1048
     53 H           8.6464   -0.8168   -0.2777 H       1  UNL1        0.1668
     54 H           8.2261    1.1890   -1.8290 H       1  UNL1        0.0807
     55 H           5.7301    1.9025   -1.5417 H       1  UNL1        0.0640
     56 H           2.6790    1.5354    1.9797 H       1  UNL1        0.0465
     57 H           3.0689    2.9586    0.9058 H       1  UNL1        0.0465
     58 H           0.5201    2.0714    1.3872 H       1  UNL1        0.0303
     59 H           1.0803    2.9050   -0.1464 H       1  UNL1        0.0303
@<TRIPOS>BOND
     1     1     2    1
     2     2     3    1
     3     3     4    2
     4     3     5   am
     5     5     6    1
     6     6     7    1
     7     7     8    1
     8     8     9    1
     9     9    10    1
    10     9    11    2
    11     9    12    2
    12     6    13    1
    13    13    14   ar
    14    14    15   ar
    15    15    16   ar
    16    16    17    1
    17    16    18   ar
    18    18    19   ar
    19     2    20    1
    20    20    21    1
    21    21    22    1
    22    22    23    1
    23    23    24   ar
    24    24    25   ar
    25    25    26   ar
    26    26    27   ar
    27    27    28   ar
    28    28    29   ar
    29    29    30   ar
    30    30    31   ar
    31    22    32    1
    32    32    33    1
    33    33     2    1
    34    19    13   ar
    35    31    23   ar
    36    31    27   ar
    37     1    34    1
    38     1    35    1
    39     5    36    1
    40     6    37    1
    41     7    38    1
    42     7    39    1
    43     8    40    1
    44     8    41    1
    45    10    42    1
    46    10    43    1
    47    14    44    1
    48    15    45    1
    49    18    46    1
    50    19    47    1
    51    20    48    1
    52    20    49    1
    53    21    50    1
    54    21    51    1
    55    25    52    1
    56    28    53    1
    57    29    54    1
    58    30    55    1
    59    32    56    1
    60    32    57    1
    61    33    58    1
    62    33    59    1
