@<TRIPOS>MOLECULE
*****
 44 47 0 0 0
SMALL
GASTEIGER

@<TRIPOS>ATOM
      1 C          -2.3822    0.7565    1.9275 C.3     1  UNL1       -0.0351
      2 C          -2.7481    0.1911    0.4379 C.3     1  UNL1        0.0940
      3 C          -1.6251   -0.7802    0.3536 C.ar    1  UNL1        0.0158
      4 C          -0.3844   -0.3822   -0.1011 C.ar    1  UNL1       -0.0463
      5 C           0.7475   -1.1786   -0.0007 C.ar    1  UNL1       -0.0217
      6 C           2.0714   -0.7631   -0.3164 C.2     1  UNL1       -0.0172
      7 C           2.9284   -0.4468   -1.0994 C.2     1  UNL1        0.1492
      8 F           2.5214   -0.4485   -2.4748 F       1  UNL1       -0.2032
      9 C           4.2728    0.0222   -0.8046 C.ar    1  UNL1        0.0990
     10 C           4.7449    0.1148    0.4900 C.ar    1  UNL1       -0.0322
     11 C           5.9889    0.6139    0.7751 C.ar    1  UNL1       -0.0408
     12 C           6.8176    1.0352   -0.2321 C.ar    1  UNL1        0.0699
     13 C           8.0612    1.6503    0.0314 C.1     1  UNL1        0.1007
     14 N           9.1614    2.2182    0.2717 N.1     1  UNL1       -0.1908
     15 C           6.3291    0.9282   -1.5232 C.ar    1  UNL1        0.0457
     16 N           5.1120    0.4393   -1.7579 N.ar    1  UNL1       -0.2514
     17 C           0.5682   -2.4524    0.5827 C.ar    1  UNL1       -0.0518
     18 C          -0.6293   -2.8731    1.0289 C.ar    1  UNL1       -0.0255
     19 C          -1.7411   -2.0231    0.9174 C.ar    1  UNL1        0.1289
     20 F          -2.8782   -2.5177    1.4206 F       1  UNL1       -0.2051
     21 N          -2.4881    1.4006   -0.3086 N.2     1  UNL1       -0.2521
     22 C          -3.0802    1.7292   -1.3789 C.2     1  UNL1        0.1490
     23 N          -2.8780    2.8784   -2.1180 N.pl3   1  UNL1       -0.3380
     24 S          -4.3562    0.6163   -1.9662 S.3     1  UNL1       -0.0689
     25 C          -5.0950   -0.0294   -0.4445 C.3     1  UNL1        0.1153
     26 C          -6.4207    0.4122   -0.1082 C.1     1  UNL1        0.0808
     27 N          -7.5483    0.8035    0.1631 N.1     1  UNL1       -0.1951
     28 C          -4.7102   -1.4415   -0.1259 C.3     1  UNL1       -0.0169
     29 C          -4.0964   -0.3219    0.5977 C.3     1  UNL1        0.0185
     30 H          -2.2478   -0.0795    2.5909 H       1  UNL1        0.0256
     31 H          -3.1908    1.4358    2.2100 H       1  UNL1        0.0256
     32 H          -1.4026    1.2261    1.7395 H       1  UNL1        0.0256
     33 H          -0.2848    0.5920   -0.5478 H       1  UNL1        0.0628
     34 H           2.5801   -0.6902    0.8182 H       1  UNL1        0.0653
     35 H           4.1610   -0.2006    1.3720 H       1  UNL1        0.0640
     36 H           6.3427    0.6687    1.7909 H       1  UNL1        0.0631
     37 H           6.9753    1.2484   -2.2940 H       1  UNL1        0.0843
     38 H           1.4834   -3.0676    0.6325 H       1  UNL1        0.0624
     39 H          -0.7262   -3.8541    1.4823 H       1  UNL1        0.0646
     40 H          -2.0726    3.5587   -1.9584 H       1  UNL1        0.1442
     41 H          -3.5053    3.2140   -2.9023 H       1  UNL1        0.1442
     42 H          -5.5384   -2.0204    0.4036 H       1  UNL1        0.0293
     43 H          -4.2834   -2.0205   -0.9342 H       1  UNL1        0.0293
     44 H          -4.5539   -0.1620    1.6490 H       1  UNL1        0.0352
@<TRIPOS>BOND
     1     2     1    1
     2     2     3    1
     3     3     4   ar
     4     4     5   ar
     5     5     6    1
     6     6     7    2
     7     7     8    1
     8     7     9    1
     9     9    10   ar
    10    10    11   ar
    11    11    12   ar
    12    12    13    1
    13    13    14    3
    14    12    15   ar
    15    15    16   ar
    16     5    17   ar
    17    17    18   ar
    18    18    19   ar
    19    19    20    1
    20     2    21    1
    21    21    22    2
    22    22    23    1
    23    22    24    1
    24    24    25    1
    25    25    26    1
    26    26    27    3
    27    25    28    1
    28    28    29    1
    29    29     2    1
    30    19     3   ar
    31    29    25    1
    32    16     9   ar
    33     1    30    1
    34     1    31    1
    35     1    32    1
    36     4    33    1
    37     6    34    1
    38    10    35    1
    39    11    36    1
    40    15    37    1
    41    17    38    1
    42    18    39    1
    43    23    40    1
    44    23    41    1
    45    28    42    1
    46    28    43    1
    47    29    44    1
