
     RDKit          3D

 58 60  0  0  0  0  0  0  0  0999 V2000
    8.3281    4.4307    0.0737 C   0  0  0  0  0  0  0  0  0  0  0  0
    7.4902    3.6427    0.1937 C   0  0  0  0  0  0  0  0  0  0  0  0
    6.6661    2.8868    0.3232 C   0  0  0  0  0  0  0  0  0  0  0  0
    7.0377    1.7082    1.3133 C   0  0  0  0  0  0  0  0  0  0  0  0
    6.0219    0.9638    1.6533 C   0  0  0  0  0  0  0  0  0  0  0  0
    4.7811    0.9644    1.3719 C   0  0  0  0  0  0  0  0  0  0  0  0
    4.3069    2.0801    0.3866 C   0  0  0  0  0  0  0  0  0  0  0  0
    3.0993    1.6479   -0.1832 N   0  0  0  0  0  0  0  0  0  0  0  0
    3.4312    0.3134   -0.8569 C   0  0  0  0  0  0  0  0  0  0  0  0
    4.6237    0.1106   -1.3253 N   0  0  0  0  0  0  0  0  0  0  0  0
    5.0439   -1.1347   -1.8555 C   0  0  0  0  0  0  0  0  0  0  0  0
    4.0551   -2.0799   -1.8366 N   0  0  0  0  0  0  0  0  0  0  0  0
    2.9069   -1.9328   -1.3920 C   0  0  0  0  0  0  0  0  0  0  0  0
    1.8649   -2.8289   -1.2500 C   0  0  0  0  0  0  0  0  0  0  0  0
    0.7063   -2.8440   -0.8010 C   0  0  0  0  0  0  0  0  0  0  0  0
   -0.3652   -3.6864   -0.5378 O   0  0  0  0  0  0  0  0  0  0  0  0
   -0.2042   -5.0771   -0.7196 C   0  0  0  0  0  0  0  0  0  0  0  0
    0.2375   -1.4543   -0.2129 C   0  0  0  0  0  0  0  0  0  0  0  0
   -0.9374   -1.3733    0.2816 O   0  0  0  0  0  0  0  0  0  0  0  0
   -1.7203   -0.4554    0.9678 C   0  0  0  0  0  0  0  0  0  0  0  0
   -3.1799   -0.9411    0.8159 C   0  0  0  0  0  0  0  0  0  0  0  0
   -4.0440   -0.1268    1.6478 C   0  0  0  0  0  0  0  0  0  0  0  0
   -5.5631   -0.4526    1.3974 C   0  0  0  0  0  0  0  0  0  0  0  0
   -5.6783   -0.2099   -0.0399 C   0  0  0  0  0  0  0  0  0  0  0  0
   -6.8930    0.1183   -0.7802 C   0  0  0  0  0  0  0  0  0  0  0  0
   -7.4316    1.5650   -0.5442 C   0  0  0  0  0  0  0  0  0  0  0  0
   -8.4856    1.7783    0.1040 O   0  0  0  0  0  0  0  0  0  0  0  0
   -6.6550    2.6215   -1.0865 N   0  0  0  0  0  0  0  0  0  0  0  0
   -6.8277    3.9062   -1.0960 O   0  0  0  0  0  0  0  0  0  0  0  0
    1.2948   -0.5764   -0.3581 C   0  0  0  0  0  0  0  0  0  0  0  0
    2.4629   -0.5571   -0.7992 C   0  0  0  0  0  0  0  0  0  0  0  0
    5.2843    2.8501    0.0120 C   0  0  0  0  0  0  0  0  0  0  0  0
    9.4502    5.4686   -0.0768 H   0  0  0  0  0  0  0  0  0  0  0  0
    8.0428    1.6719    1.5474 H   0  0  0  0  0  0  0  0  0  0  0  0
    6.3839    0.0892    2.3808 H   0  0  0  0  0  0  0  0  0  0  0  0
    3.8751    0.4783    1.6722 H   0  0  0  0  0  0  0  0  0  0  0  0
    2.1863    1.9856   -0.2864 H   0  0  0  0  0  0  0  0  0  0  0  0
    6.0563   -1.2701   -2.0481 H   0  0  0  0  0  0  0  0  0  0  0  0
    2.2721   -3.8392   -1.7527 H   0  0  0  0  0  0  0  0  0  0  0  0
   -0.6982   -5.5373    0.1961 H   0  0  0  0  0  0  0  0  0  0  0  0
    0.9300   -5.2780   -0.4728 H   0  0  0  0  0  0  0  0  0  0  0  0
   -0.5350   -5.5750   -1.6180 H   0  0  0  0  0  0  0  0  0  0  0  0
   -1.5618    0.6040    0.7761 H   0  0  0  0  0  0  0  0  0  0  0  0
   -1.4596   -0.7130    2.0732 H   0  0  0  0  0  0  0  0  0  0  0  0
   -3.4090   -0.7795   -0.3149 H   0  0  0  0  0  0  0  0  0  0  0  0
   -3.2466   -2.0092    0.9705 H   0  0  0  0  0  0  0  0  0  0  0  0
   -3.8617    0.0066    2.7101 H   0  0  0  0  0  0  0  0  0  0  0  0
   -4.0455    0.9770    1.2270 H   0  0  0  0  0  0  0  0  0  0  0  0
   -6.1879    0.0091    2.0851 H   0  0  0  0  0  0  0  0  0  0  0  0
   -5.6156   -1.5730    1.5859 H   0  0  0  0  0  0  0  0  0  0  0  0
   -4.8539    0.4442   -0.4835 H   0  0  0  0  0  0  0  0  0  0  0  0
   -5.2969   -1.2375   -0.5364 H   0  0  0  0  0  0  0  0  0  0  0  0
   -7.7714   -0.5129   -0.4212 H   0  0  0  0  0  0  0  0  0  0  0  0
   -6.7416    0.0050   -1.8583 H   0  0  0  0  0  0  0  0  0  0  0  0
   -5.7299    2.2460   -1.5472 H   0  0  0  0  0  0  0  0  0  0  0  0
   -5.9515    4.4175   -1.1061 H   0  0  0  0  0  0  0  0  0  0  0  0
    1.0932    0.3560    0.3492 H   0  0  0  0  0  0  0  0  0  0  0  0
    5.0186    3.7082   -0.7306 H   0  0  0  0  0  0  0  0  0  0  0  0
  1  2  3  0
  2  3  1  0
  3  4  2  0
  4  5  1  0
  5  6  2  0
  6  7  1  0
  7  8  1  0
  8  9  1  0
  9 10  2  0
 10 11  1  0
 11 12  2  0
 12 13  1  0
 13 14  2  0
 14 15  1  0
 15 16  1  0
 16 17  1  0
 15 18  2  0
 18 19  1  0
 19 20  1  0
 20 21  1  0
 21 22  1  0
 22 23  1  0
 23 24  1  0
 24 25  1  0
 25 26  1  0
 26 27  2  0
 26 28  1  0
 28 29  1  0
 18 30  1  0
 30 31  2  0
  7 32  2  0
 32  3  1  0
 31  9  1  0
 31 13  1  0
  1 33  1  0
  4 34  1  0
  5 35  1  0
  6 36  1  0
  8 37  1  0
 11 38  1  0
 14 39  1  0
 17 40  1  0
 17 41  1  0
 17 42  1  0
 20 43  1  0
 20 44  1  0
 21 45  1  0
 21 46  1  0
 22 47  1  0
 22 48  1  0
 23 49  1  0
 23 50  1  0
 24 51  1  0
 24 52  1  0
 25 53  1  0
 25 54  1  0
 28 55  1  0
 29 56  1  0
 30 57  1  0
 32 58  1  0
M  END
$$$$
