@<TRIPOS>MOLECULE
*****
 58 60 0 0 0
SMALL
GASTEIGER

@<TRIPOS>ATOM
      1 C           8.3281    4.4307    0.0737 C.1     1  UNL1       -0.1139
      2 C           7.4902    3.6427    0.1937 C.1     1  UNL1       -0.0696
      3 C           6.6661    2.8868    0.3232 C.ar    1  UNL1        0.0264
      4 C           7.0377    1.7082    1.3133 C.ar    1  UNL1       -0.0462
      5 C           6.0219    0.9638    1.6533 C.ar    1  UNL1       -0.0589
      6 C           4.7811    0.9644    1.3719 C.ar    1  UNL1       -0.0404
      7 C           4.3069    2.0801    0.3866 C.ar    1  UNL1        0.0335
      8 N           3.0993    1.6479   -0.1832 N.pl3   1  UNL1       -0.2988
      9 C           3.4312    0.3134   -0.8569 C.ar    1  UNL1        0.1340
     10 N           4.6237    0.1106   -1.3253 N.ar    1  UNL1       -0.2200
     11 C           5.0439   -1.1347   -1.8555 C.ar    1  UNL1        0.1187
     12 N           4.0551   -2.0799   -1.8366 N.ar    1  UNL1       -0.2352
     13 C           2.9069   -1.9328   -1.3920 C.ar    1  UNL1        0.0797
     14 C           1.8649   -2.8289   -1.2500 C.ar    1  UNL1        0.0098
     15 C           0.7063   -2.8440   -0.8010 C.ar    1  UNL1        0.1636
     16 O          -0.3652   -3.6864   -0.5378 O.3     1  UNL1       -0.4914
     17 C          -0.2042   -5.0771   -0.7196 C.3     1  UNL1        0.0790
     18 C           0.2375   -1.4543   -0.2129 C.ar    1  UNL1        0.1627
     19 O          -0.9374   -1.3733    0.2816 O.3     1  UNL1       -0.4883
     20 C          -1.7203   -0.4554    0.9678 C.3     1  UNL1        0.0898
     21 C          -3.1799   -0.9411    0.8159 C.3     1  UNL1       -0.0186
     22 C          -4.0440   -0.1268    1.6478 C.3     1  UNL1       -0.0500
     23 C          -5.5631   -0.4526    1.3974 C.3     1  UNL1       -0.0525
     24 C          -5.6783   -0.2099   -0.0399 C.3     1  UNL1       -0.0447
     25 C          -6.8930    0.1183   -0.7802 C.3     1  UNL1        0.0259
     26 C          -7.4316    1.5650   -0.5442 C.2     1  UNL1        0.2354
     27 O          -8.4856    1.7783    0.1040 O.2     1  UNL1       -0.2737
     28 N          -6.6550    2.6215   -1.0865 N.am    1  UNL1       -0.1975
     29 O          -6.8277    3.9062   -1.0960 O.3     1  UNL1       -0.2952
     30 C           1.2948   -0.5764   -0.3581 C.ar    1  UNL1       -0.0038
     31 C           2.4629   -0.5571   -0.7992 C.ar    1  UNL1        0.0441
     32 C           5.2843    2.8501    0.0120 C.ar    1  UNL1       -0.0251
     33 H           9.4502    5.4686   -0.0768 H       1  UNL1        0.1232
     34 H           8.0428    1.6719    1.5474 H       1  UNL1        0.0630
     35 H           6.3839    0.0892    2.3808 H       1  UNL1        0.0619
     36 H           3.8751    0.4783    1.6722 H       1  UNL1        0.0636
     37 H           2.1863    1.9856   -0.2864 H       1  UNL1        0.1536
     38 H           6.0563   -1.2701   -2.0481 H       1  UNL1        0.1048
     39 H           2.2721   -3.8392   -1.7527 H       1  UNL1        0.0677
     40 H          -0.6982   -5.5373    0.1961 H       1  UNL1        0.0660
     41 H           0.9300   -5.2780   -0.4728 H       1  UNL1        0.0660
     42 H          -0.5350   -5.5750   -1.6180 H       1  UNL1        0.0660
     43 H          -1.5618    0.6040    0.7761 H       1  UNL1        0.0696
     44 H          -1.4596   -0.7130    2.0732 H       1  UNL1        0.0696
     45 H          -3.4090   -0.7795   -0.3149 H       1  UNL1        0.0298
     46 H          -3.2466   -2.0092    0.9705 H       1  UNL1        0.0298
     47 H          -3.8617    0.0066    2.7101 H       1  UNL1        0.0266
     48 H          -4.0455    0.9770    1.2270 H       1  UNL1        0.0266
     49 H          -6.1879    0.0091    2.0851 H       1  UNL1        0.0265
     50 H          -5.6156   -1.5730    1.5859 H       1  UNL1        0.0265
     51 H          -4.8539    0.4442   -0.4835 H       1  UNL1        0.0270
     52 H          -5.2969   -1.2375   -0.5364 H       1  UNL1        0.0270
     53 H          -7.7714   -0.5129   -0.4212 H       1  UNL1        0.0359
     54 H          -6.7416    0.0050   -1.8583 H       1  UNL1        0.0359
     55 H          -5.7299    2.2460   -1.5472 H       1  UNL1        0.1822
     56 H          -5.9515    4.4175   -1.1061 H       1  UNL1        0.2414
     57 H           1.0932    0.3560    0.3492 H       1  UNL1        0.0663
     58 H           5.0186    3.7082   -0.7306 H       1  UNL1        0.0648
@<TRIPOS>BOND
     1     1     2    3
     2     2     3    1
     3     3     4   ar
     4     4     5   ar
     5     5     6   ar
     6     6     7   ar
     7     7     8    1
     8     8     9    1
     9     9    10   ar
    10    10    11   ar
    11    11    12   ar
    12    12    13   ar
    13    13    14   ar
    14    14    15   ar
    15    15    16    1
    16    16    17    1
    17    15    18   ar
    18    18    19    1
    19    19    20    1
    20    20    21    1
    21    21    22    1
    22    22    23    1
    23    23    24    1
    24    24    25    1
    25    25    26    1
    26    26    27    2
    27    26    28   am
    28    28    29    1
    29    18    30   ar
    30    30    31   ar
    31     7    32   ar
    32    32     3   ar
    33    31     9   ar
    34    31    13   ar
    35     1    33    1
    36     4    34    1
    37     5    35    1
    38     6    36    1
    39     8    37    1
    40    11    38    1
    41    14    39    1
    42    17    40    1
    43    17    41    1
    44    17    42    1
    45    20    43    1
    46    20    44    1
    47    21    45    1
    48    21    46    1
    49    22    47    1
    50    22    48    1
    51    23    49    1
    52    23    50    1
    53    24    51    1
    54    24    52    1
    55    25    53    1
    56    25    54    1
    57    28    55    1
    58    29    56    1
    59    30    57    1
    60    32    58    1
