@<TRIPOS>MOLECULE
*****
 17 17 0 0 0
SMALL
GASTEIGER

@<TRIPOS>ATOM
      1 O           3.8850    0.0103   -0.0200 O.3     1  UNL1       -0.4749
      2 C           2.5557   -0.2733   -0.2733 C.2     1  UNL1        0.3776
      3 O           2.5527   -1.1899   -1.1647 O.2     1  UNL1       -0.2415
      4 C           1.5175    0.4507    0.4485 C.2     1  UNL1        0.2691
      5 O           1.8307    1.3317    1.3017 O.2     1  UNL1       -0.2797
      6 C           0.0985    0.2091    0.2356 C.ar    1  UNL1        0.0289
      7 C          -0.4246   -0.7086   -0.6501 C.ar    1  UNL1       -0.0507
      8 C          -1.7719   -0.9281   -0.8425 C.ar    1  UNL1       -0.0611
      9 C          -2.6829   -0.1960   -0.1148 C.ar    1  UNL1       -0.0617
     10 C          -2.2247    0.7393    0.7891 C.ar    1  UNL1       -0.0611
     11 C          -0.8642    0.9085    0.9323 C.ar    1  UNL1       -0.0507
     12 H           4.6511   -0.0418   -0.6505 H       1  UNL1        0.2955
     13 H           0.2414   -1.3069   -1.2435 H       1  UNL1        0.0625
     14 H          -2.1182   -1.6707   -1.5605 H       1  UNL1        0.0618
     15 H          -3.7534   -0.3136   -0.2124 H       1  UNL1        0.0618
     16 H          -2.9327    1.3198    1.3659 H       1  UNL1        0.0618
     17 H          -0.5600    1.6596    1.6592 H       1  UNL1        0.0625
@<TRIPOS>BOND
     1     1     2    1
     2     2     3    2
     3     2     4    1
     4     4     5    2
     5     4     6    1
     6     6     7   ar
     7     7     8   ar
     8     8     9   ar
     9     9    10   ar
    10    10    11   ar
    11    11     6   ar
    12     1    12    1
    13     7    13    1
    14     8    14    1
    15     9    15    1
    16    10    16    1
    17    11    17    1
