
     RDKit          3D

 17 17  0  0  0  0  0  0  0  0999 V2000
    3.8850    0.0103   -0.0200 O   0  0  0  0  0  0  0  0  0  0  0  0
    2.5557   -0.2733   -0.2733 C   0  0  0  0  0  0  0  0  0  0  0  0
    2.5527   -1.1899   -1.1647 O   0  0  0  0  0  0  0  0  0  0  0  0
    1.5175    0.4507    0.4485 C   0  0  0  0  0  0  0  0  0  0  0  0
    1.8307    1.3317    1.3017 O   0  0  0  0  0  0  0  0  0  0  0  0
    0.0985    0.2091    0.2356 C   0  0  0  0  0  0  0  0  0  0  0  0
   -0.4246   -0.7086   -0.6501 C   0  0  0  0  0  0  0  0  0  0  0  0
   -1.7719   -0.9281   -0.8425 C   0  0  0  0  0  0  0  0  0  0  0  0
   -2.6829   -0.1960   -0.1148 C   0  0  0  0  0  0  0  0  0  0  0  0
   -2.2247    0.7393    0.7891 C   0  0  0  0  0  0  0  0  0  0  0  0
   -0.8642    0.9085    0.9323 C   0  0  0  0  0  0  0  0  0  0  0  0
    4.6511   -0.0418   -0.6505 H   0  0  0  0  0  0  0  0  0  0  0  0
    0.2414   -1.3069   -1.2435 H   0  0  0  0  0  0  0  0  0  0  0  0
   -2.1182   -1.6707   -1.5605 H   0  0  0  0  0  0  0  0  0  0  0  0
   -3.7534   -0.3136   -0.2124 H   0  0  0  0  0  0  0  0  0  0  0  0
   -2.9327    1.3198    1.3659 H   0  0  0  0  0  0  0  0  0  0  0  0
   -0.5600    1.6596    1.6592 H   0  0  0  0  0  0  0  0  0  0  0  0
  1  2  1  0
  2  3  2  0
  2  4  1  0
  4  5  2  0
  4  6  1  0
  6  7  2  0
  7  8  1  0
  8  9  2  0
  9 10  1  0
 10 11  2  0
 11  6  1  0
  1 12  1  0
  7 13  1  0
  8 14  1  0
  9 15  1  0
 10 16  1  0
 11 17  1  0
M  END
$$$$
