@<TRIPOS>MOLECULE
*****
 42 46 0 0 0
SMALL
GASTEIGER

@<TRIPOS>ATOM
      1 O           6.1803   -0.2678   -0.4774 O.3     1  UNL1       -0.5067
      2 C           5.0339   -1.0427   -0.5029 C.ar    1  UNL1        0.1175
      3 C           5.0581   -2.4130   -0.6960 C.ar    1  UNL1       -0.0201
      4 C           3.8626   -3.1258   -0.7093 C.ar    1  UNL1       -0.0576
      5 C           2.6561   -2.4698   -0.5308 C.ar    1  UNL1       -0.0508
      6 C           2.6211   -1.1073   -0.3380 C.ar    1  UNL1        0.0226
      7 C           1.3675   -0.3773   -0.1457 C.ar    1  UNL1        0.1627
      8 N           0.1796   -0.9969   -0.1466 N.ar    1  UNL1       -0.2088
      9 C          -0.9888   -0.3548    0.0273 C.ar    1  UNL1        0.1687
     10 N          -2.2203   -1.0580    0.0179 N.pl3   1  UNL1       -0.3078
     11 C          -3.2573   -0.7505   -0.9548 C.3     1  UNL1        0.0371
     12 C          -4.5928   -1.2677   -0.5338 C.3     1  UNL1        0.0634
     13 O          -4.6169   -2.5765   -0.1480 O.3     1  UNL1       -0.3767
     14 C          -3.4204   -3.1026    0.2564 C.3     1  UNL1        0.0634
     15 C          -2.5253   -2.1195    0.9674 C.3     1  UNL1        0.0371
     16 C          -0.9965    1.0118    0.2187 C.ar    1  UNL1        0.1961
     17 O          -1.9089    1.9256    0.4121 O.2     1  UNL1       -0.4317
     18 C          -1.3870    3.1132    0.5402 C.ar    1  UNL1        0.2301
     19 N          -1.9018    4.3592    0.7513 N.ar    1  UNL1       -0.2204
     20 C          -1.1054    5.4425    0.8452 C.ar    1  UNL1        0.0314
     21 C           0.2643    5.2907    0.7252 C.ar    1  UNL1       -0.0427
     22 C           0.8383    4.0540    0.5111 C.ar    1  UNL1       -0.0459
     23 C          -0.0247    2.9783    0.4232 C.ar    1  UNL1        0.0660
     24 C           0.2385    1.6387    0.2172 C.ar    1  UNL1        0.1241
     25 N           1.3593    0.9547    0.0408 N.ar    1  UNL1       -0.2233
     26 C           3.8134   -0.4170   -0.3276 C.ar    1  UNL1       -0.0095
     27 H           6.6167    0.0709    0.3795 H       1  UNL1        0.2921
     28 H           6.0189   -2.9003   -0.8333 H       1  UNL1        0.0654
     29 H           3.9424   -4.1825   -0.8626 H       1  UNL1        0.0619
     30 H           1.7375   -3.0075   -0.5396 H       1  UNL1        0.0625
     31 H          -3.3209    0.3622   -0.9959 H       1  UNL1        0.0487
     32 H          -2.9999   -1.1380   -1.9588 H       1  UNL1        0.0487
     33 H          -5.2779   -1.1669   -1.4206 H       1  UNL1        0.0575
     34 H          -5.0680   -0.6397    0.2579 H       1  UNL1        0.0575
     35 H          -3.6264   -3.9366    0.9635 H       1  UNL1        0.0575
     36 H          -2.9247   -3.5509   -0.6374 H       1  UNL1        0.0575
     37 H          -1.6333   -2.6465    1.3242 H       1  UNL1        0.0487
     38 H          -3.1058   -1.7283    1.8331 H       1  UNL1        0.0487
     39 H          -1.5181    6.4365    1.0137 H       1  UNL1        0.0831
     40 H           0.9508    6.1463    0.7952 H       1  UNL1        0.0633
     41 H           1.8858    3.8871    0.4123 H       1  UNL1        0.0626
     42 H           3.7961    0.6723   -0.1743 H       1  UNL1        0.0661
@<TRIPOS>BOND
     1     1     2    1
     2     2     3   ar
     3     3     4   ar
     4     4     5   ar
     5     5     6   ar
     6     6     7    1
     7     7     8   ar
     8     8     9   ar
     9     9    10    1
    10    10    11    1
    11    11    12    1
    12    12    13    1
    13    13    14    1
    14    14    15    1
    15     9    16   ar
    16    16    17   ar
    17    17    18   ar
    18    18    19   ar
    19    19    20   ar
    20    20    21   ar
    21    21    22   ar
    22    22    23   ar
    23    23    24   ar
    24    24    25   ar
    25     6    26   ar
    26    26     2   ar
    27    25     7   ar
    28    15    10    1
    29    24    16   ar
    30    23    18   ar
    31     1    27    1
    32     3    28    1
    33     4    29    1
    34     5    30    1
    35    11    31    1
    36    11    32    1
    37    12    33    1
    38    12    34    1
    39    14    35    1
    40    14    36    1
    41    15    37    1
    42    15    38    1
    43    20    39    1
    44    21    40    1
    45    22    41    1
    46    26    42    1
