
     RDKit          3D

 64 67  0  0  0  0  0  0  0  0999 V2000
  -10.8117   -2.2263    0.3007 C   0  0  0  0  0  0  0  0  0  0  0  0
  -10.2369   -1.2893   -0.5668 O   0  0  0  0  0  0  0  0  0  0  0  0
   -9.1844   -0.4501   -0.3097 C   0  0  0  0  0  0  0  0  0  0  0  0
   -8.7698    0.4180   -1.3155 C   0  0  0  0  0  0  0  0  0  0  0  0
   -7.7185    1.2705   -1.0748 C   0  0  0  0  0  0  0  0  0  0  0  0
   -7.0590    1.2786    0.1642 C   0  0  0  0  0  0  0  0  0  0  0  0
   -6.0067    2.2724    0.3967 C   0  0  0  0  0  0  0  0  0  0  0  0
   -4.8083    1.9561   -0.3214 N   0  0  0  0  0  0  0  0  0  0  0  0
   -4.5640    2.3258   -1.5896 N   0  0  0  0  0  0  0  0  0  0  0  0
   -3.3677    1.9026   -1.9534 C   0  0  0  0  0  0  0  0  0  0  0  0
   -2.7989    1.2208   -0.8599 C   0  0  0  0  0  0  0  0  0  0  0  0
   -1.5129    0.6469   -0.9238 N   0  0  0  0  0  0  0  0  0  0  0  0
   -0.7091    0.1856    0.1241 C   0  0  0  0  0  0  0  0  0  0  0  0
   -1.0887    0.2505    1.3042 O   0  0  0  0  0  0  0  0  0  0  0  0
    0.6250   -0.4010   -0.0957 C   0  0  0  0  0  0  0  0  0  0  0  0
    1.7828    0.2309    0.2687 C   0  0  0  0  0  0  0  0  0  0  0  0
    3.0470   -0.3700    0.0261 C   0  0  0  0  0  0  0  0  0  0  0  0
    4.2185    0.3362    0.3663 N   0  0  0  0  0  0  0  0  0  0  0  0
    5.5294   -0.1696    0.3748 C   0  0  0  0  0  0  0  0  0  0  0  0
    5.7146   -1.3752    0.1060 O   0  0  0  0  0  0  0  0  0  0  0  0
    6.6762    0.6149    0.6661 N   0  0  0  0  0  0  0  0  0  0  0  0
    7.9972    0.1517    0.6830 C   0  0  0  0  0  0  0  0  0  0  0  0
    8.3688   -1.1618    0.7045 C   0  0  0  0  0  0  0  0  0  0  0  0
    9.7137   -1.5393    0.6515 C   0  0  0  0  0  0  0  0  0  0  0  0
   10.7222   -0.6281    0.5782 C   0  0  0  0  0  0  0  0  0  0  0  0
   12.4237   -1.1183    0.5089 Cl  0  0  0  0  0  0  0  0  0  0  0  0
   10.3694    0.7115    0.5570 C   0  0  0  0  0  0  0  0  0  0  0  0
   11.4987    1.6771    0.4627 C   0  0  0  0  0  0  0  0  0  0  0  0
   11.0393    2.9799    0.4368 F   0  0  0  0  0  0  0  0  0  0  0  0
   12.2477    1.4389   -0.6956 F   0  0  0  0  0  0  0  0  0  0  0  0
   12.3677    1.4583    1.5128 F   0  0  0  0  0  0  0  0  0  0  0  0
    9.0505    1.0721    0.6092 C   0  0  0  0  0  0  0  0  0  0  0  0
    3.0656   -1.5951   -0.5824 C   0  0  0  0  0  0  0  0  0  0  0  0
    1.8839   -2.2539   -0.9615 C   0  0  0  0  0  0  0  0  0  0  0  0
    0.6905   -1.6181   -0.6983 C   0  0  0  0  0  0  0  0  0  0  0  0
   -0.5711   -2.2941   -1.1023 C   0  0  0  0  0  0  0  0  0  0  0  0
   -3.7229    1.2670    0.1459 C   0  0  0  0  0  0  0  0  0  0  0  0
   -3.6041    0.6945    1.4387 N   0  0  0  0  0  0  0  0  0  0  0  0
   -7.4906    0.4081    1.1306 C   0  0  0  0  0  0  0  0  0  0  0  0
   -8.5524   -0.4616    0.9079 C   0  0  0  0  0  0  0  0  0  0  0  0
  -11.3236   -1.6953    1.1401 H   0  0  0  0  0  0  0  0  0  0  0  0
  -11.6012   -2.7819   -0.2561 H   0  0  0  0  0  0  0  0  0  0  0  0
  -10.1118   -2.9347    0.7549 H   0  0  0  0  0  0  0  0  0  0  0  0
   -9.2865    0.4015   -2.2615 H   0  0  0  0  0  0  0  0  0  0  0  0
   -7.3968    1.9460   -1.8708 H   0  0  0  0  0  0  0  0  0  0  0  0
   -6.3666    3.3015    0.0925 H   0  0  0  0  0  0  0  0  0  0  0  0
   -5.7434    2.3170    1.5057 H   0  0  0  0  0  0  0  0  0  0  0  0
   -2.8498    2.0275   -2.9113 H   0  0  0  0  0  0  0  0  0  0  0  0
   -1.0588    0.5240   -1.8949 H   0  0  0  0  0  0  0  0  0  0  0  0
    1.7999    1.1778    0.7442 H   0  0  0  0  0  0  0  0  0  0  0  0
    4.0952    1.3613    0.6381 H   0  0  0  0  0  0  0  0  0  0  0  0
    6.4477    1.6398    0.8941 H   0  0  0  0  0  0  0  0  0  0  0  0
    7.6809   -1.9816    0.7755 H   0  0  0  0  0  0  0  0  0  0  0  0
    9.9937   -2.5977    0.6655 H   0  0  0  0  0  0  0  0  0  0  0  0
    8.8182    2.1401    0.5901 H   0  0  0  0  0  0  0  0  0  0  0  0
    4.0091   -2.1157   -0.8127 H   0  0  0  0  0  0  0  0  0  0  0  0
    1.9664   -3.2111   -1.4376 H   0  0  0  0  0  0  0  0  0  0  0  0
   -1.4211   -2.0737   -0.4505 H   0  0  0  0  0  0  0  0  0  0  0  0
   -0.3742   -3.3952   -1.0590 H   0  0  0  0  0  0  0  0  0  0  0  0
   -0.7699   -2.0583   -2.1729 H   0  0  0  0  0  0  0  0  0  0  0  0
   -3.7214   -0.3537    1.5998 H   0  0  0  0  0  0  0  0  0  0  0  0
   -3.4039    1.2776    2.2941 H   0  0  0  0  0  0  0  0  0  0  0  0
   -7.0018    0.3828    2.1138 H   0  0  0  0  0  0  0  0  0  0  0  0
   -8.8355   -1.1152    1.7138 H   0  0  0  0  0  0  0  0  0  0  0  0
  1  2  1  0
  2  3  1  0
  3  4  2  0
  4  5  1  0
  5  6  2  0
  6  7  1  0
  7  8  1  0
  8  9  1  0
  9 10  2  0
 10 11  1  0
 11 12  1  0
 12 13  1  0
 13 14  2  0
 13 15  1  0
 15 16  2  0
 16 17  1  0
 17 18  1  0
 18 19  1  0
 19 20  2  0
 19 21  1  0
 21 22  1  0
 22 23  2  0
 23 24  1  0
 24 25  2  0
 25 26  1  0
 25 27  1  0
 27 28  1  0
 28 29  1  0
 28 30  1  0
 28 31  1  0
 27 32  2  0
 17 33  2  0
 33 34  1  0
 34 35  2  0
 35 36  1  0
 11 37  2  0
 37 38  1  0
  6 39  1  0
 39 40  2  0
 40  3  1  0
 37  8  1  0
 35 15  1  0
 32 22  1  0
  1 41  1  0
  1 42  1  0
  1 43  1  0
  4 44  1  0
  5 45  1  0
  7 46  1  0
  7 47  1  0
 10 48  1  0
 12 49  1  0
 16 50  1  0
 18 51  1  0
 21 52  1  0
 23 53  1  0
 24 54  1  0
 32 55  1  0
 33 56  1  0
 34 57  1  0
 36 58  1  0
 36 59  1  0
 36 60  1  0
 38 61  1  0
 38 62  1  0
 39 63  1  0
 40 64  1  0
M  END
$$$$
