@<TRIPOS>MOLECULE
*****
 64 67 0 0 0
SMALL
GASTEIGER

@<TRIPOS>ATOM
      1 C         -10.8117   -2.2263    0.3007 C.3     1  UNL1        0.0788
      2 O         -10.2369   -1.2893   -0.5668 O.3     1  UNL1       -0.4951
      3 C          -9.1844   -0.4501   -0.3097 C.ar    1  UNL1        0.1201
      4 C          -8.7698    0.4180   -1.3155 C.ar    1  UNL1       -0.0196
      5 C          -7.7185    1.2705   -1.0748 C.ar    1  UNL1       -0.0534
      6 C          -7.0590    1.2786    0.1642 C.ar    1  UNL1       -0.0258
      7 C          -6.0067    2.2724    0.3967 C.3     1  UNL1        0.0685
      8 N          -4.8083    1.9561   -0.3214 N.ar    1  UNL1       -0.2448
      9 N          -4.5640    2.3258   -1.5896 N.ar    1  UNL1       -0.1758
     10 C          -3.3677    1.9026   -1.9534 C.ar    1  UNL1        0.0725
     11 C          -2.7989    1.2208   -0.8599 C.ar    1  UNL1        0.0933
     12 N          -1.5129    0.6469   -0.9238 N.am    1  UNL1       -0.2775
     13 C          -0.7091    0.1856    0.1241 C.2     1  UNL1        0.2487
     14 O          -1.0887    0.2505    1.3042 O.2     1  UNL1       -0.2698
     15 C           0.6250   -0.4010   -0.0957 C.ar    1  UNL1        0.0417
     16 C           1.7828    0.2309    0.2687 C.ar    1  UNL1       -0.0281
     17 C           3.0470   -0.3700    0.0261 C.ar    1  UNL1        0.0355
     18 N           4.2185    0.3362    0.3663 N.am    1  UNL1       -0.2692
     19 C           5.5294   -0.1696    0.3748 C.2     1  UNL1        0.3081
     20 O           5.7146   -1.3752    0.1060 O.2     1  UNL1       -0.2522
     21 N           6.6762    0.6149    0.6661 N.am    1  UNL1       -0.2692
     22 C           7.9972    0.1517    0.6830 C.ar    1  UNL1        0.0354
     23 C           8.3688   -1.1618    0.7045 C.ar    1  UNL1       -0.0390
     24 C           9.7137   -1.5393    0.6515 C.ar    1  UNL1       -0.0411
     25 C          10.7222   -0.6281    0.5782 C.ar    1  UNL1        0.0527
     26 CL         12.4237   -1.1183    0.5089 Cl      1  UNL1       -0.0830
     27 C          10.3694    0.7115    0.5570 C.ar    1  UNL1        0.0748
     28 C          11.4987    1.6771    0.4627 C.3     1  UNL1        0.4188
     29 F          11.0393    2.9799    0.4368 F       1  UNL1       -0.1658
     30 F          12.2477    1.4389   -0.6956 F       1  UNL1       -0.1658
     31 F          12.3677    1.4583    1.5128 F       1  UNL1       -0.1658
     32 C           9.0505    1.0721    0.6092 C.ar    1  UNL1       -0.0274
     33 C           3.0656   -1.5951   -0.5824 C.ar    1  UNL1       -0.0401
     34 C           1.8839   -2.2539   -0.9615 C.ar    1  UNL1       -0.0564
     35 C           0.6905   -1.6181   -0.6983 C.ar    1  UNL1       -0.0382
     36 C          -0.5711   -2.2941   -1.1023 C.3     1  UNL1       -0.0390
     37 C          -3.7229    1.2670    0.1459 C.ar    1  UNL1        0.1362
     38 N          -3.6041    0.6945    1.4387 N.pl3   1  UNL1       -0.3419
     39 C          -7.4906    0.4081    1.1306 C.ar    1  UNL1       -0.0534
     40 C          -8.5524   -0.4616    0.9079 C.ar    1  UNL1       -0.0196
     41 H         -11.3236   -1.6953    1.1401 H       1  UNL1        0.0660
     42 H         -11.6012   -2.7819   -0.2561 H       1  UNL1        0.0660
     43 H         -10.1118   -2.9347    0.7549 H       1  UNL1        0.0660
     44 H          -9.2865    0.4015   -2.2615 H       1  UNL1        0.0654
     45 H          -7.3968    1.9460   -1.8708 H       1  UNL1        0.0622
     46 H          -6.3666    3.3015    0.0925 H       1  UNL1        0.0559
     47 H          -5.7434    2.3170    1.5057 H       1  UNL1        0.0559
     48 H          -2.8498    2.0275   -2.9113 H       1  UNL1        0.0867
     49 H          -1.0588    0.5240   -1.8949 H       1  UNL1        0.1553
     50 H           1.7999    1.1778    0.7442 H       1  UNL1        0.0644
     51 H           4.0952    1.3613    0.6381 H       1  UNL1        0.1564
     52 H           6.4477    1.6398    0.8941 H       1  UNL1        0.1564
     53 H           7.6809   -1.9816    0.7755 H       1  UNL1        0.0636
     54 H           9.9937   -2.5977    0.6655 H       1  UNL1        0.0633
     55 H           8.8182    2.1401    0.5901 H       1  UNL1        0.0642
     56 H           4.0091   -2.1157   -0.8127 H       1  UNL1        0.0636
     57 H           1.9664   -3.2111   -1.4376 H       1  UNL1        0.0621
     58 H          -1.4211   -2.0737   -0.4505 H       1  UNL1        0.0278
     59 H          -0.3742   -3.3952   -1.0590 H       1  UNL1        0.0278
     60 H          -0.7699   -2.0583   -2.1729 H       1  UNL1        0.0278
     61 H          -3.7214   -0.3537    1.5998 H       1  UNL1        0.1438
     62 H          -3.4039    1.2776    2.2941 H       1  UNL1        0.1438
     63 H          -7.0018    0.3828    2.1138 H       1  UNL1        0.0622
     64 H          -8.8355   -1.1152    1.7138 H       1  UNL1        0.0654
@<TRIPOS>BOND
     1     1     2    1
     2     2     3    1
     3     3     4   ar
     4     4     5   ar
     5     5     6   ar
     6     6     7    1
     7     7     8    1
     8     8     9   ar
     9     9    10   ar
    10    10    11   ar
    11    11    12    1
    12    12    13   am
    13    13    14    2
    14    13    15    1
    15    15    16   ar
    16    16    17   ar
    17    17    18    1
    18    18    19   am
    19    19    20    2
    20    19    21   am
    21    21    22    1
    22    22    23   ar
    23    23    24   ar
    24    24    25   ar
    25    25    26    1
    26    25    27   ar
    27    27    28    1
    28    28    29    1
    29    28    30    1
    30    28    31    1
    31    27    32   ar
    32    17    33   ar
    33    33    34   ar
    34    34    35   ar
    35    35    36    1
    36    11    37   ar
    37    37    38    1
    38     6    39   ar
    39    39    40   ar
    40    40     3   ar
    41    37     8   ar
    42    35    15   ar
    43    32    22   ar
    44     1    41    1
    45     1    42    1
    46     1    43    1
    47     4    44    1
    48     5    45    1
    49     7    46    1
    50     7    47    1
    51    10    48    1
    52    12    49    1
    53    16    50    1
    54    18    51    1
    55    21    52    1
    56    23    53    1
    57    24    54    1
    58    32    55    1
    59    33    56    1
    60    34    57    1
    61    36    58    1
    62    36    59    1
    63    36    60    1
    64    38    61    1
    65    38    62    1
    66    39    63    1
    67    40    64    1
