
     RDKit          3D

 32 33  0  0  0  0  0  0  0  0999 V2000
   -1.0440    2.0316   -0.4943 O   0  0  0  0  0  0  0  0  0  0  0  0
   -2.0625    0.9529   -0.8358 P   0  0  0  0  0  5  0  0  0  0  0  0
   -2.4312    0.9550   -2.4714 O   0  0  0  0  0  0  0  0  0  0  0  0
   -3.4752    1.3014    0.0477 O   0  0  0  0  0  0  0  0  0  0  0  0
   -1.5093   -0.6946   -0.3304 C   0  0  0  0  0  0  0  0  0  0  0  0
   -1.3560   -1.5128   -1.4485 O   0  0  0  0  0  0  0  0  0  0  0  0
   -0.2818   -0.5743    0.4859 C   0  0  0  0  0  0  0  0  0  0  0  0
    0.8678    0.0397   -0.2233 C   0  0  0  0  0  0  0  0  0  0  0  0
    0.9710    0.4626   -1.5270 C   0  0  0  0  0  0  0  0  0  0  0  0
    2.2270    0.9388   -1.7354 N   0  0  0  0  0  0  0  0  0  0  0  0
    2.9160    0.8190   -0.5738 C   0  0  0  0  0  0  0  0  0  0  0  0
    4.2280    1.1637   -0.2803 C   0  0  0  0  0  0  0  0  0  0  0  0
    4.6997    0.9397    0.9901 C   0  0  0  0  0  0  0  0  0  0  0  0
    3.8418    0.3814    1.9133 C   0  0  0  0  0  0  0  0  0  0  0  0
    2.5494    0.0597    1.5648 C   0  0  0  0  0  0  0  0  0  0  0  0
    2.0902    0.2810    0.3170 N   0  0  0  0  0  0  0  0  0  0  0  0
   -2.7861   -1.5011    0.7061 P   0  0  0  0  0  5  0  0  0  0  0  0
   -2.1577   -2.3932    1.7396 O   0  0  0  0  0  0  0  0  0  0  0  0
   -3.7973   -2.4736   -0.2486 O   0  0  0  0  0  0  0  0  0  0  0  0
   -3.7437   -0.3190    1.4678 O   0  0  0  0  0  0  0  0  0  0  0  0
   -1.9707    1.7092   -2.8935 H   0  0  0  0  0  0  0  0  0  0  0  0
   -4.2404    1.0106   -0.5099 H   0  0  0  0  0  0  0  0  0  0  0  0
   -2.1474   -1.4225   -2.0293 H   0  0  0  0  0  0  0  0  0  0  0  0
   -0.4647    0.0478    1.4009 H   0  0  0  0  0  0  0  0  0  0  0  0
   -0.0070   -1.5824    0.9033 H   0  0  0  0  0  0  0  0  0  0  0  0
    0.2239    0.4327   -2.2805 H   0  0  0  0  0  0  0  0  0  0  0  0
    4.9003    1.5993   -0.9975 H   0  0  0  0  0  0  0  0  0  0  0  0
    5.7166    1.1850    1.2908 H   0  0  0  0  0  0  0  0  0  0  0  0
    4.1766    0.1902    2.9231 H   0  0  0  0  0  0  0  0  0  0  0  0
    1.8768   -0.3794    2.2932 H   0  0  0  0  0  0  0  0  0  0  0  0
   -3.2401   -2.9021   -0.9581 H   0  0  0  0  0  0  0  0  0  0  0  0
   -4.5699   -0.7461    1.7937 H   0  0  0  0  0  0  0  0  0  0  0  0
  1  2  2  0
  2  3  1  0
  2  4  1  0
  2  5  1  0
  5  6  1  0
  5  7  1  0
  7  8  1  0
  8  9  2  0
  9 10  1  0
 10 11  2  0
 11 12  1  0
 12 13  2  0
 13 14  1  0
 14 15  2  0
 15 16  1  0
  5 17  1  0
 17 18  2  0
 17 19  1  0
 17 20  1  0
 16  8  1  0
 16 11  1  0
  3 21  1  0
  4 22  1  0
  6 23  1  0
  7 24  1  0
  7 25  1  0
  9 26  1  0
 12 27  1  0
 13 28  1  0
 14 29  1  0
 15 30  1  0
 19 31  1  0
 20 32  1  0
M  END
$$$$
