@<TRIPOS>MOLECULE
*****
 32 33 0 0 0
SMALL
GASTEIGER

@<TRIPOS>ATOM
      1 O          -1.0440    2.0316   -0.4943 O.2     1  UNL1       -0.2551
      2 P          -2.0625    0.9529   -0.8358 P.3     1  UNL1        0.3714
      3 O          -2.4312    0.9550   -2.4714 O.3     1  UNL1       -0.3217
      4 O          -3.4752    1.3014    0.0477 O.3     1  UNL1       -0.3217
      5 C          -1.5093   -0.6946   -0.3304 C.3     1  UNL1        0.2725
      6 O          -1.3560   -1.5128   -1.4485 O.3     1  UNL1       -0.3669
      7 C          -0.2818   -0.5743    0.4859 C.3     1  UNL1        0.0415
      8 C           0.8678    0.0397   -0.2233 C.ar    1  UNL1        0.0471
      9 C           0.9710    0.4626   -1.5270 C.ar    1  UNL1        0.0497
     10 N           2.2270    0.9388   -1.7354 N.ar    1  UNL1       -0.2358
     11 C           2.9160    0.8190   -0.5738 C.ar    1  UNL1        0.1377
     12 C           4.2280    1.1637   -0.2803 C.ar    1  UNL1       -0.0188
     13 C           4.6997    0.9397    0.9901 C.ar    1  UNL1       -0.0569
     14 C           3.8418    0.3814    1.9133 C.ar    1  UNL1       -0.0451
     15 C           2.5494    0.0597    1.5648 C.ar    1  UNL1        0.0114
     16 N           2.0902    0.2810    0.3170 N.ar    1  UNL1       -0.3035
     17 P          -2.7861   -1.5011    0.7061 P.3     1  UNL1        0.3714
     18 O          -2.1577   -2.3932    1.7396 O.2     1  UNL1       -0.2551
     19 O          -3.7973   -2.4736   -0.2486 O.3     1  UNL1       -0.3217
     20 O          -3.7437   -0.3190    1.4678 O.3     1  UNL1       -0.3217
     21 H          -1.9707    1.7092   -2.8935 H       1  UNL1        0.2198
     22 H          -4.2404    1.0106   -0.5099 H       1  UNL1        0.2198
     23 H          -2.1474   -1.4225   -2.0293 H       1  UNL1        0.2117
     24 H          -0.4647    0.0478    1.4009 H       1  UNL1        0.0369
     25 H          -0.0070   -1.5824    0.9033 H       1  UNL1        0.0369
     26 H           0.2239    0.4327   -2.2805 H       1  UNL1        0.0848
     27 H           4.9003    1.5993   -0.9975 H       1  UNL1        0.0654
     28 H           5.7166    1.1850    1.2908 H       1  UNL1        0.0619
     29 H           4.1766    0.1902    2.9231 H       1  UNL1        0.0632
     30 H           1.8768   -0.3794    2.2932 H       1  UNL1        0.0813
     31 H          -3.2401   -2.9021   -0.9581 H       1  UNL1        0.2198
     32 H          -4.5699   -0.7461    1.7937 H       1  UNL1        0.2198
@<TRIPOS>BOND
     1     1     2    2
     2     2     3    1
     3     2     4    1
     4     2     5    1
     5     5     6    1
     6     5     7    1
     7     7     8    1
     8     8     9   ar
     9     9    10   ar
    10    10    11   ar
    11    11    12   ar
    12    12    13   ar
    13    13    14   ar
    14    14    15   ar
    15    15    16   ar
    16     5    17    1
    17    17    18    2
    18    17    19    1
    19    17    20    1
    20    16     8   ar
    21    16    11   ar
    22     3    21    1
    23     4    22    1
    24     6    23    1
    25     7    24    1
    26     7    25    1
    27     9    26    1
    28    12    27    1
    29    13    28    1
    30    14    29    1
    31    15    30    1
    32    19    31    1
    33    20    32    1
