
     RDKit          3D

 34 36  0  0  0  0  0  0  0  0999 V2000
    2.0783    4.9331   -0.5604 N   0  0  0  0  0  0  0  0  0  0  0  0
    1.5918    3.5839   -0.4958 C   0  0  0  0  0  0  0  0  0  0  0  0
    2.2157    2.4902   -0.0589 N   0  0  0  0  0  0  0  0  0  0  0  0
    1.5965    1.2851   -0.0788 C   0  0  0  0  0  0  0  0  0  0  0  0
    0.3135    1.2236   -0.5585 C   0  0  0  0  0  0  0  0  0  0  0  0
   -0.3464    2.3724   -1.0190 C   0  0  0  0  0  0  0  0  0  0  0  0
    0.3542    3.5345   -0.9605 N   0  0  0  0  0  0  0  0  0  0  0  0
   -0.4944    0.0017   -0.6260 N   0  0  0  0  0  0  0  0  0  0  0  0
   -1.7254    0.0973   -0.3494 N   0  0  0  0  0  0  0  0  0  0  0  0
   -2.7227   -0.8804   -0.3315 C   0  0  0  0  0  0  0  0  0  0  0  0
   -2.7730   -2.1836   -0.7850 C   0  0  0  0  0  0  0  0  0  0  0  0
   -3.9113   -2.9472   -0.6631 C   0  0  0  0  0  0  0  0  0  0  0  0
   -5.0554   -2.4387   -0.0794 C   0  0  0  0  0  0  0  0  0  0  0  0
   -5.0495   -1.1357    0.3902 C   0  0  0  0  0  0  0  0  0  0  0  0
   -3.8877   -0.3722    0.2601 C   0  0  0  0  0  0  0  0  0  0  0  0
    2.3630    0.1559    0.4118 C   0  0  0  0  0  0  0  0  0  0  0  0
    2.9133    0.0009    1.6707 C   0  0  0  0  0  0  0  0  0  0  0  0
    2.5700    1.2983    2.8218 Cl  0  0  0  0  0  0  0  0  0  0  0  0
    3.6816   -1.1211    1.9957 C   0  0  0  0  0  0  0  0  0  0  0  0
    3.9093   -2.1085    1.0638 C   0  0  0  0  0  0  0  0  0  0  0  0
    4.8983   -3.5173    1.4861 Cl  0  0  0  0  0  0  0  0  0  0  0  0
    3.3820   -2.0065   -0.2043 C   0  0  0  0  0  0  0  0  0  0  0  0
    2.6213   -0.8781   -0.5024 C   0  0  0  0  0  0  0  0  0  0  0  0
    2.9338    5.1067   -1.1408 H   0  0  0  0  0  0  0  0  0  0  0  0
    1.6080    5.7253   -0.0512 H   0  0  0  0  0  0  0  0  0  0  0  0
   -1.3657    2.3070   -1.3962 H   0  0  0  0  0  0  0  0  0  0  0  0
   -1.8125   -2.4691   -1.2244 H   0  0  0  0  0  0  0  0  0  0  0  0
   -3.8160   -3.9654   -1.0657 H   0  0  0  0  0  0  0  0  0  0  0  0
   -5.9096   -3.1210   -0.0231 H   0  0  0  0  0  0  0  0  0  0  0  0
   -5.9682   -0.8083    0.8323 H   0  0  0  0  0  0  0  0  0  0  0  0
   -4.0534    0.6234    0.6829 H   0  0  0  0  0  0  0  0  0  0  0  0
    4.0883   -1.1736    3.0180 H   0  0  0  0  0  0  0  0  0  0  0  0
    3.5617   -2.7813   -0.9453 H   0  0  0  0  0  0  0  0  0  0  0  0
    2.2107   -0.8313   -1.5139 H   0  0  0  0  0  0  0  0  0  0  0  0
  1  2  1  0
  2  3  2  0
  3  4  1  0
  4  5  2  0
  5  6  1  0
  6  7  2  0
  5  8  1  0
  8  9  2  0
  9 10  1  0
 10 11  2  0
 11 12  1  0
 12 13  2  0
 13 14  1  0
 14 15  2  0
  4 16  1  0
 16 17  2  0
 17 18  1  0
 17 19  1  0
 19 20  2  0
 20 21  1  0
 20 22  1  0
 22 23  2  0
  7  2  1  0
 15 10  1  0
 23 16  1  0
  1 24  1  0
  1 25  1  0
  6 26  1  0
 11 27  1  0
 12 28  1  0
 13 29  1  0
 14 30  1  0
 15 31  1  0
 19 32  1  0
 22 33  1  0
 23 34  1  0
M  END
$$$$
