@<TRIPOS>MOLECULE
*****
 34 36 0 0 0
SMALL
GASTEIGER

@<TRIPOS>ATOM
      1 N           2.0783    4.9331   -0.5604 N.pl3   1  UNL1       -0.3275
      2 C           1.5918    3.5839   -0.4958 C.ar    1  UNL1        0.2132
      3 N           2.2157    2.4902   -0.0589 N.ar    1  UNL1       -0.2124
      4 C           1.5965    1.2851   -0.0788 C.ar    1  UNL1        0.1045
      5 C           0.3135    1.2236   -0.5585 C.ar    1  UNL1        0.1302
      6 C          -0.3464    2.3724   -1.0190 C.ar    1  UNL1        0.0604
      7 N           0.3542    3.5345   -0.9605 N.ar    1  UNL1       -0.2209
      8 N          -0.4944    0.0017   -0.6260 N.2     1  UNL1       -0.1456
      9 N          -1.7254    0.0973   -0.3494 N.2     1  UNL1       -0.1492
     10 C          -2.7227   -0.8804   -0.3315 C.ar    1  UNL1        0.0862
     11 C          -2.7730   -2.1836   -0.7850 C.ar    1  UNL1       -0.0345
     12 C          -3.9113   -2.9472   -0.6631 C.ar    1  UNL1       -0.0597
     13 C          -5.0554   -2.4387   -0.0794 C.ar    1  UNL1       -0.0616
     14 C          -5.0495   -1.1357    0.3902 C.ar    1  UNL1       -0.0597
     15 C          -3.8877   -0.3722    0.2601 C.ar    1  UNL1       -0.0345
     16 C           2.3630    0.1559    0.4118 C.ar    1  UNL1        0.0210
     17 C           2.9133    0.0009    1.6707 C.ar    1  UNL1        0.0516
     18 CL          2.5700    1.2983    2.8218 Cl      1  UNL1       -0.0828
     19 C           3.6816   -1.1211    1.9957 C.ar    1  UNL1       -0.0244
     20 C           3.9093   -2.1085    1.0638 C.ar    1  UNL1        0.0424
     21 CL          4.8983   -3.5173    1.4861 Cl      1  UNL1       -0.0835
     22 C           3.3820   -2.0065   -0.2043 C.ar    1  UNL1       -0.0427
     23 C           2.6213   -0.8781   -0.5024 C.ar    1  UNL1       -0.0497
     24 H           2.9338    5.1067   -1.1408 H       1  UNL1        0.1452
     25 H           1.6080    5.7253   -0.0512 H       1  UNL1        0.1452
     26 H          -1.3657    2.3070   -1.3962 H       1  UNL1        0.0854
     27 H          -1.8125   -2.4691   -1.2244 H       1  UNL1        0.0639
     28 H          -3.8160   -3.9654   -1.0657 H       1  UNL1        0.0618
     29 H          -5.9096   -3.1210   -0.0231 H       1  UNL1        0.0618
     30 H          -5.9682   -0.8083    0.8323 H       1  UNL1        0.0618
     31 H          -4.0534    0.6234    0.6829 H       1  UNL1        0.0639
     32 H           4.0883   -1.1736    3.0180 H       1  UNL1        0.0647
     33 H           3.5617   -2.7813   -0.9453 H       1  UNL1        0.0632
     34 H           2.2107   -0.8313   -1.5139 H       1  UNL1        0.0625
@<TRIPOS>BOND
     1     1     2    1
     2     2     3   ar
     3     3     4   ar
     4     4     5   ar
     5     5     6   ar
     6     6     7   ar
     7     5     8    1
     8     8     9    2
     9     9    10    1
    10    10    11   ar
    11    11    12   ar
    12    12    13   ar
    13    13    14   ar
    14    14    15   ar
    15     4    16    1
    16    16    17   ar
    17    17    18    1
    18    17    19   ar
    19    19    20   ar
    20    20    21    1
    21    20    22   ar
    22    22    23   ar
    23     7     2   ar
    24    15    10   ar
    25    23    16   ar
    26     1    24    1
    27     1    25    1
    28     6    26    1
    29    11    27    1
    30    12    28    1
    31    13    29    1
    32    14    30    1
    33    15    31    1
    34    19    32    1
    35    22    33    1
    36    23    34    1
