@<TRIPOS>MOLECULE
*****
 45 48 0 0 0
SMALL
GASTEIGER

@<TRIPOS>ATOM
      1 N           4.4044   -2.7797   -1.3317 N.1     1  UNL1       -0.1892
      2 C           4.1318   -2.0902   -0.4514 C.1     1  UNL1        0.1208
      3 C           3.7669   -1.2152    0.6461 C.ar    1  UNL1        0.1618
      4 C           4.5713   -0.8924    1.7191 C.ar    1  UNL1        0.0659
      5 N           3.8202   -0.0604    2.4746 N.ar    1  UNL1       -0.2333
      6 C           2.6095    0.1167    1.8874 C.ar    1  UNL1        0.1555
      7 C           1.5077    0.8681    2.2669 C.ar    1  UNL1       -0.0153
      8 C           0.4098    0.8382    1.4385 C.ar    1  UNL1       -0.0290
      9 C           0.3898    0.0994    0.2796 C.ar    1  UNL1        0.1103
     10 C          -0.7908    0.1005   -0.5473 C.ar    1  UNL1        0.0969
     11 C          -1.6867   -0.9472   -0.5506 C.ar    1  UNL1        0.0982
     12 C          -1.6055   -2.1788    0.2391 C.ar    1  UNL1        0.0027
     13 C          -1.5157   -3.4334   -0.3250 C.ar    1  UNL1       -0.0498
     14 C          -1.4402   -4.5776    0.4428 C.ar    1  UNL1       -0.0258
     15 C          -1.4511   -4.5209    1.8213 C.ar    1  UNL1        0.1234
     16 F          -1.3767   -5.6465    2.5802 F       1  UNL1       -0.2055
     17 C          -1.5409   -3.2675    2.3913 C.ar    1  UNL1       -0.0258
     18 C          -1.6162   -2.1241    1.6223 C.ar    1  UNL1       -0.0498
     19 N          -2.6614   -0.6504   -1.4112 N.ar    1  UNL1       -0.2351
     20 C          -2.3937    0.5338   -1.9305 C.ar    1  UNL1        0.0974
     21 N          -1.2298    1.0155   -1.4018 N.ar    1  UNL1       -0.3228
     22 C          -0.6840    2.2650   -1.7748 C.3     1  UNL1        0.0672
     23 C           0.6562    2.0377   -2.4969 C.3     1  UNL1        0.0653
     24 O           1.2043    3.2678   -2.8696 O.3     1  UNL1       -0.3930
     25 C          -0.5842    3.3261   -0.7478 C.3     1  UNL1        0.0657
     26 C          -1.9785    3.6332   -0.2139 C.3     1  UNL1        0.3921
     27 F          -2.7259    4.0564   -1.2980 F       1  UNL1       -0.1707
     28 F          -2.5528    2.5113    0.3470 F       1  UNL1       -0.1707
     29 F          -1.9539    4.6886    0.6902 F       1  UNL1       -0.1707
     30 N           1.4887   -0.6070   -0.0329 N.ar    1  UNL1       -0.1623
     31 N           2.5690   -0.5970    0.7521 N.ar    1  UNL1       -0.2023
     32 H           5.5956   -1.2400    1.9089 H       1  UNL1        0.0859
     33 H           1.5373    1.4440    3.1822 H       1  UNL1        0.0655
     34 H          -0.4512    1.4160    1.7203 H       1  UNL1        0.0641
     35 H          -1.5060   -3.4795   -1.4186 H       1  UNL1        0.0625
     36 H          -1.3700   -5.5615    0.0036 H       1  UNL1        0.0646
     37 H          -1.5483   -3.2330    3.4821 H       1  UNL1        0.0646
     38 H          -1.6857   -1.1537    2.0819 H       1  UNL1        0.0625
     39 H          -3.0449    1.0063   -2.6688 H       1  UNL1        0.1029
     40 H          -1.3281    2.7027   -2.5934 H       1  UNL1        0.0554
     41 H           1.3477    1.4222   -1.9224 H       1  UNL1        0.0578
     42 H           0.3998    1.5258   -3.4710 H       1  UNL1        0.0578
     43 H           0.4460    3.8440   -3.1899 H       1  UNL1        0.2095
     44 H           0.1892    3.2627   -0.0001 H       1  UNL1        0.0373
     45 H          -0.3232    4.2739   -1.3299 H       1  UNL1        0.0373
@<TRIPOS>BOND
     1     1     2    3
     2     2     3    1
     3     3     4   ar
     4     4     5   ar
     5     5     6   ar
     6     6     7   ar
     7     7     8   ar
     8     8     9   ar
     9     9    10    1
    10    10    11   ar
    11    11    12    1
    12    12    13   ar
    13    13    14   ar
    14    14    15   ar
    15    15    16    1
    16    15    17   ar
    17    17    18   ar
    18    11    19   ar
    19    19    20   ar
    20    20    21   ar
    21    21    22    1
    22    22    23    1
    23    23    24    1
    24    22    25    1
    25    25    26    1
    26    26    27    1
    27    26    28    1
    28    26    29    1
    29     9    30   ar
    30    30    31   ar
    31    31     3   ar
    32    31     6   ar
    33    21    10   ar
    34    18    12   ar
    35     4    32    1
    36     7    33    1
    37     8    34    1
    38    13    35    1
    39    14    36    1
    40    17    37    1
    41    18    38    1
    42    20    39    1
    43    22    40    1
    44    23    41    1
    45    23    42    1
    46    24    43    1
    47    25    44    1
    48    25    45    1
