@<TRIPOS>MOLECULE
*****
 64 69 0 0 0
SMALL
GASTEIGER

@<TRIPOS>ATOM
      1 C          -8.2037    2.0381    0.1279 C.3     1  UNL1       -0.0387
      2 C          -6.9129    1.4159    0.5748 C.ar    1  UNL1       -0.0330
      3 C          -6.8087    0.9360    1.8535 C.ar    1  UNL1        0.0620
      4 C          -7.9111    0.9982    2.8282 C.2     1  UNL1        0.3371
      5 O          -7.7775    0.5456    3.9934 O.2     1  UNL1       -0.2451
      6 O          -9.1392    1.5522    2.5177 O.3     1  UNL1       -0.4771
      7 C          -5.5898    0.3669    2.2219 C.ar    1  UNL1       -0.0472
      8 C          -4.5446    0.2967    1.3292 C.ar    1  UNL1       -0.0558
      9 C          -4.6706    0.7910    0.0319 C.ar    1  UNL1       -0.0237
     10 C          -5.8672    1.3518   -0.3363 C.ar    1  UNL1       -0.0387
     11 C          -5.7943    1.8128   -1.7628 C.3     1  UNL1       -0.0251
     12 C          -4.7179    0.8564   -2.3020 C.3     1  UNL1       -0.0263
     13 C          -3.7576    0.8660   -1.1307 C.3     1  UNL1        0.0493
     14 N          -2.8225   -0.2430   -1.1789 N.am    1  UNL1       -0.3033
     15 C          -1.4461    0.0590   -1.2861 C.2     1  UNL1        0.2630
     16 O          -1.1077    1.2900   -1.3340 O.2     1  UNL1       -0.2685
     17 C          -0.3753   -0.9186   -1.3469 C.ar    1  UNL1        0.1313
     18 C           0.9429   -0.4941   -1.4552 C.ar    1  UNL1       -0.0005
     19 C           2.0089   -1.3497   -1.5179 C.ar    1  UNL1        0.1299
     20 C           3.3828   -0.8753   -1.6311 C.2     1  UNL1        0.2628
     21 O           3.5587    0.3822   -1.6688 O.2     1  UNL1       -0.2685
     22 N           4.4969   -1.7177   -1.6990 N.am    1  UNL1       -0.3060
     23 C           5.8677   -1.2840   -1.8082 C.3     1  UNL1        0.0372
     24 C           6.4301   -0.7917   -0.5117 C.ar    1  UNL1       -0.0283
     25 C           7.0051   -1.7331    0.3333 C.ar    1  UNL1       -0.0535
     26 C           7.5311   -1.3019    1.5243 C.ar    1  UNL1       -0.0178
     27 C           7.5137    0.0343    1.9216 C.ar    1  UNL1        0.1423
     28 C           6.9404    0.9404    1.0678 C.ar    1  UNL1        0.0760
     29 C           6.4053    0.5275   -0.1357 C.ar    1  UNL1       -0.0322
     30 N           6.9131    2.3273    1.4562 N.am    1  UNL1       -0.2798
     31 C           7.4658    2.7468    2.6915 C.2     1  UNL1        0.2549
     32 O           7.2645    3.8844    3.1157 O.2     1  UNL1       -0.2717
     33 C           8.2906    1.7849    3.4597 C.3     1  UNL1        0.1656
     34 O           8.0469    0.4468    3.1218 O.3     1  UNL1       -0.4809
     35 N           1.7393   -2.6623   -1.4703 N.ar    1  UNL1       -0.2231
     36 C           0.4861   -3.1373   -1.3660 C.ar    1  UNL1        0.1571
     37 C           0.0050   -4.4248   -1.3030 C.ar    1  UNL1        0.0024
     38 C          -1.3603   -4.2914   -1.2027 C.ar    1  UNL1        0.0519
     39 N          -1.6572   -2.9614   -1.2080 N.ar    1  UNL1       -0.1727
     40 N          -0.5491   -2.2483   -1.3063 N.ar    1  UNL1       -0.2095
     41 H          -9.0352    1.3417    0.2071 H       1  UNL1        0.0278
     42 H          -8.0831    2.4741   -0.8888 H       1  UNL1        0.0278
     43 H          -8.3771    2.9060    0.7941 H       1  UNL1        0.0278
     44 H          -9.9921    1.2558    2.9924 H       1  UNL1        0.2954
     45 H          -5.5295   -0.0036    3.2304 H       1  UNL1        0.0626
     46 H          -3.6098   -0.1422    1.6182 H       1  UNL1        0.0621
     47 H          -5.4056    2.8292   -1.8432 H       1  UNL1        0.0314
     48 H          -6.7543    1.6415   -2.2917 H       1  UNL1        0.0314
     49 H          -5.1652   -0.1619   -2.3990 H       1  UNL1        0.0289
     50 H          -4.2828    1.2111   -3.2374 H       1  UNL1        0.0289
     51 H          -3.2372    1.8465   -1.1818 H       1  UNL1        0.0548
     52 H          -3.1487   -1.2096   -1.1368 H       1  UNL1        0.1497
     53 H           1.1297    0.5821   -1.4914 H       1  UNL1        0.0663
     54 H           4.3203   -2.7598   -1.6672 H       1  UNL1        0.1494
     55 H           6.5027   -2.1253   -2.1292 H       1  UNL1        0.0512
     56 H           5.9911   -0.4771   -2.5687 H       1  UNL1        0.0512
     57 H           7.0429   -2.7995    0.0641 H       1  UNL1        0.0622
     58 H           7.9891   -2.0256    2.2054 H       1  UNL1        0.0655
     59 H           5.9674    1.2661   -0.7849 H       1  UNL1        0.0640
     60 H           6.4721    2.9950    0.7909 H       1  UNL1        0.1550
     61 H           9.3675    2.0175    3.2100 H       1  UNL1        0.0795
     62 H           8.1090    1.9527    4.5467 H       1  UNL1        0.0795
     63 H           0.5418   -5.3556   -1.3239 H       1  UNL1        0.0670
     64 H          -2.0949   -5.0761   -1.1312 H       1  UNL1        0.0848
@<TRIPOS>BOND
     1     1     2    1
     2     2     3   ar
     3     3     4    1
     4     4     5    2
     5     4     6    1
     6     3     7   ar
     7     7     8   ar
     8     8     9   ar
     9     9    10   ar
    10    10    11    1
    11    11    12    1
    12    12    13    1
    13    13    14    1
    14    14    15   am
    15    15    16    2
    16    15    17    1
    17    17    18   ar
    18    18    19   ar
    19    19    20    1
    20    20    21    2
    21    20    22   am
    22    22    23    1
    23    23    24    1
    24    24    25   ar
    25    25    26   ar
    26    26    27   ar
    27    27    28   ar
    28    28    29   ar
    29    28    30    1
    30    30    31   am
    31    31    32    2
    32    31    33    1
    33    33    34    1
    34    19    35   ar
    35    35    36   ar
    36    36    37   ar
    37    37    38   ar
    38    38    39   ar
    39    39    40   ar
    40    10     2   ar
    41    40    17   ar
    42    13     9    1
    43    29    24   ar
    44    40    36   ar
    45    34    27    1
    46     1    41    1
    47     1    42    1
    48     1    43    1
    49     6    44    1
    50     7    45    1
    51     8    46    1
    52    11    47    1
    53    11    48    1
    54    12    49    1
    55    12    50    1
    56    13    51    1
    57    14    52    1
    58    18    53    1
    59    22    54    1
    60    23    55    1
    61    23    56    1
    62    25    57    1
    63    26    58    1
    64    29    59    1
    65    30    60    1
    66    33    61    1
    67    33    62    1
    68    37    63    1
    69    38    64    1
