
     RDKit          3D

 64 69  0  0  0  0  0  0  0  0999 V2000
   -8.2037    2.0381    0.1279 C   0  0  0  0  0  0  0  0  0  0  0  0
   -6.9129    1.4159    0.5748 C   0  0  0  0  0  0  0  0  0  0  0  0
   -6.8087    0.9360    1.8535 C   0  0  0  0  0  0  0  0  0  0  0  0
   -7.9111    0.9982    2.8282 C   0  0  0  0  0  0  0  0  0  0  0  0
   -7.7775    0.5456    3.9934 O   0  0  0  0  0  0  0  0  0  0  0  0
   -9.1392    1.5522    2.5177 O   0  0  0  0  0  0  0  0  0  0  0  0
   -5.5898    0.3669    2.2219 C   0  0  0  0  0  0  0  0  0  0  0  0
   -4.5446    0.2967    1.3292 C   0  0  0  0  0  0  0  0  0  0  0  0
   -4.6706    0.7910    0.0319 C   0  0  0  0  0  0  0  0  0  0  0  0
   -5.8672    1.3518   -0.3363 C   0  0  0  0  0  0  0  0  0  0  0  0
   -5.7943    1.8128   -1.7628 C   0  0  0  0  0  0  0  0  0  0  0  0
   -4.7179    0.8564   -2.3020 C   0  0  0  0  0  0  0  0  0  0  0  0
   -3.7576    0.8660   -1.1307 C   0  0  2  0  0  0  0  0  0  0  0  0
   -2.8225   -0.2430   -1.1789 N   0  0  0  0  0  0  0  0  0  0  0  0
   -1.4461    0.0590   -1.2861 C   0  0  0  0  0  0  0  0  0  0  0  0
   -1.1077    1.2900   -1.3340 O   0  0  0  0  0  0  0  0  0  0  0  0
   -0.3753   -0.9186   -1.3469 C   0  0  0  0  0  0  0  0  0  0  0  0
    0.9429   -0.4941   -1.4552 C   0  0  0  0  0  0  0  0  0  0  0  0
    2.0089   -1.3497   -1.5179 C   0  0  0  0  0  0  0  0  0  0  0  0
    3.3828   -0.8753   -1.6311 C   0  0  0  0  0  0  0  0  0  0  0  0
    3.5587    0.3822   -1.6688 O   0  0  0  0  0  0  0  0  0  0  0  0
    4.4969   -1.7177   -1.6990 N   0  0  0  0  0  0  0  0  0  0  0  0
    5.8677   -1.2840   -1.8082 C   0  0  0  0  0  0  0  0  0  0  0  0
    6.4301   -0.7917   -0.5117 C   0  0  0  0  0  0  0  0  0  0  0  0
    7.0051   -1.7331    0.3333 C   0  0  0  0  0  0  0  0  0  0  0  0
    7.5311   -1.3019    1.5243 C   0  0  0  0  0  0  0  0  0  0  0  0
    7.5137    0.0343    1.9216 C   0  0  0  0  0  0  0  0  0  0  0  0
    6.9404    0.9404    1.0678 C   0  0  0  0  0  0  0  0  0  0  0  0
    6.4053    0.5275   -0.1357 C   0  0  0  0  0  0  0  0  0  0  0  0
    6.9131    2.3273    1.4562 N   0  0  0  0  0  0  0  0  0  0  0  0
    7.4658    2.7468    2.6915 C   0  0  0  0  0  0  0  0  0  0  0  0
    7.2645    3.8844    3.1157 O   0  0  0  0  0  0  0  0  0  0  0  0
    8.2906    1.7849    3.4597 C   0  0  0  0  0  0  0  0  0  0  0  0
    8.0469    0.4468    3.1218 O   0  0  0  0  0  0  0  0  0  0  0  0
    1.7393   -2.6623   -1.4703 N   0  0  0  0  0  0  0  0  0  0  0  0
    0.4861   -3.1373   -1.3660 C   0  0  0  0  0  0  0  0  0  0  0  0
    0.0050   -4.4248   -1.3030 C   0  0  0  0  0  0  0  0  0  0  0  0
   -1.3603   -4.2914   -1.2027 C   0  0  0  0  0  0  0  0  0  0  0  0
   -1.6572   -2.9614   -1.2080 N   0  0  0  0  0  0  0  0  0  0  0  0
   -0.5491   -2.2483   -1.3063 N   0  0  0  0  0  0  0  0  0  0  0  0
   -9.0352    1.3417    0.2071 H   0  0  0  0  0  0  0  0  0  0  0  0
   -8.0831    2.4741   -0.8888 H   0  0  0  0  0  0  0  0  0  0  0  0
   -8.3771    2.9060    0.7941 H   0  0  0  0  0  0  0  0  0  0  0  0
   -9.9921    1.2558    2.9924 H   0  0  0  0  0  0  0  0  0  0  0  0
   -5.5295   -0.0036    3.2304 H   0  0  0  0  0  0  0  0  0  0  0  0
   -3.6098   -0.1422    1.6182 H   0  0  0  0  0  0  0  0  0  0  0  0
   -5.4056    2.8292   -1.8432 H   0  0  0  0  0  0  0  0  0  0  0  0
   -6.7543    1.6415   -2.2917 H   0  0  0  0  0  0  0  0  0  0  0  0
   -5.1652   -0.1619   -2.3990 H   0  0  0  0  0  0  0  0  0  0  0  0
   -4.2828    1.2111   -3.2374 H   0  0  0  0  0  0  0  0  0  0  0  0
   -3.2372    1.8465   -1.1818 H   0  0  0  0  0  0  0  0  0  0  0  0
   -3.1487   -1.2096   -1.1368 H   0  0  0  0  0  0  0  0  0  0  0  0
    1.1297    0.5821   -1.4914 H   0  0  0  0  0  0  0  0  0  0  0  0
    4.3203   -2.7598   -1.6672 H   0  0  0  0  0  0  0  0  0  0  0  0
    6.5027   -2.1253   -2.1292 H   0  0  0  0  0  0  0  0  0  0  0  0
    5.9911   -0.4771   -2.5687 H   0  0  0  0  0  0  0  0  0  0  0  0
    7.0429   -2.7995    0.0641 H   0  0  0  0  0  0  0  0  0  0  0  0
    7.9891   -2.0256    2.2054 H   0  0  0  0  0  0  0  0  0  0  0  0
    5.9674    1.2661   -0.7849 H   0  0  0  0  0  0  0  0  0  0  0  0
    6.4721    2.9950    0.7909 H   0  0  0  0  0  0  0  0  0  0  0  0
    9.3675    2.0175    3.2100 H   0  0  0  0  0  0  0  0  0  0  0  0
    8.1090    1.9527    4.5467 H   0  0  0  0  0  0  0  0  0  0  0  0
    0.5418   -5.3556   -1.3239 H   0  0  0  0  0  0  0  0  0  0  0  0
   -2.0949   -5.0761   -1.1312 H   0  0  0  0  0  0  0  0  0  0  0  0
  1  2  1  0
  2  3  2  0
  3  4  1  0
  4  5  2  0
  4  6  1  0
  3  7  1  0
  7  8  2  0
  8  9  1  0
  9 10  2  0
 10 11  1  0
 11 12  1  0
 12 13  1  0
 13 14  1  0
 14 15  1  0
 15 16  2  0
 15 17  1  0
 17 18  2  0
 18 19  1  0
 19 20  1  0
 20 21  2  0
 20 22  1  0
 22 23  1  0
 23 24  1  0
 24 25  2  0
 25 26  1  0
 26 27  2  0
 27 28  1  0
 28 29  2  0
 28 30  1  0
 30 31  1  0
 31 32  2  0
 31 33  1  0
 33 34  1  0
 19 35  2  0
 35 36  1  0
 36 37  2  0
 37 38  1  0
 38 39  2  0
 39 40  1  0
 10  2  1  0
 40 17  1  0
 13  9  1  0
 29 24  1  0
 40 36  1  0
 34 27  1  0
  1 41  1  0
  1 42  1  0
  1 43  1  0
  6 44  1  0
  7 45  1  0
  8 46  1  0
 11 47  1  0
 11 48  1  0
 12 49  1  0
 12 50  1  0
 13 51  1  1
 14 52  1  0
 18 53  1  0
 22 54  1  0
 23 55  1  0
 23 56  1  0
 25 57  1  0
 26 58  1  0
 29 59  1  0
 30 60  1  0
 33 61  1  0
 33 62  1  0
 37 63  1  0
 38 64  1  0
M  END
$$$$
