@<TRIPOS>MOLECULE
*****
 72 75 0 0 0
SMALL
GASTEIGER

@<TRIPOS>ATOM
      1 C          -3.7330    6.2356   -1.7461 C.3     1  UNL1        0.0789
      2 O          -3.1106    4.9728   -1.6028 O.3     1  UNL1       -0.4922
      3 C          -3.1307    4.3381   -0.3590 C.ar    1  UNL1        0.1557
      4 C          -3.7321    4.8798    0.7542 C.ar    1  UNL1       -0.0170
      5 C          -3.7316    4.2224    1.9664 C.ar    1  UNL1       -0.0575
      6 C          -3.1016    2.9841    2.0389 C.ar    1  UNL1       -0.0508
      7 C          -2.4880    2.4079    0.9468 C.ar    1  UNL1        0.0278
      8 C          -1.8490    1.1071    1.1007 C.ar    1  UNL1        0.0688
      9 C          -2.5925   -0.0737    0.8761 C.ar    1  UNL1        0.0337
     10 C          -4.0244    0.1398    0.5659 C.3     1  UNL1       -0.0233
     11 N          -2.0572   -1.2953    0.9973 N.ar    1  UNL1       -0.2926
     12 C          -2.7686   -2.5350    0.7155 C.3     1  UNL1        0.0582
     13 C          -2.5281   -3.1730   -0.5583 C.ar    1  UNL1        0.0426
     14 C          -2.9383   -2.6849   -1.7532 C.ar    1  UNL1        0.1310
     15 F          -3.6082   -1.5121   -1.8852 F       1  UNL1       -0.2050
     16 C          -2.7197   -3.3355   -2.9671 C.ar    1  UNL1       -0.0259
     17 C          -2.0549   -4.5275   -2.9325 C.ar    1  UNL1       -0.0563
     18 C          -1.6275   -5.0465   -1.7321 C.ar    1  UNL1       -0.0259
     19 C          -1.8508   -4.3963   -0.5517 C.ar    1  UNL1        0.1310
     20 F          -1.4296   -4.9799    0.6236 F       1  UNL1       -0.2050
     21 C          -0.7446   -1.3379    1.3558 C.ar    1  UNL1        0.3325
     22 O          -0.2161   -2.4725    1.4814 O.2     1  UNL1       -0.2462
     23 N           0.0357   -0.2585    1.5892 N.ar    1  UNL1       -0.2585
     24 C           1.4171   -0.4445    1.9562 C.3     1  UNL1        0.0505
     25 C           2.3966   -0.4917    0.8321 C.3     1  UNL1        0.0513
     26 N           2.4781    0.6959    0.0538 N.3     1  UNL1       -0.3079
     27 C           3.1631    1.7977    0.6898 C.3     1  UNL1       -0.0030
     28 C           4.6540    1.5570    0.8381 C.3     1  UNL1       -0.0304
     29 C           5.2643    1.3568   -0.5244 C.3     1  UNL1        0.0459
     30 C           6.7269    1.1153   -0.4426 C.2     1  UNL1        0.3047
     31 O           7.3479    0.9409   -1.5207 O.2     1  UNL1       -0.2510
     32 O           7.4432    1.0707    0.7400 O.3     1  UNL1       -0.4806
     33 C           2.3279   -1.7304    0.0191 C.ar    1  UNL1       -0.0288
     34 C           3.0539   -2.8373    0.3947 C.ar    1  UNL1       -0.0570
     35 C           3.0344   -4.0168   -0.3303 C.ar    1  UNL1       -0.0615
     36 C           2.2533   -4.0602   -1.4642 C.ar    1  UNL1       -0.0617
     37 C           1.5052   -2.9603   -1.8753 C.ar    1  UNL1       -0.0615
     38 C           1.5584   -1.8174   -1.1241 C.ar    1  UNL1       -0.0570
     39 C          -0.5282    0.9439    1.4580 C.ar    1  UNL1        0.2647
     40 O           0.1024    2.0217    1.6516 O.2     1  UNL1       -0.2668
     41 C          -2.5126    3.0969   -0.2393 C.ar    1  UNL1        0.1726
     42 F          -1.8957    2.5033   -1.3080 F       1  UNL1       -0.2010
     43 H          -4.8272    6.1874   -1.4847 H       1  UNL1        0.0660
     44 H          -3.2737    6.9174   -1.0070 H       1  UNL1        0.0660
     45 H          -3.5736    6.6157   -2.7718 H       1  UNL1        0.0660
     46 H          -4.2160    5.8396    0.6802 H       1  UNL1        0.0655
     47 H          -4.2121    4.6611    2.8422 H       1  UNL1        0.0619
     48 H          -3.1183    2.4941    3.0023 H       1  UNL1        0.0625
     49 H          -4.5245    0.7631    1.3498 H       1  UNL1        0.0292
     50 H          -4.6110   -0.7684    0.4672 H       1  UNL1        0.0292
     51 H          -4.1146    0.6824   -0.4234 H       1  UNL1        0.0292
     52 H          -2.4002   -3.2143    1.5765 H       1  UNL1        0.0545
     53 H          -3.8296   -2.4045    0.9826 H       1  UNL1        0.0545
     54 H          -3.0500   -2.9404   -3.9181 H       1  UNL1        0.0646
     55 H          -1.8633   -5.0686   -3.8598 H       1  UNL1        0.0619
     56 H          -1.0894   -6.0096   -1.6957 H       1  UNL1        0.0646
     57 H           1.5591   -1.4059    2.5360 H       1  UNL1        0.0513
     58 H           1.7697    0.3397    2.6713 H       1  UNL1        0.0513
     59 H           3.4043   -0.5528    1.3568 H       1  UNL1        0.0528
     60 H           2.7174    0.5769   -0.9389 H       1  UNL1        0.1226
     61 H           2.7681    1.8523    1.7471 H       1  UNL1        0.0424
     62 H           2.9951    2.7556    0.2112 H       1  UNL1        0.0424
     63 H           4.9172    0.7774    1.5563 H       1  UNL1        0.0283
     64 H           5.0728    2.5148    1.2462 H       1  UNL1        0.0283
     65 H           5.1265    2.2424   -1.1663 H       1  UNL1        0.0378
     66 H           4.8055    0.4900   -1.0210 H       1  UNL1        0.0378
     67 H           8.3774    0.7345    0.8251 H       1  UNL1        0.2951
     68 H           3.6756   -2.7966    1.3006 H       1  UNL1        0.0621
     69 H           3.6271   -4.8448    0.0198 H       1  UNL1        0.0618
     70 H           2.2084   -4.9633   -2.0623 H       1  UNL1        0.0618
     71 H           0.8870   -2.9665   -2.7585 H       1  UNL1        0.0618
     72 H           1.0034   -0.9091   -1.3756 H       1  UNL1        0.0621
@<TRIPOS>BOND
     1     1     2    1
     2     2     3    1
     3     3     4   ar
     4     4     5   ar
     5     5     6   ar
     6     6     7   ar
     7     7     8    1
     8     8     9   ar
     9     9    10    1
    10     9    11   ar
    11    11    12    1
    12    12    13    1
    13    13    14   ar
    14    14    15    1
    15    14    16   ar
    16    16    17   ar
    17    17    18   ar
    18    18    19   ar
    19    19    20    1
    20    11    21   ar
    21    21    22    2
    22    21    23   ar
    23    23    24    1
    24    24    25    1
    25    25    26    1
    26    26    27    1
    27    27    28    1
    28    28    29    1
    29    29    30    1
    30    30    31    2
    31    30    32    1
    32    25    33    1
    33    33    34   ar
    34    34    35   ar
    35    35    36   ar
    36    36    37   ar
    37    37    38   ar
    38    23    39   ar
    39    39    40    2
    40     7    41   ar
    41    41    42    1
    42    41     3   ar
    43    39     8   ar
    44    19    13   ar
    45    38    33   ar
    46     1    43    1
    47     1    44    1
    48     1    45    1
    49     4    46    1
    50     5    47    1
    51     6    48    1
    52    10    49    1
    53    10    50    1
    54    10    51    1
    55    12    52    1
    56    12    53    1
    57    16    54    1
    58    17    55    1
    59    18    56    1
    60    24    57    1
    61    24    58    1
    62    25    59    1
    63    26    60    1
    64    27    61    1
    65    27    62    1
    66    28    63    1
    67    28    64    1
    68    29    65    1
    69    29    66    1
    70    32    67    1
    71    34    68    1
    72    35    69    1
    73    36    70    1
    74    37    71    1
    75    38    72    1
