
     RDKit          3D

 54 57  0  0  0  0  0  0  0  0999 V2000
   -8.4096   -0.1491    2.3558 C   0  0  0  0  0  0  0  0  0  0  0  0
   -7.2289    0.4861    1.5798 C   0  0  0  0  0  0  0  0  0  0  0  0
   -7.3495    1.7434    1.0508 C   0  0  0  0  0  0  0  0  0  0  0  0
   -5.7029    1.9652    0.2729 S   0  0  0  0  0  0  0  0  0  0  0  0
   -5.0704    0.4427    0.7134 C   0  0  0  0  0  0  0  0  0  0  0  0
   -3.8125   -0.1417    0.4646 C   0  0  0  0  0  0  0  0  0  0  0  0
   -2.8966    0.6446   -0.2737 N   0  0  0  0  0  0  0  0  0  0  0  0
   -1.5915    0.0211   -0.5255 C   0  0  1  0  0  0  0  0  0  0  0  0
   -1.7287   -1.2545   -1.2937 C   0  0  0  0  0  0  0  0  0  0  0  0
   -0.6535    0.9708   -1.2349 C   0  0  0  0  0  0  0  0  0  0  0  0
    0.5801    0.3167   -1.4524 N   0  0  0  0  0  0  0  0  0  0  0  0
    1.3958    0.0111   -0.3471 C   0  0  0  0  0  0  0  0  0  0  0  0
    2.6262    0.8495   -0.2454 C   0  0  0  0  0  0  0  0  0  0  0  0
    3.3251    0.8752   -1.4791 N   0  0  0  0  0  0  0  0  0  0  0  0
    4.3437   -0.4734   -1.6400 S   0  0  0  0  0  6  0  0  0  0  0  0
    5.1074   -0.4742   -2.9378 O   0  0  0  0  0  0  0  0  0  0  0  0
    3.6393   -1.7839   -1.5464 O   0  0  0  0  0  0  0  0  0  0  0  0
    5.5358   -0.4322   -0.3419 C   0  0  0  0  0  0  0  0  0  0  0  0
    5.2762   -1.1302    0.8125 C   0  0  0  0  0  0  0  0  0  0  0  0
    6.1895   -1.1148    1.8534 C   0  0  0  0  0  0  0  0  0  0  0  0
    7.3437   -0.3924    1.6985 C   0  0  0  0  0  0  0  0  0  0  0  0
    8.5469   -0.3238    2.9688 Cl  0  0  0  0  0  0  0  0  0  0  0  0
    7.6093    0.3106    0.5403 C   0  0  0  0  0  0  0  0  0  0  0  0
    9.0924    1.2224    0.3762 Cl  0  0  0  0  0  0  0  0  0  0  0  0
    6.6995    0.2830   -0.4711 C   0  0  0  0  0  0  0  0  0  0  0  0
    2.5382    1.1904   -2.6267 C   0  0  0  0  0  0  0  0  0  0  0  0
    1.2310    0.4651   -2.6846 C   0  0  0  0  0  0  0  0  0  0  0  0
   -3.5484   -1.3778    0.9236 N   0  0  0  0  0  0  0  0  0  0  0  0
   -4.5544   -1.9887    1.6177 C   0  0  0  0  0  0  0  0  0  0  0  0
   -5.7374   -1.4282    1.8468 N   0  0  0  0  0  0  0  0  0  0  0  0
   -6.0529   -0.1566    1.3926 C   0  0  0  0  0  0  0  0  0  0  0  0
   -8.9757   -0.8068    1.6770 H   0  0  0  0  0  0  0  0  0  0  0  0
   -7.9408   -0.7170    3.1691 H   0  0  0  0  0  0  0  0  0  0  0  0
   -9.0207    0.6569    2.7662 H   0  0  0  0  0  0  0  0  0  0  0  0
   -8.1438    2.4906    1.0329 H   0  0  0  0  0  0  0  0  0  0  0  0
   -3.0937    1.5915   -0.6272 H   0  0  0  0  0  0  0  0  0  0  0  0
   -1.1599   -0.2082    0.4672 H   0  0  0  0  0  0  0  0  0  0  0  0
   -1.3013   -1.1392   -2.3177 H   0  0  0  0  0  0  0  0  0  0  0  0
   -1.1495   -2.0401   -0.7909 H   0  0  0  0  0  0  0  0  0  0  0  0
   -2.8015   -1.5386   -1.3286 H   0  0  0  0  0  0  0  0  0  0  0  0
   -1.0813    1.3333   -2.1984 H   0  0  0  0  0  0  0  0  0  0  0  0
   -0.5868    1.8713   -0.5823 H   0  0  0  0  0  0  0  0  0  0  0  0
    1.7274   -1.0631   -0.4710 H   0  0  0  0  0  0  0  0  0  0  0  0
    0.8440   -0.0050    0.6237 H   0  0  0  0  0  0  0  0  0  0  0  0
    2.4283    1.8602    0.1816 H   0  0  0  0  0  0  0  0  0  0  0  0
    3.3010    0.3707    0.5201 H   0  0  0  0  0  0  0  0  0  0  0  0
    4.3656   -1.7085    0.9417 H   0  0  0  0  0  0  0  0  0  0  0  0
    5.9871   -1.6636    2.7625 H   0  0  0  0  0  0  0  0  0  0  0  0
    6.8468    0.8143   -1.4095 H   0  0  0  0  0  0  0  0  0  0  0  0
    2.3353    2.2790   -2.6782 H   0  0  0  0  0  0  0  0  0  0  0  0
    3.1249    0.9007   -3.5279 H   0  0  0  0  0  0  0  0  0  0  0  0
    1.3273   -0.5326   -3.1844 H   0  0  0  0  0  0  0  0  0  0  0  0
    0.5754    1.0535   -3.3936 H   0  0  0  0  0  0  0  0  0  0  0  0
   -4.3513   -2.9755    1.9873 H   0  0  0  0  0  0  0  0  0  0  0  0
  1  2  1  0
  2  3  2  0
  3  4  1  0
  4  5  1  0
  5  6  2  0
  6  7  1  0
  7  8  1  0
  8  9  1  0
  8 10  1  0
 10 11  1  0
 11 12  1  0
 12 13  1  0
 13 14  1  0
 14 15  1  0
 15 16  2  0
 15 17  2  0
 15 18  1  0
 18 19  2  0
 19 20  1  0
 20 21  2  0
 21 22  1  0
 21 23  1  0
 23 24  1  0
 23 25  2  0
 14 26  1  0
 26 27  1  0
  6 28  1  0
 28 29  2  0
 29 30  1  0
 30 31  2  0
 31  2  1  0
 31  5  1  0
 27 11  1  0
 25 18  1  0
  1 32  1  0
  1 33  1  0
  1 34  1  0
  3 35  1  0
  7 36  1  0
  8 37  1  1
  9 38  1  0
  9 39  1  0
  9 40  1  0
 10 41  1  0
 10 42  1  0
 12 43  1  0
 12 44  1  0
 13 45  1  0
 13 46  1  0
 19 47  1  0
 20 48  1  0
 25 49  1  0
 26 50  1  0
 26 51  1  0
 27 52  1  0
 27 53  1  0
 29 54  1  0
M  END
$$$$
