@<TRIPOS>MOLECULE
*****
 54 57 0 0 0
SMALL
GASTEIGER

@<TRIPOS>ATOM
      1 C          -8.4096   -0.1491    2.3558 C.3     1  UNL1       -0.0372
      2 C          -7.2289    0.4861    1.5798 C.ar    1  UNL1       -0.0173
      3 C          -7.3495    1.7434    1.0508 C.ar    1  UNL1       -0.0187
      4 S          -5.7029    1.9652    0.2729 S.2     1  UNL1       -0.0914
      5 C          -5.0704    0.4427    0.7134 C.ar    1  UNL1        0.0775
      6 C          -3.8125   -0.1417    0.4646 C.ar    1  UNL1        0.1366
      7 N          -2.8966    0.6446   -0.2737 N.pl3   1  UNL1       -0.3243
      8 C          -1.5915    0.0211   -0.5255 C.3     1  UNL1        0.0319
      9 C          -1.7287   -1.2545   -1.2937 C.3     1  UNL1       -0.0455
     10 C          -0.6535    0.9708   -1.2349 C.3     1  UNL1        0.0171
     11 N           0.5801    0.3167   -1.4524 N.3     1  UNL1       -0.2981
     12 C           1.3958    0.0111   -0.3471 C.3     1  UNL1        0.0134
     13 C           2.6262    0.8495   -0.2454 C.3     1  UNL1        0.0333
     14 N           3.3251    0.8752   -1.4791 N.3     1  UNL1       -0.1741
     15 S           4.3437   -0.4734   -1.6400 S.O2    1  UNL1        0.0610
     16 O           5.1074   -0.4742   -2.9378 O.2     1  UNL1       -0.1528
     17 O           3.6393   -1.7839   -1.5464 O.2     1  UNL1       -0.1528
     18 C           5.5358   -0.4322   -0.3419 C.ar    1  UNL1        0.1069
     19 C           5.2762   -1.1302    0.8125 C.ar    1  UNL1       -0.0339
     20 C           6.1895   -1.1148    1.8534 C.ar    1  UNL1       -0.0401
     21 C           7.3437   -0.3924    1.6985 C.ar    1  UNL1        0.0594
     22 CL          8.5469   -0.3238    2.9688 Cl      1  UNL1       -0.0820
     23 C           7.6093    0.3106    0.5403 C.ar    1  UNL1        0.0611
     24 CL          9.0924    1.2224    0.3762 Cl      1  UNL1       -0.0820
     25 C           6.6995    0.2830   -0.4711 C.ar    1  UNL1       -0.0156
     26 C           2.5382    1.1904   -2.6267 C.3     1  UNL1        0.0333
     27 C           1.2310    0.4651   -2.6846 C.3     1  UNL1        0.0134
     28 N          -3.5484   -1.3778    0.9236 N.ar    1  UNL1       -0.2198
     29 C          -4.5544   -1.9887    1.6177 C.ar    1  UNL1        0.1188
     30 N          -5.7374   -1.4282    1.8468 N.ar    1  UNL1       -0.2345
     31 C          -6.0529   -0.1566    1.3926 C.ar    1  UNL1        0.0860
     32 H          -8.9757   -0.8068    1.6770 H       1  UNL1        0.0278
     33 H          -7.9408   -0.7170    3.1691 H       1  UNL1        0.0278
     34 H          -9.0207    0.6569    2.7662 H       1  UNL1        0.0278
     35 H          -8.1438    2.4906    1.0329 H       1  UNL1        0.0697
     36 H          -3.0937    1.5915   -0.6272 H       1  UNL1        0.1478
     37 H          -1.1599   -0.2082    0.4672 H       1  UNL1        0.0508
     38 H          -1.3013   -1.1392   -2.3177 H       1  UNL1        0.0248
     39 H          -1.1495   -2.0401   -0.7909 H       1  UNL1        0.0248
     40 H          -2.8015   -1.5386   -1.3286 H       1  UNL1        0.0248
     41 H          -1.0813    1.3333   -2.1984 H       1  UNL1        0.0445
     42 H          -0.5868    1.8713   -0.5823 H       1  UNL1        0.0445
     43 H           1.7274   -1.0631   -0.4710 H       1  UNL1        0.0440
     44 H           0.8440   -0.0050    0.6237 H       1  UNL1        0.0440
     45 H           2.4283    1.8602    0.1816 H       1  UNL1        0.0456
     46 H           3.3010    0.3707    0.5201 H       1  UNL1        0.0456
     47 H           4.3656   -1.7085    0.9417 H       1  UNL1        0.0637
     48 H           5.9871   -1.6636    2.7625 H       1  UNL1        0.0633
     49 H           6.8468    0.8143   -1.4095 H       1  UNL1        0.0652
     50 H           2.3353    2.2790   -2.6782 H       1  UNL1        0.0456
     51 H           3.1249    0.9007   -3.5279 H       1  UNL1        0.0456
     52 H           1.3273   -0.5326   -3.1844 H       1  UNL1        0.0440
     53 H           0.5754    1.0535   -3.3936 H       1  UNL1        0.0440
     54 H          -4.3513   -2.9755    1.9873 H       1  UNL1        0.1048
@<TRIPOS>BOND
     1     1     2    1
     2     2     3   ar
     3     3     4   ar
     4     4     5   ar
     5     5     6   ar
     6     6     7    1
     7     7     8    1
     8     8     9    1
     9     8    10    1
    10    10    11    1
    11    11    12    1
    12    12    13    1
    13    13    14    1
    14    14    15    1
    15    15    16    2
    16    15    17    2
    17    15    18    1
    18    18    19   ar
    19    19    20   ar
    20    20    21   ar
    21    21    22    1
    22    21    23   ar
    23    23    24    1
    24    23    25   ar
    25    14    26    1
    26    26    27    1
    27     6    28   ar
    28    28    29   ar
    29    29    30   ar
    30    30    31   ar
    31    31     2   ar
    32    31     5   ar
    33    27    11    1
    34    25    18   ar
    35     1    32    1
    36     1    33    1
    37     1    34    1
    38     3    35    1
    39     7    36    1
    40     8    37    1
    41     9    38    1
    42     9    39    1
    43     9    40    1
    44    10    41    1
    45    10    42    1
    46    12    43    1
    47    12    44    1
    48    13    45    1
    49    13    46    1
    50    19    47    1
    51    20    48    1
    52    25    49    1
    53    26    50    1
    54    26    51    1
    55    27    52    1
    56    27    53    1
    57    29    54    1
