@<TRIPOS>MOLECULE
*****
 86 91 0 0 0
SMALL
GASTEIGER

@<TRIPOS>ATOM
      1 C           6.2622    1.8113   -1.0688 C.3     1  UNL1        0.1134
      2 C           4.8465    1.3537   -1.4196 C.3     1  UNL1        0.0879
      3 O           4.9398    0.0080   -1.7274 O.3     1  UNL1       -0.2837
      4 P           3.4590   -0.6634   -2.1410 P.3     1  UNL1        0.4835
      5 O           3.6274   -2.3414   -2.2511 O.3     1  UNL1       -0.3022
      6 O           2.9252   -0.1759   -3.4665 O.2     1  UNL1       -0.2269
      7 O           2.3611   -0.2645   -0.9173 O.3     1  UNL1       -0.1858
      8 P           2.9359   -0.7057    0.5871 P.3     1  UNL1        0.4918
      9 O           2.2186   -2.1574    1.0596 O.3     1  UNL1       -0.3019
     10 O           4.4297   -0.9318    0.5097 O.2     1  UNL1       -0.2265
     11 O           2.6732    0.4591    1.7713 O.3     1  UNL1       -0.1855
     12 P           1.3652    1.4614    1.4010 P.3     1  UNL1        0.4918
     13 O           1.3428    2.7003    2.5560 O.3     1  UNL1       -0.3019
     14 O           1.4630    2.0383    0.0258 O.2     1  UNL1       -0.2265
     15 O          -0.0362    0.5454    1.6187 O.3     1  UNL1       -0.1855
     16 P          -1.1578    0.7978    0.4017 P.3     1  UNL1        0.4918
     17 O          -1.3497    2.4184    0.0121 O.3     1  UNL1       -0.3019
     18 O          -0.8305    0.0339   -0.8622 O.2     1  UNL1       -0.2265
     19 O          -2.6687    0.2369    0.9766 O.3     1  UNL1       -0.1858
     20 P          -3.7301   -0.0640   -0.2828 P.3     1  UNL1        0.4835
     21 O          -3.7259   -1.6671   -0.7621 O.3     1  UNL1       -0.3022
     22 O          -3.4549    0.8483   -1.4567 O.2     1  UNL1       -0.2269
     23 O          -5.3038    0.3059    0.2782 O.3     1  UNL1       -0.2837
     24 C          -5.5959    1.6296   -0.0269 C.3     1  UNL1        0.0879
     25 C          -6.9991    1.9629    0.4723 C.3     1  UNL1        0.1134
     26 O          -7.9183    1.1236   -0.1507 O.3     1  UNL1       -0.3456
     27 C          -9.0668    1.1519    0.6368 C.3     1  UNL1        0.1667
     28 N          -9.8947   -0.0148    0.4018 N.ar    1  UNL1       -0.2855
     29 C         -11.1375   -0.0464    0.9523 C.ar    1  UNL1        0.1004
     30 N         -11.7311   -1.2053    0.6145 N.ar    1  UNL1       -0.2306
     31 C         -10.8880   -1.9241   -0.1477 C.ar    1  UNL1        0.1473
     32 C         -10.8647   -3.1419   -0.7980 C.ar    1  UNL1        0.1472
     33 N         -12.0479   -3.9476   -0.6812 N.pl3   1  UNL1       -0.3413
     34 N          -9.7722   -3.5451   -1.5083 N.ar    1  UNL1       -0.2188
     35 C          -8.6786   -2.7533   -1.5914 C.ar    1  UNL1        0.1205
     36 N          -8.6567   -1.5412   -0.9647 N.ar    1  UNL1       -0.2159
     37 C          -9.7418   -1.1679   -0.2735 C.ar    1  UNL1        0.1674
     38 C          -8.5882    1.2599    2.0677 C.3     1  UNL1        0.1285
     39 O          -9.1725    2.3367    2.7319 O.3     1  UNL1       -0.3847
     40 C          -7.0976    1.5021    1.9010 C.3     1  UNL1        0.1135
     41 O          -6.6541    2.4652    2.7975 O.3     1  UNL1       -0.3864
     42 O           6.7674    1.1094    0.0107 O.3     1  UNL1       -0.3456
     43 C           8.1347    1.0775   -0.2233 C.3     1  UNL1        0.1667
     44 N           8.8716    0.2587    0.6862 N.ar    1  UNL1       -0.2855
     45 C           9.3149    0.7435    1.8764 C.ar    1  UNL1        0.1004
     46 N           9.9749   -0.2696    2.5070 N.ar    1  UNL1       -0.2306
     47 C           9.9327   -1.3397    1.7201 C.ar    1  UNL1        0.1473
     48 C          10.4012   -2.6368    1.7876 C.ar    1  UNL1        0.1472
     49 N          11.1280   -3.0669    2.9328 N.pl3   1  UNL1       -0.3413
     50 N          10.2073   -3.5555    0.8024 N.ar    1  UNL1       -0.2188
     51 C           9.5195   -3.1977   -0.3139 C.ar    1  UNL1        0.1205
     52 N           9.0542   -1.9390   -0.4004 N.ar    1  UNL1       -0.2159
     53 C           9.2459   -1.0447    0.5646 C.ar    1  UNL1        0.1674
     54 C           8.1471    0.5589   -1.6504 C.3     1  UNL1        0.1285
     55 O           9.3952    0.6737   -2.2401 O.3     1  UNL1       -0.3847
     56 C           7.1153    1.4945   -2.2616 C.3     1  UNL1        0.1135
     57 O           7.8323    2.6294   -2.6985 O.3     1  UNL1       -0.3864
     58 H           6.2713    2.9044   -0.8901 H       1  UNL1        0.0647
     59 H           4.5754    1.8921   -2.3518 H       1  UNL1        0.0592
     60 H           4.1662    1.5790   -0.5960 H       1  UNL1        0.0592
     61 H           4.1922   -2.5216   -3.0647 H       1  UNL1        0.2220
     62 H           1.2567   -2.1774    0.8785 H       1  UNL1        0.2220
     63 H           1.3462    3.5989    2.1628 H       1  UNL1        0.2220
     64 H          -0.7592    2.7368   -0.7031 H       1  UNL1        0.2220
     65 H          -3.6156   -1.7855   -1.7397 H       1  UNL1        0.2220
     66 H          -4.9004    2.2667    0.5690 H       1  UNL1        0.0592
     67 H          -5.5046    1.8517   -1.1170 H       1  UNL1        0.0592
     68 H          -7.2403    3.0165    0.3371 H       1  UNL1        0.0647
     69 H          -9.6832    2.0548    0.4143 H       1  UNL1        0.0866
     70 H         -11.6629    0.6750    1.5710 H       1  UNL1        0.1030
     71 H         -12.2787   -4.8890   -0.2913 H       1  UNL1        0.1438
     72 H         -12.9687   -3.6356   -1.0297 H       1  UNL1        0.1438
     73 H          -7.8732   -3.1826   -2.1844 H       1  UNL1        0.1048
     74 H          -8.7456    0.3267    2.6356 H       1  UNL1        0.0665
     75 H          -9.0063    3.1450    2.2051 H       1  UNL1        0.2101
     76 H          -6.5166    0.5640    2.0157 H       1  UNL1        0.0647
     77 H          -5.7094    2.2449    3.0077 H       1  UNL1        0.2100
     78 H           8.4943    2.1259   -0.2813 H       1  UNL1        0.0866
     79 H           9.2058    1.7323    2.3122 H       1  UNL1        0.1030
     80 H          11.1356   -3.6740    3.7798 H       1  UNL1        0.1438
     81 H          12.0736   -2.5946    2.9929 H       1  UNL1        0.1438
     82 H           9.4149   -3.9864   -1.0382 H       1  UNL1        0.1048
     83 H           7.7243   -0.4671   -1.7363 H       1  UNL1        0.0665
     84 H           9.3979    0.0264   -2.9962 H       1  UNL1        0.2101
     85 H           6.5675    1.0458   -3.1067 H       1  UNL1        0.0647
     86 H           7.5142    3.4398   -2.2132 H       1  UNL1        0.2100
@<TRIPOS>BOND
     1     1     2    1
     2     2     3    1
     3     3     4    1
     4     4     5    1
     5     4     6    2
     6     4     7    1
     7     7     8    1
     8     8     9    1
     9     8    10    2
    10     8    11    1
    11    11    12    1
    12    12    13    1
    13    12    14    2
    14    12    15    1
    15    15    16    1
    16    16    17    1
    17    16    18    2
    18    16    19    1
    19    19    20    1
    20    20    21    1
    21    20    22    2
    22    20    23    1
    23    23    24    1
    24    24    25    1
    25    25    26    1
    26    26    27    1
    27    27    28    1
    28    28    29   ar
    29    29    30   ar
    30    30    31   ar
    31    31    32   ar
    32    32    33    1
    33    32    34   ar
    34    34    35   ar
    35    35    36   ar
    36    36    37   ar
    37    27    38    1
    38    38    39    1
    39    38    40    1
    40    40    41    1
    41     1    42    1
    42    42    43    1
    43    43    44    1
    44    44    45   ar
    45    45    46   ar
    46    46    47   ar
    47    47    48   ar
    48    48    49    1
    49    48    50   ar
    50    50    51   ar
    51    51    52   ar
    52    52    53   ar
    53    43    54    1
    54    54    55    1
    55    54    56    1
    56    56    57    1
    57    56     1    1
    58    40    25    1
    59    53    44   ar
    60    37    28   ar
    61    53    47   ar
    62    37    31   ar
    63     1    58    1
    64     2    59    1
    65     2    60    1
    66     5    61    1
    67     9    62    1
    68    13    63    1
    69    17    64    1
    70    21    65    1
    71    24    66    1
    72    24    67    1
    73    25    68    1
    74    27    69    1
    75    29    70    1
    76    33    71    1
    77    33    72    1
    78    35    73    1
    79    38    74    1
    80    39    75    1
    81    40    76    1
    82    41    77    1
    83    43    78    1
    84    45    79    1
    85    49    80    1
    86    49    81    1
    87    51    82    1
    88    54    83    1
    89    55    84    1
    90    56    85    1
    91    57    86    1
