@<TRIPOS>MOLECULE
*****
 32 32 0 0 0
SMALL
GASTEIGER

@<TRIPOS>ATOM
      1 O          -0.8192   -2.1465    0.7237 O.3     1  UNL1       -0.3931
      2 C          -1.5729   -2.1175   -0.4458 C.3     1  UNL1        0.0653
      3 CA         -1.4346   -0.8406   -1.2149 C.3     1  UNL1        0.0762
      4 N          -1.8588    0.2640   -0.3515 N.am    1  UNL1       -0.3052
      5 C          -2.9656    1.1312   -0.4640 C.2     1  UNL1        0.2462
      6 O          -3.7623    0.9838   -1.4512 O.2     1  UNL1       -0.2729
      7 C          -3.1124    2.1699    0.6054 C.3     1  UNL1        0.1830
      8 CL         -1.7242    3.2593    0.6904 Cl      1  UNL1       -0.0945
      9 CL         -4.5774    3.0893    0.1799 Cl      1  UNL1       -0.0945
     10 C          -0.0948   -0.6280   -1.8443 C.3     1  UNL1        0.1006
     11 O           0.1909   -1.7523   -2.6452 O.3     1  UNL1       -0.3853
     12 C           0.9932   -0.2940   -0.9075 C.ar    1  UNL1       -0.0169
     13 C           1.8149   -1.1429   -0.1988 C.ar    1  UNL1       -0.0497
     14 C           2.7842   -0.6534    0.6532 C.ar    1  UNL1        0.0159
     15 C           2.9824    0.7006    0.8403 C.ar    1  UNL1        0.2732
     16 C           2.1842    1.5934    0.1520 C.ar    1  UNL1        0.0159
     17 C           1.2223    1.0729   -0.6936 C.ar    1  UNL1       -0.0497
     18 N           4.0000    1.1390    1.7339 N.pl3   1  UNL1        0.0796
     19 O           4.8709    0.3809    2.4872 O.co2   1  UNL1       -0.5760
     20 O           4.1880    2.3630    1.9107 O.2     1  UNL1        0.0414
     21 H          -1.1228   -2.9736    1.2029 H       1  UNL1        0.2095
     22 H1         -1.2787   -3.0112   -1.0442 H       1  UNL1        0.0576
     23 H2         -2.6230   -2.3070   -0.1234 H       1  UNL1        0.0576
     24 HA         -2.1707   -0.9361   -2.0788 H       1  UNL1        0.0550
     25 H          -1.1580    0.3179    0.4277 H       1  UNL1        0.1492
     26 H          -3.2688    1.7243    1.5942 H       1  UNL1        0.0732
     27 H          -0.1762    0.1973   -2.6345 H       1  UNL1        0.0663
     28 H           0.5170   -2.5130   -2.1111 H       1  UNL1        0.2103
     29 H           1.6524   -2.1865   -0.3635 H       1  UNL1        0.0623
     30 H           3.4047   -1.3565    1.1882 H       1  UNL1        0.0685
     31 H           2.3042    2.6494    0.2674 H       1  UNL1        0.0685
     32 H           0.6111    1.8227   -1.2199 H       1  UNL1        0.0623
@<TRIPOS>UNITY_ATOM_ATTR
18 1
charge 1
19 1
charge -1
@<TRIPOS>BOND
     1     1     2    1
     2     2     3    1
     3     3     4    1
     4     4     5   am
     5     5     6    2
     6     5     7    1
     7     7     8    1
     8     7     9    1
     9     3    10    1
    10    10    11    1
    11    10    12    1
    12    12    13   ar
    13    13    14   ar
    14    14    15   ar
    15    15    16   ar
    16    16    17   ar
    17    15    18    1
    18    18    19    1
    19    18    20    2
    20    17    12   ar
    21     1    21    1
    22     2    22    1
    23     2    23    1
    24     3    24    1
    25     4    25    1
    26     7    26    1
    27    10    27    1
    28    11    28    1
    29    13    29    1
    30    14    30    1
    31    16    31    1
    32    17    32    1
