@<TRIPOS>MOLECULE
*****
 68 72 0 0 0
SMALL
GASTEIGER

@<TRIPOS>ATOM
      1 C          -0.4407    0.8835   -0.6836 C.ar    1  UNL1       -0.0566
      2 C           0.5219    0.0414   -1.2458 C.ar    1  UNL1       -0.0566
      3 C           0.9861   -1.0462   -0.5572 C.ar    1  UNL1       -0.0278
      4 C           1.9917   -1.9277   -1.1419 C.3     1  UNL1        0.0478
      5 N           3.3058   -1.4033   -0.7843 N.ar    1  UNL1       -0.3486
      6 C           3.9119   -1.8037    0.3453 C.ar    1  UNL1        0.0111
      7 C           5.1530   -1.3195    0.7016 C.ar    1  UNL1        0.0254
      8 C           5.8413   -0.3987   -0.0798 C.ar    1  UNL1        0.2053
      9 N           6.9798    0.0253    0.2830 N.2     1  UNL1       -0.2284
     10 C           7.5535   -0.4778    1.5466 C.3     1  UNL1        0.1456
     11 C           8.8298    0.2804    1.8607 C.3     1  UNL1        0.0067
     12 C           9.8709    0.1288    0.7952 C.3     1  UNL1       -0.0416
     13 C           9.2528    0.4580   -0.5232 C.3     1  UNL1        0.0067
     14 C           7.8265    0.9703   -0.4021 C.3     1  UNL1        0.1456
     15 C           5.2126    0.0028   -1.2309 C.ar    1  UNL1        0.0254
     16 C           3.9506   -0.5147   -1.5553 C.ar    1  UNL1        0.0111
     17 C           0.4912   -1.3027    0.7023 C.ar    1  UNL1       -0.0566
     18 C          -0.4558   -0.4945    1.2837 C.ar    1  UNL1       -0.0566
     19 C          -0.9165    0.5947    0.5867 C.ar    1  UNL1       -0.0278
     20 C          -1.9353    1.4981    1.1706 C.3     1  UNL1        0.0478
     21 N          -3.2740    1.0902    0.8393 N.ar    1  UNL1       -0.3486
     22 C          -3.9452    0.2456    1.6266 C.ar    1  UNL1        0.0111
     23 C          -5.2305   -0.1391    1.2996 C.ar    1  UNL1        0.0254
     24 C          -5.8616    0.3204    0.1740 C.ar    1  UNL1        0.2053
     25 N          -7.0431    0.0122   -0.2008 N.2     1  UNL1       -0.2284
     26 C          -7.6104    0.5774   -1.4363 C.3     1  UNL1        0.1456
     27 C          -9.0536    0.1481   -1.5129 C.3     1  UNL1        0.0067
     28 C          -9.8325    0.3966   -0.2560 C.3     1  UNL1       -0.0416
     29 C          -9.0978   -0.0631    0.9873 C.3     1  UNL1        0.0067
     30 C          -7.9198   -0.8888    0.5102 C.3     1  UNL1        0.1456
     31 C          -5.1246    1.1984   -0.6169 C.ar    1  UNL1        0.0254
     32 C          -3.8408    1.5703   -0.2721 C.ar    1  UNL1        0.0111
     33 H          -0.8050    1.7430   -1.2323 H       1  UNL1        0.0621
     34 H           0.8627    0.3062   -2.2372 H       1  UNL1        0.0621
     35 H           1.8368   -1.9599   -2.2348 H       1  UNL1        0.0541
     36 H           1.9646   -2.9710   -0.7780 H       1  UNL1        0.0541
     37 H           3.4132   -2.5233    0.9904 H       1  UNL1        0.0811
     38 H           5.6500   -1.6466    1.6239 H       1  UNL1        0.0698
     39 H           6.8652   -0.2200    2.4032 H       1  UNL1        0.1026
     40 H           7.7954   -1.5376    1.4886 H       1  UNL1        0.1026
     41 H           8.5750    1.3631    2.0315 H       1  UNL1        0.0326
     42 H           9.1935   -0.0763    2.8528 H       1  UNL1        0.0326
     43 H          10.2999   -0.8851    0.8659 H       1  UNL1        0.0269
     44 H          10.6937    0.8483    1.0546 H       1  UNL1        0.0269
     45 H           9.2949   -0.4318   -1.1728 H       1  UNL1        0.0326
     46 H           9.8280    1.2782   -1.0043 H       1  UNL1        0.0326
     47 H           7.8749    1.9245    0.2018 H       1  UNL1        0.1026
     48 H           7.5208    1.2655   -1.3968 H       1  UNL1        0.1026
     49 H           5.6920    0.7176   -1.8838 H       1  UNL1        0.0698
     50 H           3.4784   -0.1812   -2.4675 H       1  UNL1        0.0811
     51 H           0.8285   -2.1552    1.2898 H       1  UNL1        0.0621
     52 H          -0.8258   -0.7066    2.2545 H       1  UNL1        0.0621
     53 H          -1.8290    1.4690    2.2877 H       1  UNL1        0.0541
     54 H          -1.7323    2.5653    0.8822 H       1  UNL1        0.0541
     55 H          -3.4482   -0.1212    2.5200 H       1  UNL1        0.0811
     56 H          -5.7243   -0.8107    1.9570 H       1  UNL1        0.0698
     57 H          -7.5727    1.6865   -1.3681 H       1  UNL1        0.1026
     58 H          -7.0685    0.1559   -2.2896 H       1  UNL1        0.1026
     59 H          -9.1915   -0.8674   -1.9421 H       1  UNL1        0.0326
     60 H          -9.5180    0.8272   -2.2914 H       1  UNL1        0.0326
     61 H         -10.7558   -0.2165   -0.3173 H       1  UNL1        0.0269
     62 H         -10.1239    1.4636   -0.2114 H       1  UNL1        0.0269
     63 H          -9.7515   -0.6161    1.6891 H       1  UNL1        0.0326
     64 H          -8.7703    0.8618    1.5263 H       1  UNL1        0.0326
     65 H          -7.4596   -1.4949    1.2818 H       1  UNL1        0.1026
     66 H          -8.3385   -1.5854   -0.2536 H       1  UNL1        0.1026
     67 H          -5.5562    1.6071   -1.5301 H       1  UNL1        0.0698
     68 H          -3.2938    2.2615   -0.9179 H       1  UNL1        0.0811
@<TRIPOS>UNITY_ATOM_ATTR
9 1
charge 1
25 1
charge 1
@<TRIPOS>BOND
     1     1     2   ar
     2     2     3   ar
     3     3     4    1
     4     4     5    1
     5     5     6   ar
     6     6     7   ar
     7     7     8   ar
     8     8     9    2
     9     9    10    1
    10    10    11    1
    11    11    12    1
    12    12    13    1
    13    13    14    1
    14     8    15   ar
    15    15    16   ar
    16     3    17   ar
    17    17    18   ar
    18    18    19   ar
    19    19    20    1
    20    20    21    1
    21    21    22   ar
    22    22    23   ar
    23    23    24   ar
    24    24    25    2
    25    25    26    1
    26    26    27    1
    27    27    28    1
    28    28    29    1
    29    29    30    1
    30    24    31   ar
    31    31    32   ar
    32    19     1   ar
    33    32    21   ar
    34    16     5   ar
    35    30    25    1
    36    14     9    1
    37     1    33    1
    38     2    34    1
    39     4    35    1
    40     4    36    1
    41     6    37    1
    42     7    38    1
    43    10    39    1
    44    10    40    1
    45    11    41    1
    46    11    42    1
    47    12    43    1
    48    12    44    1
    49    13    45    1
    50    13    46    1
    51    14    47    1
    52    14    48    1
    53    15    49    1
    54    16    50    1
    55    17    51    1
    56    18    52    1
    57    20    53    1
    58    20    54    1
    59    22    55    1
    60    23    56    1
    61    26    57    1
    62    26    58    1
    63    27    59    1
    64    27    60    1
    65    28    61    1
    66    28    62    1
    67    29    63    1
    68    29    64    1
    69    30    65    1
    70    30    66    1
    71    31    67    1
    72    32    68    1
