
     RDKit          3D

 63 67  0  0  0  0  0  0  0  0999 V2000
   -3.9988   -1.6265   -2.0859 C   0  0  0  0  0  0  0  0  0  0  0  0
   -3.5754   -1.0954   -0.7349 C   0  0  1  0  0  0  0  0  0  0  0  0
   -3.9173    0.2669   -0.5900 O   0  0  0  0  0  0  0  0  0  0  0  0
   -2.9706    1.2447   -0.3731 C   0  0  0  0  0  0  0  0  0  0  0  0
   -1.6819    0.9191   -0.2934 N   0  0  0  0  0  0  0  0  0  0  0  0
   -0.7287    1.8197   -0.0859 C   0  0  0  0  0  0  0  0  0  0  0  0
    0.6681    1.4161   -0.0061 C   0  0  0  0  0  0  0  0  0  0  0  0
    0.9910    0.0581   -0.1523 C   0  0  0  0  0  0  0  0  0  0  0  0
    2.2933   -0.3605   -0.0834 C   0  0  0  0  0  0  0  0  0  0  0  0
    3.3477    0.4909    0.1273 C   0  0  0  0  0  0  0  0  0  0  0  0
    4.7489    0.0597    0.2039 C   0  0  0  0  0  0  0  0  0  0  0  0
    5.2121   -0.6016   -1.0817 C   0  0  0  0  0  0  0  0  0  0  0  0
    6.7123   -0.7763   -0.9644 C   0  0  0  0  0  0  0  0  0  0  0  0
    7.0392   -1.2955    0.3353 N   0  0  0  0  0  0  0  0  0  0  0  0
    8.2492   -2.0756    0.3564 C   0  0  0  0  0  0  0  0  0  0  0  0
    5.9380   -2.0151    0.9206 C   0  0  0  0  0  0  0  0  0  0  0  0
    4.8745   -0.9900    1.2961 C   0  0  0  0  0  0  0  0  0  0  0  0
    3.0490    1.8259    0.2728 C   0  0  0  0  0  0  0  0  0  0  0  0
    1.7221    2.2682    0.2047 C   0  0  0  0  0  0  0  0  0  0  0  0
   -1.0867    3.1377    0.0518 C   0  0  0  0  0  0  0  0  0  0  0  0
   -2.4187    3.5340   -0.0229 C   0  0  0  0  0  0  0  0  0  0  0  0
   -3.0084    4.7121    0.0746 N   0  0  0  0  0  0  0  0  0  0  0  0
   -4.3202    4.5442   -0.0715 N   0  0  0  0  0  0  0  0  0  0  0  0
   -5.2624    5.6403   -0.0182 C   0  0  0  0  0  0  0  0  0  0  0  0
   -4.5765    3.2407   -0.2655 C   0  0  0  0  0  0  0  0  0  0  0  0
   -3.3603    2.5648   -0.2382 C   0  0  0  0  0  0  0  0  0  0  0  0
   -4.2240   -1.8465    0.3987 C   0  0  1  0  0  0  0  0  0  0  0  0
   -5.7435   -1.7150    0.2880 C   0  0  0  0  0  0  0  0  0  0  0  0
   -6.2488   -3.0280    0.5951 N   0  0  0  0  0  0  0  0  0  0  0  0
   -5.2428   -3.9722    0.2975 C   0  0  0  0  0  0  0  0  0  0  0  0
   -5.4881   -5.1786   -0.0003 O   0  0  0  0  0  0  0  0  0  0  0  0
   -3.9273   -3.3106    0.3971 C   0  0  0  0  0  0  0  0  0  0  0  0
   -4.7278   -2.4528   -2.0173 H   0  0  0  0  0  0  0  0  0  0  0  0
   -4.4789   -0.7930   -2.6577 H   0  0  0  0  0  0  0  0  0  0  0  0
   -3.1203   -1.9356   -2.6891 H   0  0  0  0  0  0  0  0  0  0  0  0
   -2.4798   -1.2067   -0.6457 H   0  0  0  0  0  0  0  0  0  0  0  0
    0.1576   -0.6315   -0.3210 H   0  0  0  0  0  0  0  0  0  0  0  0
    2.5439   -1.4203   -0.1977 H   0  0  0  0  0  0  0  0  0  0  0  0
    5.4025    0.9335    0.3799 H   0  0  0  0  0  0  0  0  0  0  0  0
    4.7261   -1.5661   -1.2288 H   0  0  0  0  0  0  0  0  0  0  0  0
    4.9964    0.0826   -1.9541 H   0  0  0  0  0  0  0  0  0  0  0  0
    7.1542   -1.3284   -1.8016 H   0  0  0  0  0  0  0  0  0  0  0  0
    7.1449    0.2592   -1.0126 H   0  0  0  0  0  0  0  0  0  0  0  0
    8.9237   -1.8777   -0.4912 H   0  0  0  0  0  0  0  0  0  0  0  0
    8.8084   -1.8095    1.2785 H   0  0  0  0  0  0  0  0  0  0  0  0
    8.0459   -3.1712    0.4322 H   0  0  0  0  0  0  0  0  0  0  0  0
    5.4725   -2.7468    0.2579 H   0  0  0  0  0  0  0  0  0  0  0  0
    6.2973   -2.4522    1.8725 H   0  0  0  0  0  0  0  0  0  0  0  0
    5.1323   -0.4698    2.2522 H   0  0  0  0  0  0  0  0  0  0  0  0
    3.9322   -1.5559    1.4285 H   0  0  0  0  0  0  0  0  0  0  0  0
    3.7978    2.5867    0.4428 H   0  0  0  0  0  0  0  0  0  0  0  0
    1.5269    3.3195    0.3231 H   0  0  0  0  0  0  0  0  0  0  0  0
   -0.3598    3.9343    0.2243 H   0  0  0  0  0  0  0  0  0  0  0  0
   -4.7591    6.6032   -0.2619 H   0  0  0  0  0  0  0  0  0  0  0  0
   -6.1050    5.5281   -0.7227 H   0  0  0  0  0  0  0  0  0  0  0  0
   -5.6043    5.7336    1.0411 H   0  0  0  0  0  0  0  0  0  0  0  0
   -5.5315    2.7769   -0.4163 H   0  0  0  0  0  0  0  0  0  0  0  0
   -3.9091   -1.3523    1.3396 H   0  0  0  0  0  0  0  0  0  0  0  0
   -6.1296   -0.9307    0.9636 H   0  0  0  0  0  0  0  0  0  0  0  0
   -6.0156   -1.4604   -0.7623 H   0  0  0  0  0  0  0  0  0  0  0  0
   -7.2137   -3.1854    0.9743 H   0  0  0  0  0  0  0  0  0  0  0  0
   -3.4826   -3.6371    1.3755 H   0  0  0  0  0  0  0  0  0  0  0  0
   -3.2106   -3.6300   -0.3808 H   0  0  0  0  0  0  0  0  0  0  0  0
  1  2  1  0
  2  3  1  0
  3  4  1  0
  4  5  2  0
  5  6  1  0
  6  7  1  0
  7  8  2  0
  8  9  1  0
  9 10  2  0
 10 11  1  0
 11 12  1  0
 12 13  1  0
 13 14  1  0
 14 15  1  0
 14 16  1  0
 16 17  1  0
 10 18  1  0
 18 19  2  0
  6 20  2  0
 20 21  1  0
 21 22  2  0
 22 23  1  0
 23 24  1  0
 23 25  1  0
 25 26  2  0
  2 27  1  0
 27 28  1  0
 28 29  1  0
 29 30  1  0
 30 31  2  0
 30 32  1  0
 26  4  1  0
 32 27  1  0
 19  7  1  0
 26 21  1  0
 17 11  1  0
  1 33  1  0
  1 34  1  0
  1 35  1  0
  2 36  1  1
  8 37  1  0
  9 38  1  0
 11 39  1  0
 12 40  1  0
 12 41  1  0
 13 42  1  0
 13 43  1  0
 15 44  1  0
 15 45  1  0
 15 46  1  0
 16 47  1  0
 16 48  1  0
 17 49  1  0
 17 50  1  0
 18 51  1  0
 19 52  1  0
 20 53  1  0
 24 54  1  0
 24 55  1  0
 24 56  1  0
 25 57  1  0
 27 58  1  1
 28 59  1  0
 28 60  1  0
 29 61  1  0
 32 62  1  0
 32 63  1  0
M  END
$$$$
