@<TRIPOS>MOLECULE
*****
 63 67 0 0 0
SMALL
GASTEIGER

@<TRIPOS>ATOM
      1 C          -3.9988   -1.6265   -2.0859 C.3     1  UNL1       -0.0274
      2 C          -3.5754   -1.0954   -0.7349 C.3     1  UNL1        0.1037
      3 O          -3.9173    0.2669   -0.5900 O.3     1  UNL1       -0.4725
      4 C          -2.9706    1.2447   -0.3731 C.ar    1  UNL1        0.2265
      5 N          -1.6819    0.9191   -0.2934 N.ar    1  UNL1       -0.2122
      6 C          -0.7287    1.8197   -0.0859 C.ar    1  UNL1        0.0769
      7 C           0.6681    1.4161   -0.0061 C.ar    1  UNL1        0.0006
      8 C           0.9910    0.0581   -0.1523 C.ar    1  UNL1       -0.0523
      9 C           2.2933   -0.3605   -0.0834 C.ar    1  UNL1       -0.0577
     10 C           3.3477    0.4909    0.1273 C.ar    1  UNL1       -0.0442
     11 C           4.7489    0.0597    0.2039 C.3     1  UNL1       -0.0135
     12 C           5.2121   -0.6016   -1.0817 C.3     1  UNL1       -0.0333
     13 C           6.7123   -0.7763   -0.9644 C.3     1  UNL1       -0.0009
     14 N           7.0392   -1.2955    0.3353 N.3     1  UNL1       -0.3053
     15 C           8.2492   -2.0756    0.3564 C.3     1  UNL1       -0.0128
     16 C           5.9380   -2.0151    0.9206 C.3     1  UNL1       -0.0009
     17 C           4.8745   -0.9900    1.2961 C.3     1  UNL1       -0.0333
     18 C           3.0490    1.8259    0.2728 C.ar    1  UNL1       -0.0577
     19 C           1.7221    2.2682    0.2047 C.ar    1  UNL1       -0.0523
     20 C          -1.0867    3.1377    0.0518 C.ar    1  UNL1       -0.0077
     21 C          -2.4187    3.5340   -0.0229 C.ar    1  UNL1        0.0999
     22 N          -3.0084    4.7121    0.0746 N.ar    1  UNL1       -0.1712
     23 N          -4.3202    4.5442   -0.0715 N.ar    1  UNL1       -0.2732
     24 C          -5.2624    5.6403   -0.0182 C.3     1  UNL1        0.0302
     25 C          -4.5765    3.2407   -0.2655 C.ar    1  UNL1        0.0380
     26 C          -3.3603    2.5648   -0.2382 C.ar    1  UNL1        0.0812
     27 C          -4.2240   -1.8465    0.3987 C.3     1  UNL1        0.0196
     28 C          -5.7435   -1.7150    0.2880 C.3     1  UNL1        0.0182
     29 N          -6.2488   -3.0280    0.5951 N.am    1  UNL1       -0.3149
     30 C          -5.2428   -3.9722    0.2975 C.2     1  UNL1        0.2135
     31 O          -5.4881   -5.1786   -0.0003 O.2     1  UNL1       -0.2758
     32 C          -3.9273   -3.3106    0.3971 C.3     1  UNL1        0.0315
     33 H          -4.7278   -2.4528   -2.0173 H       1  UNL1        0.0265
     34 H          -4.4789   -0.7930   -2.6577 H       1  UNL1        0.0265
     35 H          -3.1203   -1.9356   -2.6891 H       1  UNL1        0.0265
     36 H          -2.4798   -1.2067   -0.6457 H       1  UNL1        0.0734
     37 H           0.1576   -0.6315   -0.3210 H       1  UNL1        0.0624
     38 H           2.5439   -1.4203   -0.1977 H       1  UNL1        0.0621
     39 H           5.4025    0.9335    0.3799 H       1  UNL1        0.0350
     40 H           4.7261   -1.5661   -1.2288 H       1  UNL1        0.0283
     41 H           4.9964    0.0826   -1.9541 H       1  UNL1        0.0283
     42 H           7.1542   -1.3284   -1.8016 H       1  UNL1        0.0427
     43 H           7.1449    0.2592   -1.0126 H       1  UNL1        0.0427
     44 H           8.9237   -1.8777   -0.4912 H       1  UNL1        0.0391
     45 H           8.8084   -1.8095    1.2785 H       1  UNL1        0.0391
     46 H           8.0459   -3.1712    0.4322 H       1  UNL1        0.0391
     47 H           5.4725   -2.7468    0.2579 H       1  UNL1        0.0427
     48 H           6.2973   -2.4522    1.8725 H       1  UNL1        0.0427
     49 H           5.1323   -0.4698    2.2522 H       1  UNL1        0.0283
     50 H           3.9322   -1.5559    1.4285 H       1  UNL1        0.0283
     51 H           3.7978    2.5867    0.4428 H       1  UNL1        0.0621
     52 H           1.5269    3.3195    0.3231 H       1  UNL1        0.0624
     53 H          -0.3598    3.9343    0.2243 H       1  UNL1        0.0661
     54 H          -4.7591    6.6032   -0.2619 H       1  UNL1        0.0473
     55 H          -6.1050    5.5281   -0.7227 H       1  UNL1        0.0473
     56 H          -5.6043    5.7336    1.0411 H       1  UNL1        0.0473
     57 H          -5.5315    2.7769   -0.4163 H       1  UNL1        0.0834
     58 H          -3.9091   -1.3523    1.3396 H       1  UNL1        0.0356
     59 H          -6.1296   -0.9307    0.9636 H       1  UNL1        0.0466
     60 H          -6.0156   -1.4604   -0.7623 H       1  UNL1        0.0466
     61 H          -7.2137   -3.1854    0.9743 H       1  UNL1        0.1487
     62 H          -3.4826   -3.6371    1.3755 H       1  UNL1        0.0363
     63 H          -3.2106   -3.6300   -0.3808 H       1  UNL1        0.0363
@<TRIPOS>BOND
     1     1     2    1
     2     2     3    1
     3     3     4    1
     4     4     5   ar
     5     5     6   ar
     6     6     7    1
     7     7     8   ar
     8     8     9   ar
     9     9    10   ar
    10    10    11    1
    11    11    12    1
    12    12    13    1
    13    13    14    1
    14    14    15    1
    15    14    16    1
    16    16    17    1
    17    10    18   ar
    18    18    19   ar
    19     6    20   ar
    20    20    21   ar
    21    21    22   ar
    22    22    23   ar
    23    23    24    1
    24    23    25   ar
    25    25    26   ar
    26     2    27    1
    27    27    28    1
    28    28    29    1
    29    29    30   am
    30    30    31    2
    31    30    32    1
    32    26     4   ar
    33    32    27    1
    34    19     7   ar
    35    26    21   ar
    36    17    11    1
    37     1    33    1
    38     1    34    1
    39     1    35    1
    40     2    36    1
    41     8    37    1
    42     9    38    1
    43    11    39    1
    44    12    40    1
    45    12    41    1
    46    13    42    1
    47    13    43    1
    48    15    44    1
    49    15    45    1
    50    15    46    1
    51    16    47    1
    52    16    48    1
    53    17    49    1
    54    17    50    1
    55    18    51    1
    56    19    52    1
    57    20    53    1
    58    24    54    1
    59    24    55    1
    60    24    56    1
    61    25    57    1
    62    27    58    1
    63    28    59    1
    64    28    60    1
    65    29    61    1
    66    32    62    1
    67    32    63    1
