@<TRIPOS>MOLECULE
*****
 18 17 0 0 0
SMALL
GASTEIGER

@<TRIPOS>ATOM
      1 O           2.4401    0.5011   -1.2140 O.3     1  UNL1       -0.2927
      2 N           1.7812    0.0637   -0.1104 N.am    1  UNL1       -0.1858
      3 C           0.4472    0.5744    0.2469 C.3     1  UNL1        0.0523
      4 C          -0.5097   -0.3501   -0.4466 C.3     1  UNL1        0.0675
      5 P          -2.2372    0.0206   -0.1977 P.3     1  UNL1        0.3294
      6 O          -2.5584    1.5134    0.4699 O.3     1  UNL1       -0.3240
      7 O          -3.0269   -1.1738    0.7131 O.3     1  UNL1       -0.3240
      8 O          -2.9078   -0.0064   -1.5729 O.2     1  UNL1       -0.2588
      9 C           2.4546   -0.9135    0.6762 C.2     1  UNL1        0.2250
     10 O           3.5728   -1.2727    0.2840 O.2     1  UNL1       -0.2772
     11 H           2.9802    1.2682   -0.9059 H       1  UNL1        0.2416
     12 H           0.3852    1.6182   -0.0759 H       1  UNL1        0.0495
     13 H           0.3678    0.5061    1.3502 H       1  UNL1        0.0495
     14 H          -0.2068   -0.3017   -1.5334 H       1  UNL1        0.0404
     15 H          -0.2193   -1.3822   -0.1506 H       1  UNL1        0.0404
     16 H          -2.2598    2.2147   -0.1480 H       1  UNL1        0.2198
     17 H          -2.4509   -1.5902    1.3966 H       1  UNL1        0.2198
     18 H           1.9477   -1.2896    1.5784 H       1  UNL1        0.1274
@<TRIPOS>BOND
     1     1     2    1
     2     2     3    1
     3     3     4    1
     4     4     5    1
     5     5     6    1
     6     5     7    1
     7     5     8    2
     8     2     9   am
     9     9    10    2
    10     1    11    1
    11     3    12    1
    12     3    13    1
    13     4    14    1
    14     4    15    1
    15     6    16    1
    16     7    17    1
    17     9    18    1
