@<TRIPOS>MOLECULE
*****
 62 67 0 0 0
SMALL
GASTEIGER

@<TRIPOS>ATOM
      1 C          -8.2825    3.3004    0.4295 C.3     1  UNL1        0.0004
      2 N          -7.0605    2.5302    0.1113 N.am    1  UNL1       -0.3132
      3 C          -5.9100    2.6075    0.8999 C.2     1  UNL1        0.2604
      4 O          -6.0394    3.4127    1.9085 O.2     1  UNL1       -0.2686
      5 C          -4.6396    1.9385    0.7489 C.ar    1  UNL1        0.1068
      6 C          -3.5060    2.2499    1.5371 C.ar    1  UNL1       -0.0209
      7 C          -2.4813    1.4356    1.1568 C.ar    1  UNL1        0.0378
      8 C          -1.1685    1.3510    1.6228 C.ar    1  UNL1        0.0419
      9 N          -0.3748    0.4406    1.0470 N.ar    1  UNL1       -0.2219
     10 C          -0.8406   -0.3608    0.0518 C.ar    1  UNL1        0.2224
     11 N           0.0112   -1.3281   -0.5610 N.pl3   1  UNL1       -0.2685
     12 C           1.3500   -1.4238   -0.1239 C.ar    1  UNL1        0.1250
     13 C           2.2154   -2.3333   -0.6706 C.ar    1  UNL1       -0.0208
     14 C           3.5406   -2.4358   -0.2521 C.ar    1  UNL1       -0.0449
     15 C           3.9833   -1.5926    0.7417 C.ar    1  UNL1        0.0551
     16 C           5.3418   -1.6178    1.2441 C.2     1  UNL1        0.2484
     17 O           5.5813   -2.2803    2.2687 O.2     1  UNL1       -0.2699
     18 N           6.3797   -0.9140    0.5992 N.am    1  UNL1       -0.2917
     19 C           6.2220   -0.1107   -0.5974 C.3     1  UNL1        0.0308
     20 C           7.6275    0.3677   -0.8983 C.3     1  UNL1        0.0252
     21 C           8.4172   -0.8613   -0.4066 C.3     1  UNL1       -0.0162
     22 C           7.7481   -0.8542    0.9838 C.3     1  UNL1        0.0403
     23 C           8.0392    0.5817    1.3678 C.3     1  UNL1        0.0149
     24 N           7.9871    1.3295    0.1075 N.3     1  UNL1       -0.3099
     25 C           3.0906   -0.6883    1.2731 C.ar    1  UNL1        0.0418
     26 N           1.8179   -0.6196    0.8422 N.ar    1  UNL1       -0.2394
     27 N          -2.0817   -0.2608   -0.3689 N.ar    1  UNL1       -0.1962
     28 C          -2.9386    0.6207    0.1515 C.ar    1  UNL1        0.1466
     29 N          -4.2477    0.9543   -0.0670 N.ar    1  UNL1       -0.3180
     30 C          -5.0310    0.2728   -1.0657 C.3     1  UNL1        0.0366
     31 C          -6.0679   -0.6051   -0.4057 C.3     1  UNL1       -0.0320
     32 C          -5.1440   -1.7547    0.0547 C.3     1  UNL1       -0.0511
     33 C          -4.3207   -2.0081   -1.2205 C.3     1  UNL1       -0.0511
     34 C          -4.2819   -0.7117   -1.9198 C.3     1  UNL1       -0.0320
     35 H          -9.1442    2.8958   -0.0958 H       1  UNL1        0.0426
     36 H          -8.0887    4.3229    0.0458 H       1  UNL1        0.0426
     37 H          -8.4163    3.3525    1.5311 H       1  UNL1        0.0426
     38 H          -7.1120    1.9556   -0.7099 H       1  UNL1        0.1487
     39 H          -3.5063    3.0233    2.3066 H       1  UNL1        0.0647
     40 H          -0.8646    2.0220    2.4196 H       1  UNL1        0.0838
     41 H          -0.3578   -1.9421   -1.3106 H       1  UNL1        0.1564
     42 H           1.8322   -2.9763   -1.4460 H       1  UNL1        0.0652
     43 H           4.2139   -3.1617   -0.6951 H       1  UNL1        0.0627
     44 H           5.7989   -0.6568   -1.4448 H       1  UNL1        0.0480
     45 H           5.5374    0.7584   -0.4038 H       1  UNL1        0.0480
     46 H           7.8261    0.6293   -1.9127 H       1  UNL1        0.0476
     47 H           9.4759   -0.6170   -0.3373 H       1  UNL1        0.0299
     48 H           8.1576   -1.7566   -0.9697 H       1  UNL1        0.0299
     49 H           8.1252   -1.5998    1.6457 H       1  UNL1        0.0514
     50 H           7.3472    0.9778    2.1173 H       1  UNL1        0.0442
     51 H           9.0627    0.6170    1.7952 H       1  UNL1        0.0442
     52 H           7.3592    2.1440    0.1554 H       1  UNL1        0.1223
     53 H           3.3715    0.0135    2.0666 H       1  UNL1        0.0838
     54 H          -5.4904    1.0218   -1.7833 H       1  UNL1        0.0528
     55 H          -6.5864   -0.1637    0.4395 H       1  UNL1        0.0285
     56 H          -6.7217   -1.0572   -1.1736 H       1  UNL1        0.0285
     57 H          -5.7055   -2.6401    0.3451 H       1  UNL1        0.0266
     58 H          -4.5194   -1.3198    0.8601 H       1  UNL1        0.0266
     59 H          -3.3864   -2.5286   -1.0282 H       1  UNL1        0.0266
     60 H          -4.9426   -2.7629   -1.8138 H       1  UNL1        0.0266
     61 H          -3.2941   -0.3594   -2.2761 H       1  UNL1        0.0285
     62 H          -4.9078   -0.8239   -2.8661 H       1  UNL1        0.0285
@<TRIPOS>BOND
     1     1     2    1
     2     2     3   am
     3     3     4    2
     4     3     5    1
     5     5     6   ar
     6     6     7   ar
     7     7     8   ar
     8     8     9   ar
     9     9    10   ar
    10    10    11    1
    11    11    12    1
    12    12    13   ar
    13    13    14   ar
    14    14    15   ar
    15    15    16    1
    16    16    17    2
    17    16    18   am
    18    18    19    1
    19    19    20    1
    20    20    21    1
    21    21    22    1
    22    22    23    1
    23    23    24    1
    24    15    25   ar
    25    25    26   ar
    26    10    27   ar
    27    27    28   ar
    28    28    29   ar
    29    29    30    1
    30    30    31    1
    31    31    32    1
    32    32    33    1
    33    33    34    1
    34    29     5   ar
    35    34    30    1
    36    28     7   ar
    37    26    12   ar
    38    22    18    1
    39    24    20    1
    40     1    35    1
    41     1    36    1
    42     1    37    1
    43     2    38    1
    44     6    39    1
    45     8    40    1
    46    11    41    1
    47    13    42    1
    48    14    43    1
    49    19    44    1
    50    19    45    1
    51    20    46    1
    52    21    47    1
    53    21    48    1
    54    22    49    1
    55    23    50    1
    56    23    51    1
    57    24    52    1
    58    25    53    1
    59    30    54    1
    60    31    55    1
    61    31    56    1
    62    32    57    1
    63    32    58    1
    64    33    59    1
    65    33    60    1
    66    34    61    1
    67    34    62    1
