
     RDKit          3D

 62 67  0  0  0  0  0  0  0  0999 V2000
   -8.2825    3.3004    0.4295 C   0  0  0  0  0  0  0  0  0  0  0  0
   -7.0605    2.5302    0.1113 N   0  0  0  0  0  0  0  0  0  0  0  0
   -5.9100    2.6075    0.8999 C   0  0  0  0  0  0  0  0  0  0  0  0
   -6.0394    3.4127    1.9085 O   0  0  0  0  0  0  0  0  0  0  0  0
   -4.6396    1.9385    0.7489 C   0  0  0  0  0  0  0  0  0  0  0  0
   -3.5060    2.2499    1.5371 C   0  0  0  0  0  0  0  0  0  0  0  0
   -2.4813    1.4356    1.1568 C   0  0  0  0  0  0  0  0  0  0  0  0
   -1.1685    1.3510    1.6228 C   0  0  0  0  0  0  0  0  0  0  0  0
   -0.3748    0.4406    1.0470 N   0  0  0  0  0  0  0  0  0  0  0  0
   -0.8406   -0.3608    0.0518 C   0  0  0  0  0  0  0  0  0  0  0  0
    0.0112   -1.3281   -0.5610 N   0  0  0  0  0  0  0  0  0  0  0  0
    1.3500   -1.4238   -0.1239 C   0  0  0  0  0  0  0  0  0  0  0  0
    2.2154   -2.3333   -0.6706 C   0  0  0  0  0  0  0  0  0  0  0  0
    3.5406   -2.4358   -0.2521 C   0  0  0  0  0  0  0  0  0  0  0  0
    3.9833   -1.5926    0.7417 C   0  0  0  0  0  0  0  0  0  0  0  0
    5.3418   -1.6178    1.2441 C   0  0  0  0  0  0  0  0  0  0  0  0
    5.5813   -2.2803    2.2687 O   0  0  0  0  0  0  0  0  0  0  0  0
    6.3797   -0.9140    0.5992 N   0  0  0  0  0  0  0  0  0  0  0  0
    6.2220   -0.1107   -0.5974 C   0  0  0  0  0  0  0  0  0  0  0  0
    7.6275    0.3677   -0.8983 C   0  0  2  0  0  0  0  0  0  0  0  0
    8.4172   -0.8613   -0.4066 C   0  0  0  0  0  0  0  0  0  0  0  0
    7.7481   -0.8542    0.9838 C   0  0  1  0  0  0  0  0  0  0  0  0
    8.0392    0.5817    1.3678 C   0  0  0  0  0  0  0  0  0  0  0  0
    7.9871    1.3295    0.1075 N   0  0  0  0  0  0  0  0  0  0  0  0
    3.0906   -0.6883    1.2731 C   0  0  0  0  0  0  0  0  0  0  0  0
    1.8179   -0.6196    0.8422 N   0  0  0  0  0  0  0  0  0  0  0  0
   -2.0817   -0.2608   -0.3689 N   0  0  0  0  0  0  0  0  0  0  0  0
   -2.9386    0.6207    0.1515 C   0  0  0  0  0  0  0  0  0  0  0  0
   -4.2477    0.9543   -0.0670 N   0  0  0  0  0  0  0  0  0  0  0  0
   -5.0310    0.2728   -1.0657 C   0  0  0  0  0  0  0  0  0  0  0  0
   -6.0679   -0.6051   -0.4057 C   0  0  0  0  0  0  0  0  0  0  0  0
   -5.1440   -1.7547    0.0547 C   0  0  0  0  0  0  0  0  0  0  0  0
   -4.3207   -2.0081   -1.2205 C   0  0  0  0  0  0  0  0  0  0  0  0
   -4.2819   -0.7117   -1.9198 C   0  0  0  0  0  0  0  0  0  0  0  0
   -9.1442    2.8958   -0.0958 H   0  0  0  0  0  0  0  0  0  0  0  0
   -8.0887    4.3229    0.0458 H   0  0  0  0  0  0  0  0  0  0  0  0
   -8.4163    3.3525    1.5311 H   0  0  0  0  0  0  0  0  0  0  0  0
   -7.1120    1.9556   -0.7099 H   0  0  0  0  0  0  0  0  0  0  0  0
   -3.5063    3.0233    2.3066 H   0  0  0  0  0  0  0  0  0  0  0  0
   -0.8646    2.0220    2.4196 H   0  0  0  0  0  0  0  0  0  0  0  0
   -0.3578   -1.9421   -1.3106 H   0  0  0  0  0  0  0  0  0  0  0  0
    1.8322   -2.9763   -1.4460 H   0  0  0  0  0  0  0  0  0  0  0  0
    4.2139   -3.1617   -0.6951 H   0  0  0  0  0  0  0  0  0  0  0  0
    5.7989   -0.6568   -1.4448 H   0  0  0  0  0  0  0  0  0  0  0  0
    5.5374    0.7584   -0.4038 H   0  0  0  0  0  0  0  0  0  0  0  0
    7.8261    0.6293   -1.9127 H   0  0  0  0  0  0  0  0  0  0  0  0
    9.4759   -0.6170   -0.3373 H   0  0  0  0  0  0  0  0  0  0  0  0
    8.1576   -1.7566   -0.9697 H   0  0  0  0  0  0  0  0  0  0  0  0
    8.1252   -1.5998    1.6457 H   0  0  0  0  0  0  0  0  0  0  0  0
    7.3472    0.9778    2.1173 H   0  0  0  0  0  0  0  0  0  0  0  0
    9.0627    0.6170    1.7952 H   0  0  0  0  0  0  0  0  0  0  0  0
    7.3592    2.1440    0.1554 H   0  0  0  0  0  0  0  0  0  0  0  0
    3.3715    0.0135    2.0666 H   0  0  0  0  0  0  0  0  0  0  0  0
   -5.4904    1.0218   -1.7833 H   0  0  0  0  0  0  0  0  0  0  0  0
   -6.5864   -0.1637    0.4395 H   0  0  0  0  0  0  0  0  0  0  0  0
   -6.7217   -1.0572   -1.1736 H   0  0  0  0  0  0  0  0  0  0  0  0
   -5.7055   -2.6401    0.3451 H   0  0  0  0  0  0  0  0  0  0  0  0
   -4.5194   -1.3198    0.8601 H   0  0  0  0  0  0  0  0  0  0  0  0
   -3.3864   -2.5286   -1.0282 H   0  0  0  0  0  0  0  0  0  0  0  0
   -4.9426   -2.7629   -1.8138 H   0  0  0  0  0  0  0  0  0  0  0  0
   -3.2941   -0.3594   -2.2761 H   0  0  0  0  0  0  0  0  0  0  0  0
   -4.9078   -0.8239   -2.8661 H   0  0  0  0  0  0  0  0  0  0  0  0
  1  2  1  0
  2  3  1  0
  3  4  2  0
  3  5  1  0
  5  6  2  0
  6  7  1  0
  7  8  2  0
  8  9  1  0
  9 10  2  0
 10 11  1  0
 11 12  1  0
 12 13  2  0
 13 14  1  0
 14 15  2  0
 15 16  1  0
 16 17  2  0
 16 18  1  0
 18 19  1  0
 19 20  1  0
 20 21  1  0
 21 22  1  0
 22 23  1  0
 23 24  1  0
 15 25  1  0
 25 26  2  0
 10 27  1  0
 27 28  2  0
 28 29  1  0
 29 30  1  0
 30 31  1  0
 31 32  1  0
 32 33  1  0
 33 34  1  0
 29  5  1  0
 34 30  1  0
 28  7  1  0
 26 12  1  0
 22 18  1  0
 24 20  1  0
  1 35  1  0
  1 36  1  0
  1 37  1  0
  2 38  1  0
  6 39  1  0
  8 40  1  0
 11 41  1  0
 13 42  1  0
 14 43  1  0
 19 44  1  0
 19 45  1  0
 20 46  1  6
 21 47  1  0
 21 48  1  0
 22 49  1  1
 23 50  1  0
 23 51  1  0
 24 52  1  0
 25 53  1  0
 30 54  1  0
 31 55  1  0
 31 56  1  0
 32 57  1  0
 32 58  1  0
 33 59  1  0
 33 60  1  0
 34 61  1  0
 34 62  1  0
M  END
$$$$
