
     RDKit          3D

 55 57  0  0  0  0  0  0  0  0999 V2000
    4.1332    1.9653    1.5414 C   0  0  0  0  0  0  0  0  0  0  0  0
    5.1860    1.3589    0.6387 C   0  0  0  0  0  0  0  0  0  0  0  0
    5.3413   -0.0898    0.8377 C   0  0  0  0  0  0  0  0  0  0  0  0
    6.4379   -0.5697    1.5668 C   0  0  0  0  0  0  0  0  0  0  0  0
    6.5752   -1.9262    1.7493 C   0  0  0  0  0  0  0  0  0  0  0  0
    7.9496   -2.5468    2.6643 Cl  0  0  0  0  0  0  0  0  0  0  0  0
    5.6171   -2.7489    1.1996 C   0  0  0  0  0  0  0  0  0  0  0  0
    4.5715   -2.2624    0.5023 N   0  0  0  0  0  0  0  0  0  0  0  0
    4.4007   -0.9356    0.3007 C   0  0  0  0  0  0  0  0  0  0  0  0
    3.2417   -0.4791   -0.4606 C   0  0  0  0  0  0  0  0  0  0  0  0
    2.9638    0.7066   -0.6713 O   0  0  0  0  0  0  0  0  0  0  0  0
    2.3196   -1.4324   -1.0322 N   0  0  0  0  0  0  0  0  0  0  0  0
    1.1875   -1.0056   -1.7744 C   0  0  0  0  0  0  0  0  0  0  0  0
    1.2929   -0.8110   -3.1210 C   0  0  0  0  0  0  0  0  0  0  0  0
    0.2229   -0.3990   -3.8649 C   0  0  0  0  0  0  0  0  0  0  0  0
   -0.9872   -0.1788   -3.2215 C   0  0  0  0  0  0  0  0  0  0  0  0
   -2.0018    0.2425   -4.0459 F   0  0  0  0  0  0  0  0  0  0  0  0
   -1.1346   -0.3632   -1.8706 C   0  0  0  0  0  0  0  0  0  0  0  0
   -2.4552   -0.1183   -1.2305 C   0  0  2  0  0  0  0  0  0  0  0  0
   -3.4365   -1.0965   -1.8453 C   0  0  0  0  0  0  0  0  0  0  0  0
   -2.9216   -2.3687   -1.5525 F   0  0  0  0  0  0  0  0  0  0  0  0
   -2.7981    1.3140   -1.4470 C   0  0  0  0  0  0  0  0  0  0  0  0
   -4.3836    1.6030   -0.6869 S   0  0  0  0  0  6  0  0  0  0  0  0
   -4.5695    3.0686   -0.5000 O   0  0  0  0  0  0  0  0  0  0  0  0
   -5.4612    1.1138   -1.6101 O   0  0  0  0  0  0  0  0  0  0  0  0
   -4.3623    0.7133    0.8504 C   0  0  0  0  0  0  0  0  0  0  0  0
   -4.4233    1.7713    1.9615 C   0  0  0  0  0  0  0  0  0  0  0  0
   -5.6116   -0.1102    0.9836 C   0  0  0  0  0  0  0  0  0  0  0  0
   -3.1100   -0.0193    1.0496 C   0  0  0  0  0  0  0  0  0  0  0  0
   -2.7823   -0.3650    2.4004 N   0  0  0  0  0  0  0  0  0  0  0  0
   -2.2713   -0.3889    0.1671 N   0  0  0  0  0  0  0  0  0  0  0  0
   -0.0231   -0.7796   -1.1669 C   0  0  0  0  0  0  0  0  0  0  0  0
    3.5981    2.7743    1.0091 H   0  0  0  0  0  0  0  0  0  0  0  0
    4.6134    2.4795    2.4271 H   0  0  0  0  0  0  0  0  0  0  0  0
    3.4669    1.2079    2.0018 H   0  0  0  0  0  0  0  0  0  0  0  0
    5.0638    1.6482   -0.4275 H   0  0  0  0  0  0  0  0  0  0  0  0
    6.1623    1.8535    0.9291 H   0  0  0  0  0  0  0  0  0  0  0  0
    7.1630    0.1040    1.9799 H   0  0  0  0  0  0  0  0  0  0  0  0
    5.7335   -3.8029    1.3482 H   0  0  0  0  0  0  0  0  0  0  0  0
    2.5094   -2.4457   -0.8838 H   0  0  0  0  0  0  0  0  0  0  0  0
    2.2547   -0.9920   -3.5952 H   0  0  0  0  0  0  0  0  0  0  0  0
    0.2959   -0.2387   -4.9517 H   0  0  0  0  0  0  0  0  0  0  0  0
   -4.4631   -0.9902   -1.4995 H   0  0  0  0  0  0  0  0  0  0  0  0
   -3.4605   -1.0480   -2.9465 H   0  0  0  0  0  0  0  0  0  0  0  0
   -2.0591    1.9212   -0.9009 H   0  0  0  0  0  0  0  0  0  0  0  0
   -2.8622    1.6579   -2.4754 H   0  0  0  0  0  0  0  0  0  0  0  0
   -5.2663    2.4457    1.7123 H   0  0  0  0  0  0  0  0  0  0  0  0
   -3.4634    2.2692    2.1040 H   0  0  0  0  0  0  0  0  0  0  0  0
   -4.7412    1.2078    2.8841 H   0  0  0  0  0  0  0  0  0  0  0  0
   -6.0784   -0.0544    1.9823 H   0  0  0  0  0  0  0  0  0  0  0  0
   -5.3852   -1.1930    0.7978 H   0  0  0  0  0  0  0  0  0  0  0  0
   -6.3550    0.2093    0.1991 H   0  0  0  0  0  0  0  0  0  0  0  0
   -1.9249    0.0475    2.8024 H   0  0  0  0  0  0  0  0  0  0  0  0
   -3.3577   -0.9984    2.9781 H   0  0  0  0  0  0  0  0  0  0  0  0
   -0.1519   -0.9249   -0.0818 H   0  0  0  0  0  0  0  0  0  0  0  0
  1  2  1  0
  2  3  1  0
  3  4  2  0
  4  5  1  0
  5  6  1  0
  5  7  2  0
  7  8  1  0
  8  9  2  0
  9 10  1  0
 10 11  2  0
 10 12  1  0
 12 13  1  0
 13 14  2  0
 14 15  1  0
 15 16  2  0
 16 17  1  0
 16 18  1  0
 18 19  1  0
 19 20  1  6
 20 21  1  0
 19 22  1  0
 22 23  1  0
 23 24  2  0
 23 25  2  0
 23 26  1  0
 26 27  1  0
 26 28  1  0
 26 29  1  0
 29 30  1  0
 29 31  2  0
 18 32  2  0
  9  3  1  0
 32 13  1  0
 31 19  1  0
  1 33  1  0
  1 34  1  0
  1 35  1  0
  2 36  1  0
  2 37  1  0
  4 38  1  0
  7 39  1  0
 12 40  1  0
 14 41  1  0
 15 42  1  0
 20 43  1  0
 20 44  1  0
 22 45  1  0
 22 46  1  0
 27 47  1  0
 27 48  1  0
 27 49  1  0
 28 50  1  0
 28 51  1  0
 28 52  1  0
 30 53  1  0
 30 54  1  0
 32 55  1  0
M  END
$$$$
