@<TRIPOS>MOLECULE
*****
 55 57 0 0 0
SMALL
GASTEIGER

@<TRIPOS>ATOM
      1 C           4.1332    1.9653    1.5414 C.3     1  UNL1       -0.0612
      2 C           5.1860    1.3589    0.6387 C.3     1  UNL1       -0.0283
      3 C           5.3413   -0.0898    0.8377 C.ar    1  UNL1       -0.0158
      4 C           6.4379   -0.5697    1.5668 C.ar    1  UNL1       -0.0366
      5 C           6.5752   -1.9262    1.7493 C.ar    1  UNL1        0.0593
      6 CL          7.9496   -2.5468    2.6643 Cl      1  UNL1       -0.0820
      7 C           5.6171   -2.7489    1.1996 C.ar    1  UNL1        0.0467
      8 N           4.5715   -2.2624    0.5023 N.ar    1  UNL1       -0.2486
      9 C           4.4007   -0.9356    0.3007 C.ar    1  UNL1        0.1289
     10 C           3.2417   -0.4791   -0.4606 C.2     1  UNL1        0.2668
     11 O           2.9638    0.7066   -0.6713 O.2     1  UNL1       -0.2682
     12 N           2.3196   -1.4324   -1.0322 N.am    1  UNL1       -0.2802
     13 C           1.1875   -1.0056   -1.7744 C.ar    1  UNL1        0.0343
     14 C           1.2929   -0.8110   -3.1210 C.ar    1  UNL1       -0.0377
     15 C           0.2229   -0.3990   -3.8649 C.ar    1  UNL1       -0.0243
     16 C          -0.9872   -0.1788   -3.2215 C.ar    1  UNL1        0.1312
     17 F          -2.0018    0.2425   -4.0459 F       1  UNL1       -0.2050
     18 C          -1.1346   -0.3632   -1.8706 C.ar    1  UNL1        0.0448
     19 C          -2.4552   -0.1183   -1.2305 C.3     1  UNL1        0.2263
     20 C          -3.4365   -1.0965   -1.8453 C.3     1  UNL1        0.1433
     21 F          -2.9216   -2.3687   -1.5525 F       1  UNL1       -0.2438
     22 C          -2.7981    1.3140   -1.4470 C.3     1  UNL1        0.1211
     23 S          -4.3836    1.6030   -0.6869 S.O2    1  UNL1       -0.0100
     24 O          -4.5695    3.0686   -0.5000 O.2     1  UNL1       -0.1731
     25 O          -5.4612    1.1138   -1.6101 O.2     1  UNL1       -0.1731
     26 C          -4.3623    0.7133    0.8504 C.3     1  UNL1        0.1831
     27 C          -4.4233    1.7713    1.9615 C.3     1  UNL1       -0.0288
     28 C          -5.6116   -0.1102    0.9836 C.3     1  UNL1       -0.0288
     29 C          -3.1100   -0.0193    1.0496 C.2     1  UNL1        0.3068
     30 N          -2.7823   -0.3650    2.4004 N.pl3   1  UNL1       -0.2488
     31 N          -2.2713   -0.3889    0.1671 N.2     1  UNL1       -0.0698
     32 C          -0.0231   -0.7796   -1.1669 C.ar    1  UNL1       -0.0300
     33 H           3.5981    2.7743    1.0091 H       1  UNL1        0.0233
     34 H           4.6134    2.4795    2.4271 H       1  UNL1        0.0233
     35 H           3.4669    1.2079    2.0018 H       1  UNL1        0.0233
     36 H           5.0638    1.6482   -0.4275 H       1  UNL1        0.0311
     37 H           6.1623    1.8535    0.9291 H       1  UNL1        0.0311
     38 H           7.1630    0.1040    1.9799 H       1  UNL1        0.0636
     39 H           5.7335   -3.8029    1.3482 H       1  UNL1        0.0844
     40 H           2.5094   -2.4457   -0.8838 H       1  UNL1        0.1552
     41 H           2.2547   -0.9920   -3.5952 H       1  UNL1        0.0637
     42 H           0.2959   -0.2387   -4.9517 H       1  UNL1        0.0647
     43 H          -4.4631   -0.9902   -1.4995 H       1  UNL1        0.0666
     44 H          -3.4605   -1.0480   -2.9465 H       1  UNL1        0.0666
     45 H          -2.0591    1.9212   -0.9009 H       1  UNL1        0.0551
     46 H          -2.8622    1.6579   -2.4754 H       1  UNL1        0.0551
     47 H          -5.2663    2.4457    1.7123 H       1  UNL1        0.0256
     48 H          -3.4634    2.2692    2.1040 H       1  UNL1        0.0256
     49 H          -4.7412    1.2078    2.8841 H       1  UNL1        0.0256
     50 H          -6.0784   -0.0544    1.9823 H       1  UNL1        0.0256
     51 H          -5.3852   -1.1930    0.7978 H       1  UNL1        0.0256
     52 H          -6.3550    0.2093    0.1991 H       1  UNL1        0.0256
     53 H          -1.9249    0.0475    2.8024 H       1  UNL1        0.2881
     54 H          -3.3577   -0.9984    2.9781 H       1  UNL1        0.2881
     55 H          -0.1519   -0.9249   -0.0818 H       1  UNL1        0.0641
@<TRIPOS>BOND
     1     1     2    1
     2     2     3    1
     3     3     4   ar
     4     4     5   ar
     5     5     6    1
     6     5     7   ar
     7     7     8   ar
     8     8     9   ar
     9     9    10    1
    10    10    11    2
    11    10    12   am
    12    12    13    1
    13    13    14   ar
    14    14    15   ar
    15    15    16   ar
    16    16    17    1
    17    16    18   ar
    18    18    19    1
    19    19    20    1
    20    20    21    1
    21    19    22    1
    22    22    23    1
    23    23    24    2
    24    23    25    2
    25    23    26    1
    26    26    27    1
    27    26    28    1
    28    26    29    1
    29    29    30    1
    30    29    31    2
    31    18    32   ar
    32     9     3   ar
    33    32    13   ar
    34    31    19    1
    35     1    33    1
    36     1    34    1
    37     1    35    1
    38     2    36    1
    39     2    37    1
    40     4    38    1
    41     7    39    1
    42    12    40    1
    43    14    41    1
    44    15    42    1
    45    20    43    1
    46    20    44    1
    47    22    45    1
    48    22    46    1
    49    27    47    1
    50    27    48    1
    51    27    49    1
    52    28    50    1
    53    28    51    1
    54    28    52    1
    55    30    53    1
    56    30    54    1
    57    32    55    1
