
     RDKit          3D

 73 78  0  0  0  0  0  0  0  0999 V2000
    0.5532   -3.1075   -0.5216 C   0  0  0  0  0  0  0  0  0  0  0  0
   -0.8046   -2.6072   -0.6023 N   0  0  0  0  0  0  0  0  0  0  0  0
   -1.8917   -3.3923   -0.8785 C   0  0  0  0  0  0  0  0  0  0  0  0
   -1.9838   -4.7457   -1.1424 C   0  0  0  0  0  0  0  0  0  0  0  0
   -3.2259   -5.2638   -1.3874 C   0  0  0  0  0  0  0  0  0  0  0  0
   -4.3581   -4.4955   -1.3788 C   0  0  0  0  0  0  0  0  0  0  0  0
   -4.2701   -3.1230   -1.1118 C   0  0  0  0  0  0  0  0  0  0  0  0
   -5.4991   -2.3683   -1.1174 C   0  0  0  0  0  0  0  0  0  0  0  0
   -6.7308   -3.0201   -1.3819 N   0  0  0  0  0  0  0  0  0  0  0  0
   -5.5420   -1.1520   -0.8986 O   0  0  0  0  0  0  0  0  0  0  0  0
   -3.0162   -2.6001   -0.8646 C   0  0  0  0  0  0  0  0  0  0  0  0
   -2.6334   -1.3034   -0.5767 C   0  0  0  0  0  0  0  0  0  0  0  0
   -3.2985   -0.1442   -0.4326 N   0  0  0  0  0  0  0  0  0  0  0  0
   -2.6747    0.9979   -0.1383 C   0  0  0  0  0  0  0  0  0  0  0  0
   -3.4561    2.2797    0.0150 C   0  0  0  0  0  0  0  0  0  0  0  0
   -3.8831    2.4714    1.3676 N   0  0  0  0  0  0  0  0  0  0  0  0
   -4.6189    3.7133    1.4377 C   0  0  0  0  0  0  0  0  0  0  0  0
   -4.8878    4.0893    2.8862 C   0  0  0  0  0  0  0  0  0  0  0  0
   -4.7050    2.9678    3.6953 O   0  0  0  0  0  0  0  0  0  0  0  0
   -5.3760    1.8832    3.1399 C   0  0  0  0  0  0  0  0  0  0  0  0
   -4.6512    1.3895    1.9109 C   0  0  0  0  0  0  0  0  0  0  0  0
   -1.3575    0.9565    0.0100 N   0  0  0  0  0  0  0  0  0  0  0  0
   -0.5916   -0.1717   -0.1168 C   0  0  0  0  0  0  0  0  0  0  0  0
    0.8111   -0.0925    0.0360 N   0  0  0  0  0  0  0  0  0  0  0  0
    1.6757   -0.2465   -1.1119 C   0  0  0  0  0  0  0  0  0  0  0  0
    2.5384    1.0082   -1.2736 C   0  0  0  0  0  0  0  0  0  0  0  0
    3.1193    1.4261   -0.0585 N   0  0  0  0  0  0  0  0  0  0  0  0
    4.5276    1.5224    0.0149 C   0  0  0  0  0  0  0  0  0  0  0  0
    5.2698    0.2071   -0.0511 C   0  0  0  0  0  0  0  0  0  0  0  0
    6.7197    0.5424    0.0415 C   0  0  0  0  0  0  0  0  0  0  0  0
    7.3386    0.6084    1.2721 C   0  0  0  0  0  0  0  0  0  0  0  0
    8.6628    0.9142    1.3832 C   0  0  0  0  0  0  0  0  0  0  0  0
    9.4291    1.1681    0.2682 C   0  0  0  0  0  0  0  0  0  0  0  0
   10.7626    1.4763    0.3760 F   0  0  0  0  0  0  0  0  0  0  0  0
    8.8025    1.0993   -0.9467 C   0  0  0  0  0  0  0  0  0  0  0  0
    9.5225    1.3421   -2.0645 F   0  0  0  0  0  0  0  0  0  0  0  0
    7.4728    0.7941   -1.0866 C   0  0  0  0  0  0  0  0  0  0  0  0
    2.3706    1.4201    1.1247 C   0  0  0  0  0  0  0  0  0  0  0  0
    1.5005    0.1648    1.2836 C   0  0  0  0  0  0  0  0  0  0  0  0
   -1.2435   -1.3542   -0.4211 C   0  0  0  0  0  0  0  0  0  0  0  0
    1.0822   -2.6667    0.3502 H   0  0  0  0  0  0  0  0  0  0  0  0
    0.4992   -4.2084   -0.2682 H   0  0  0  0  0  0  0  0  0  0  0  0
    1.1038   -3.0606   -1.4652 H   0  0  0  0  0  0  0  0  0  0  0  0
   -1.0931   -5.3791   -1.1545 H   0  0  0  0  0  0  0  0  0  0  0  0
   -3.3671   -6.3354   -1.6043 H   0  0  0  0  0  0  0  0  0  0  0  0
   -5.3506   -4.9210   -1.5768 H   0  0  0  0  0  0  0  0  0  0  0  0
   -7.0053   -3.2652   -2.3559 H   0  0  0  0  0  0  0  0  0  0  0  0
   -7.3654   -3.2539   -0.5850 H   0  0  0  0  0  0  0  0  0  0  0  0
   -2.7862    3.0982   -0.2694 H   0  0  0  0  0  0  0  0  0  0  0  0
   -4.3151    2.2948   -0.6936 H   0  0  0  0  0  0  0  0  0  0  0  0
   -5.5483    3.6623    0.8506 H   0  0  0  0  0  0  0  0  0  0  0  0
   -4.0035    4.5192    0.9883 H   0  0  0  0  0  0  0  0  0  0  0  0
   -5.9415    4.4031    2.9516 H   0  0  0  0  0  0  0  0  0  0  0  0
   -4.1941    4.8703    3.2045 H   0  0  0  0  0  0  0  0  0  0  0  0
   -6.3849    2.2386    2.8152 H   0  0  0  0  0  0  0  0  0  0  0  0
   -5.5189    1.0825    3.8776 H   0  0  0  0  0  0  0  0  0  0  0  0
   -4.0081    0.5119    2.1298 H   0  0  0  0  0  0  0  0  0  0  0  0
   -5.3906    1.0488    1.1321 H   0  0  0  0  0  0  0  0  0  0  0  0
    2.4199   -1.0453   -0.8581 H   0  0  0  0  0  0  0  0  0  0  0  0
    1.1247   -0.4863   -2.0146 H   0  0  0  0  0  0  0  0  0  0  0  0
    3.2256    0.7939   -2.0878 H   0  0  0  0  0  0  0  0  0  0  0  0
    1.8400    1.7944   -1.6352 H   0  0  0  0  0  0  0  0  0  0  0  0
    4.8686    2.0926   -0.9009 H   0  0  0  0  0  0  0  0  0  0  0  0
    4.8941    2.1212    0.8701 H   0  0  0  0  0  0  0  0  0  0  0  0
    5.0250   -0.4524    0.7955 H   0  0  0  0  0  0  0  0  0  0  0  0
    5.1161   -0.2448   -1.0443 H   0  0  0  0  0  0  0  0  0  0  0  0
    6.7188    0.4045    2.1595 H   0  0  0  0  0  0  0  0  0  0  0  0
    9.1025    0.9542    2.3622 H   0  0  0  0  0  0  0  0  0  0  0  0
    7.0027    0.7480   -2.0821 H   0  0  0  0  0  0  0  0  0  0  0  0
    1.7689    2.3317    1.3192 H   0  0  0  0  0  0  0  0  0  0  0  0
    3.0860    1.3637    1.9982 H   0  0  0  0  0  0  0  0  0  0  0  0
    2.2111   -0.6569    1.5112 H   0  0  0  0  0  0  0  0  0  0  0  0
    0.8067    0.3882    2.1160 H   0  0  0  0  0  0  0  0  0  0  0  0
  1  2  1  0
  2  3  1  0
  3  4  2  0
  4  5  1  0
  5  6  2  0
  6  7  1  0
  7  8  1  0
  8  9  1  0
  8 10  2  0
  7 11  2  0
 11 12  1  0
 12 13  2  0
 13 14  1  0
 14 15  1  0
 15 16  1  0
 16 17  1  0
 17 18  1  0
 18 19  1  0
 19 20  1  0
 20 21  1  0
 14 22  2  0
 22 23  1  0
 23 24  1  0
 24 25  1  0
 25 26  1  0
 26 27  1  0
 27 28  1  0
 28 29  1  0
 29 30  1  0
 30 31  2  0
 31 32  1  0
 32 33  2  0
 33 34  1  0
 33 35  1  0
 35 36  1  0
 35 37  2  0
 27 38  1  0
 38 39  1  0
 23 40  2  0
 40  2  1  0
 11  3  1  0
 40 12  1  0
 21 16  1  0
 39 24  1  0
 37 30  1  0
  1 41  1  0
  1 42  1  0
  1 43  1  0
  4 44  1  0
  5 45  1  0
  6 46  1  0
  9 47  1  0
  9 48  1  0
 15 49  1  0
 15 50  1  0
 17 51  1  0
 17 52  1  0
 18 53  1  0
 18 54  1  0
 20 55  1  0
 20 56  1  0
 21 57  1  0
 21 58  1  0
 25 59  1  0
 25 60  1  0
 26 61  1  0
 26 62  1  0
 28 63  1  0
 28 64  1  0
 29 65  1  0
 29 66  1  0
 31 67  1  0
 32 68  1  0
 37 69  1  0
 38 70  1  0
 38 71  1  0
 39 72  1  0
 39 73  1  0
M  END
$$$$
