@<TRIPOS>MOLECULE
*****
 73 78 0 0 0
SMALL
GASTEIGER

@<TRIPOS>ATOM
      1 C           0.5532   -3.1075   -0.5216 C.3     1  UNL1        0.0126
      2 N          -0.8046   -2.6072   -0.6023 N.ar    1  UNL1       -0.3390
      3 C          -1.8917   -3.3923   -0.8785 C.ar    1  UNL1        0.0522
      4 C          -1.9838   -4.7457   -1.1424 C.ar    1  UNL1       -0.0375
      5 C          -3.2259   -5.2638   -1.3874 C.ar    1  UNL1       -0.0591
      6 C          -4.3581   -4.4955   -1.3788 C.ar    1  UNL1       -0.0489
      7 C          -4.2701   -3.1230   -1.1118 C.ar    1  UNL1        0.0477
      8 C          -5.4991   -2.3683   -1.1174 C.2     1  UNL1        0.2422
      9 N          -6.7308   -3.0201   -1.3819 N.am    1  UNL1       -0.3253
     10 O          -5.5420   -1.1520   -0.8986 O.2     1  UNL1       -0.2704
     11 C          -3.0162   -2.6001   -0.8646 C.ar    1  UNL1        0.0381
     12 C          -2.6334   -1.3034   -0.5767 C.ar    1  UNL1        0.1026
     13 N          -3.2985   -0.1442   -0.4326 N.ar    1  UNL1       -0.2284
     14 C          -2.6747    0.9979   -0.1383 C.ar    1  UNL1        0.1458
     15 C          -3.4561    2.2797    0.0150 C.3     1  UNL1        0.0590
     16 N          -3.8831    2.4714    1.3676 N.3     1  UNL1       -0.2908
     17 C          -4.6189    3.7133    1.4377 C.3     1  UNL1        0.0229
     18 C          -4.8878    4.0893    2.8862 C.3     1  UNL1        0.0604
     19 O          -4.7050    2.9678    3.6953 O.3     1  UNL1       -0.3772
     20 C          -5.3760    1.8832    3.1399 C.3     1  UNL1        0.0604
     21 C          -4.6512    1.3895    1.9109 C.3     1  UNL1        0.0229
     22 N          -1.3575    0.9565    0.0100 N.ar    1  UNL1       -0.2139
     23 C          -0.5916   -0.1717   -0.1168 C.ar    1  UNL1        0.1493
     24 N           0.8111   -0.0925    0.0360 N.pl3   1  UNL1       -0.3110
     25 C           1.6757   -0.2465   -1.1119 C.3     1  UNL1        0.0264
     26 C           2.5384    1.0082   -1.2736 C.3     1  UNL1        0.0147
     27 N           3.1193    1.4261   -0.0585 N.3     1  UNL1       -0.2990
     28 C           4.5276    1.5224    0.0149 C.3     1  UNL1        0.0030
     29 C           5.2698    0.2071   -0.0511 C.3     1  UNL1       -0.0148
     30 C           6.7197    0.5424    0.0415 C.ar    1  UNL1       -0.0433
     31 C           7.3386    0.6084    1.2721 C.ar    1  UNL1       -0.0556
     32 C           8.6628    0.9142    1.3832 C.ar    1  UNL1       -0.0233
     33 C           9.4291    1.1681    0.2682 C.ar    1  UNL1        0.1584
     34 F          10.7626    1.4763    0.3760 F       1  UNL1       -0.2025
     35 C           8.8025    1.0993   -0.9467 C.ar    1  UNL1        0.1587
     36 F           9.5225    1.3421   -2.0645 F       1  UNL1       -0.2025
     37 C           7.4728    0.7941   -1.0866 C.ar    1  UNL1       -0.0204
     38 C           2.3706    1.4201    1.1247 C.3     1  UNL1        0.0147
     39 C           1.5005    0.1648    1.2836 C.3     1  UNL1        0.0264
     40 C          -1.2435   -1.3542   -0.4211 C.ar    1  UNL1        0.1089
     41 H           1.0822   -2.6667    0.3502 H       1  UNL1        0.0456
     42 H           0.4992   -4.2084   -0.2682 H       1  UNL1        0.0456
     43 H           1.1038   -3.0606   -1.4652 H       1  UNL1        0.0456
     44 H          -1.0931   -5.3791   -1.1545 H       1  UNL1        0.0638
     45 H          -3.3671   -6.3354   -1.6043 H       1  UNL1        0.0618
     46 H          -5.3506   -4.9210   -1.5768 H       1  UNL1        0.0625
     47 H          -7.0053   -3.2652   -2.3559 H       1  UNL1        0.1453
     48 H          -7.3654   -3.2539   -0.5850 H       1  UNL1        0.1453
     49 H          -2.7862    3.0982   -0.2694 H       1  UNL1        0.0507
     50 H          -4.3151    2.2948   -0.6936 H       1  UNL1        0.0507
     51 H          -5.5483    3.6623    0.8506 H       1  UNL1        0.0449
     52 H          -4.0035    4.5192    0.9883 H       1  UNL1        0.0449
     53 H          -5.9415    4.4031    2.9516 H       1  UNL1        0.0572
     54 H          -4.1941    4.8703    3.2045 H       1  UNL1        0.0572
     55 H          -6.3849    2.2386    2.8152 H       1  UNL1        0.0572
     56 H          -5.5189    1.0825    3.8776 H       1  UNL1        0.0572
     57 H          -4.0081    0.5119    2.1298 H       1  UNL1        0.0449
     58 H          -5.3906    1.0488    1.1321 H       1  UNL1        0.0449
     59 H           2.4199   -1.0453   -0.8581 H       1  UNL1        0.0477
     60 H           1.1247   -0.4863   -2.0146 H       1  UNL1        0.0477
     61 H           3.2256    0.7939   -2.0878 H       1  UNL1        0.0442
     62 H           1.8400    1.7944   -1.6352 H       1  UNL1        0.0442
     63 H           4.8686    2.0926   -0.9009 H       1  UNL1        0.0430
     64 H           4.8941    2.1212    0.8701 H       1  UNL1        0.0430
     65 H           5.0250   -0.4524    0.7955 H       1  UNL1        0.0326
     66 H           5.1161   -0.2448   -1.0443 H       1  UNL1        0.0326
     67 H           6.7188    0.4045    2.1595 H       1  UNL1        0.0621
     68 H           9.1025    0.9542    2.3622 H       1  UNL1        0.0647
     69 H           7.0027    0.7480   -2.0821 H       1  UNL1        0.0650
     70 H           1.7689    2.3317    1.3192 H       1  UNL1        0.0442
     71 H           3.0860    1.3637    1.9982 H       1  UNL1        0.0442
     72 H           2.2111   -0.6569    1.5112 H       1  UNL1        0.0477
     73 H           0.8067    0.3882    2.1160 H       1  UNL1        0.0477
@<TRIPOS>BOND
     1     1     2    1
     2     2     3   ar
     3     3     4   ar
     4     4     5   ar
     5     5     6   ar
     6     6     7   ar
     7     7     8    1
     8     8     9   am
     9     8    10    2
    10     7    11   ar
    11    11    12   ar
    12    12    13   ar
    13    13    14   ar
    14    14    15    1
    15    15    16    1
    16    16    17    1
    17    17    18    1
    18    18    19    1
    19    19    20    1
    20    20    21    1
    21    14    22   ar
    22    22    23   ar
    23    23    24    1
    24    24    25    1
    25    25    26    1
    26    26    27    1
    27    27    28    1
    28    28    29    1
    29    29    30    1
    30    30    31   ar
    31    31    32   ar
    32    32    33   ar
    33    33    34    1
    34    33    35   ar
    35    35    36    1
    36    35    37   ar
    37    27    38    1
    38    38    39    1
    39    23    40   ar
    40    40     2   ar
    41    11     3   ar
    42    40    12   ar
    43    21    16    1
    44    39    24    1
    45    37    30   ar
    46     1    41    1
    47     1    42    1
    48     1    43    1
    49     4    44    1
    50     5    45    1
    51     6    46    1
    52     9    47    1
    53     9    48    1
    54    15    49    1
    55    15    50    1
    56    17    51    1
    57    17    52    1
    58    18    53    1
    59    18    54    1
    60    20    55    1
    61    20    56    1
    62    21    57    1
    63    21    58    1
    64    25    59    1
    65    25    60    1
    66    26    61    1
    67    26    62    1
    68    28    63    1
    69    28    64    1
    70    29    65    1
    71    29    66    1
    72    31    67    1
    73    32    68    1
    74    37    69    1
    75    38    70    1
    76    38    71    1
    77    39    72    1
    78    39    73    1
