@<TRIPOS>MOLECULE
*****
 53 56 0 0 0
SMALL
GASTEIGER

@<TRIPOS>ATOM
      1 C           4.0762    3.8720   -0.4660 C.3     1  UNL1        0.0833
      2 O           3.2995    2.6901   -0.5171 O.3     1  UNL1       -0.4523
      3 C           3.8583    1.5286    0.0095 C.2     1  UNL1        0.4238
      4 O           5.0213    1.5759    0.5054 O.2     1  UNL1       -0.2242
      5 N           3.1125    0.3222   -0.0222 N.am    1  UNL1       -0.1532
      6 N           1.8278    0.3206   -0.5856 N.am    1  UNL1       -0.2205
      7 C           0.6608    0.5811    0.1485 C.2     1  UNL1        0.2649
      8 O           0.8386    0.8060    1.4024 O.2     1  UNL1       -0.2685
      9 C          -0.7008    0.6130   -0.3481 C.ar    1  UNL1        0.0910
     10 C          -1.7110   -0.0457    0.3687 C.ar    1  UNL1        0.1587
     11 O          -1.3151   -0.6881    1.5089 O.3     1  UNL1       -0.4922
     12 C          -0.8259   -1.9927    1.6428 C.3     1  UNL1        0.0789
     13 C          -3.0112   -0.0461   -0.0361 C.ar    1  UNL1        0.1139
     14 C          -4.1330   -0.6555    0.6539 C.ar    1  UNL1        0.0040
     15 C          -5.2491    0.1312    0.9557 C.ar    1  UNL1       -0.0524
     16 C          -6.3534   -0.4044    1.5827 C.ar    1  UNL1       -0.0611
     17 C          -6.3911   -1.7358    1.9323 C.ar    1  UNL1       -0.0617
     18 C          -5.2994   -2.5181    1.6397 C.ar    1  UNL1       -0.0611
     19 C          -4.1740   -1.9675    0.9991 C.ar    1  UNL1       -0.0524
     20 N          -3.2733    0.6388   -1.1888 N.ar    1  UNL1       -0.2430
     21 C          -2.3373    1.2825   -1.9004 C.ar    1  UNL1        0.0726
     22 C          -2.6823    1.9832   -3.0512 C.ar    1  UNL1       -0.0357
     23 C          -1.7858    2.6895   -3.8171 C.ar    1  UNL1       -0.0597
     24 C          -0.4833    2.6670   -3.3692 C.ar    1  UNL1       -0.0611
     25 C          -0.0732    1.9966   -2.2441 C.ar    1  UNL1       -0.0517
     26 C          -0.9978    1.2956   -1.5016 C.ar    1  UNL1        0.0161
     27 C           3.7101   -0.8354    0.5205 C.ar    1  UNL1        0.0593
     28 C           4.4692   -1.6870   -0.2469 C.ar    1  UNL1       -0.0385
     29 C           5.0567   -2.8272    0.2953 C.ar    1  UNL1       -0.0599
     30 C           4.8790   -3.1125    1.6192 C.ar    1  UNL1       -0.0616
     31 C           4.1181   -2.2721    2.4195 C.ar    1  UNL1       -0.0599
     32 C           3.5385   -1.1325    1.8497 C.ar    1  UNL1       -0.0385
     33 H           5.1586    3.6559   -0.7015 H       1  UNL1        0.0661
     34 H           4.0360    4.3249    0.5362 H       1  UNL1        0.0661
     35 H           3.7025    4.5630   -1.2674 H       1  UNL1        0.0661
     36 H           1.7764    0.0724   -1.5873 H       1  UNL1        0.1738
     37 H          -0.6008   -2.4838    0.6644 H       1  UNL1        0.0660
     38 H          -1.4714   -2.6518    2.2580 H       1  UNL1        0.0660
     39 H           0.1536   -1.9475    2.1966 H       1  UNL1        0.0660
     40 H          -5.2214    1.1745    0.6827 H       1  UNL1        0.0624
     41 H          -7.2352    0.1869    1.8288 H       1  UNL1        0.0618
     42 H          -7.2693   -2.1634    2.4317 H       1  UNL1        0.0618
     43 H          -5.3165   -3.5666    1.9093 H       1  UNL1        0.0618
     44 H          -3.3684   -2.6520    0.7876 H       1  UNL1        0.0624
     45 H          -3.7301    1.9456   -3.3271 H       1  UNL1        0.0639
     46 H          -2.0778    3.2284   -4.7118 H       1  UNL1        0.0618
     47 H           0.2791    3.2085   -3.9301 H       1  UNL1        0.0618
     48 H           0.9704    2.0464   -1.9137 H       1  UNL1        0.0624
     49 H           4.6484   -1.5183   -1.3013 H       1  UNL1        0.0637
     50 H           5.6579   -3.5022   -0.3114 H       1  UNL1        0.0618
     51 H           5.3088   -3.9874    2.1118 H       1  UNL1        0.0618
     52 H           3.9675   -2.4829    3.4684 H       1  UNL1        0.0618
     53 H           2.9620   -0.5235    2.5241 H       1  UNL1        0.0637
@<TRIPOS>BOND
     1     1     2    1
     2     2     3    1
     3     3     4    2
     4     3     5   am
     5     5     6    1
     6     6     7   am
     7     7     8    2
     8     7     9    1
     9     9    10   ar
    10    10    11    1
    11    11    12    1
    12    10    13   ar
    13    13    14    1
    14    14    15   ar
    15    15    16   ar
    16    16    17   ar
    17    17    18   ar
    18    18    19   ar
    19    13    20   ar
    20    20    21   ar
    21    21    22   ar
    22    22    23   ar
    23    23    24   ar
    24    24    25   ar
    25    25    26   ar
    26     5    27    1
    27    27    28   ar
    28    28    29   ar
    29    29    30   ar
    30    30    31   ar
    31    31    32   ar
    32    26     9   ar
    33    32    27   ar
    34    19    14   ar
    35    26    21   ar
    36     1    33    1
    37     1    34    1
    38     1    35    1
    39     6    36    1
    40    12    37    1
    41    12    38    1
    42    12    39    1
    43    15    40    1
    44    16    41    1
    45    17    42    1
    46    18    43    1
    47    19    44    1
    48    22    45    1
    49    23    46    1
    50    24    47    1
    51    25    48    1
    52    28    49    1
    53    29    50    1
    54    30    51    1
    55    31    52    1
    56    32    53    1
