
     RDKit          3D

 53 56  0  0  0  0  0  0  0  0999 V2000
    4.0762    3.8720   -0.4660 C   0  0  0  0  0  0  0  0  0  0  0  0
    3.2995    2.6901   -0.5171 O   0  0  0  0  0  0  0  0  0  0  0  0
    3.8583    1.5286    0.0095 C   0  0  0  0  0  0  0  0  0  0  0  0
    5.0213    1.5759    0.5054 O   0  0  0  0  0  0  0  0  0  0  0  0
    3.1125    0.3222   -0.0222 N   0  0  0  0  0  0  0  0  0  0  0  0
    1.8278    0.3206   -0.5856 N   0  0  0  0  0  0  0  0  0  0  0  0
    0.6608    0.5811    0.1485 C   0  0  0  0  0  0  0  0  0  0  0  0
    0.8386    0.8060    1.4024 O   0  0  0  0  0  0  0  0  0  0  0  0
   -0.7008    0.6130   -0.3481 C   0  0  0  0  0  0  0  0  0  0  0  0
   -1.7110   -0.0457    0.3687 C   0  0  0  0  0  0  0  0  0  0  0  0
   -1.3151   -0.6881    1.5089 O   0  0  0  0  0  0  0  0  0  0  0  0
   -0.8259   -1.9927    1.6428 C   0  0  0  0  0  0  0  0  0  0  0  0
   -3.0112   -0.0461   -0.0361 C   0  0  0  0  0  0  0  0  0  0  0  0
   -4.1330   -0.6555    0.6539 C   0  0  0  0  0  0  0  0  0  0  0  0
   -5.2491    0.1312    0.9557 C   0  0  0  0  0  0  0  0  0  0  0  0
   -6.3534   -0.4044    1.5827 C   0  0  0  0  0  0  0  0  0  0  0  0
   -6.3911   -1.7358    1.9323 C   0  0  0  0  0  0  0  0  0  0  0  0
   -5.2994   -2.5181    1.6397 C   0  0  0  0  0  0  0  0  0  0  0  0
   -4.1740   -1.9675    0.9991 C   0  0  0  0  0  0  0  0  0  0  0  0
   -3.2733    0.6388   -1.1888 N   0  0  0  0  0  0  0  0  0  0  0  0
   -2.3373    1.2825   -1.9004 C   0  0  0  0  0  0  0  0  0  0  0  0
   -2.6823    1.9832   -3.0512 C   0  0  0  0  0  0  0  0  0  0  0  0
   -1.7858    2.6895   -3.8171 C   0  0  0  0  0  0  0  0  0  0  0  0
   -0.4833    2.6670   -3.3692 C   0  0  0  0  0  0  0  0  0  0  0  0
   -0.0732    1.9966   -2.2441 C   0  0  0  0  0  0  0  0  0  0  0  0
   -0.9978    1.2956   -1.5016 C   0  0  0  0  0  0  0  0  0  0  0  0
    3.7101   -0.8354    0.5205 C   0  0  0  0  0  0  0  0  0  0  0  0
    4.4692   -1.6870   -0.2469 C   0  0  0  0  0  0  0  0  0  0  0  0
    5.0567   -2.8272    0.2953 C   0  0  0  0  0  0  0  0  0  0  0  0
    4.8790   -3.1125    1.6192 C   0  0  0  0  0  0  0  0  0  0  0  0
    4.1181   -2.2721    2.4195 C   0  0  0  0  0  0  0  0  0  0  0  0
    3.5385   -1.1325    1.8497 C   0  0  0  0  0  0  0  0  0  0  0  0
    5.1586    3.6559   -0.7015 H   0  0  0  0  0  0  0  0  0  0  0  0
    4.0360    4.3249    0.5362 H   0  0  0  0  0  0  0  0  0  0  0  0
    3.7025    4.5630   -1.2674 H   0  0  0  0  0  0  0  0  0  0  0  0
    1.7764    0.0724   -1.5873 H   0  0  0  0  0  0  0  0  0  0  0  0
   -0.6008   -2.4838    0.6644 H   0  0  0  0  0  0  0  0  0  0  0  0
   -1.4714   -2.6518    2.2580 H   0  0  0  0  0  0  0  0  0  0  0  0
    0.1536   -1.9475    2.1966 H   0  0  0  0  0  0  0  0  0  0  0  0
   -5.2214    1.1745    0.6827 H   0  0  0  0  0  0  0  0  0  0  0  0
   -7.2352    0.1869    1.8288 H   0  0  0  0  0  0  0  0  0  0  0  0
   -7.2693   -2.1634    2.4317 H   0  0  0  0  0  0  0  0  0  0  0  0
   -5.3165   -3.5666    1.9093 H   0  0  0  0  0  0  0  0  0  0  0  0
   -3.3684   -2.6520    0.7876 H   0  0  0  0  0  0  0  0  0  0  0  0
   -3.7301    1.9456   -3.3271 H   0  0  0  0  0  0  0  0  0  0  0  0
   -2.0778    3.2284   -4.7118 H   0  0  0  0  0  0  0  0  0  0  0  0
    0.2791    3.2085   -3.9301 H   0  0  0  0  0  0  0  0  0  0  0  0
    0.9704    2.0464   -1.9137 H   0  0  0  0  0  0  0  0  0  0  0  0
    4.6484   -1.5183   -1.3013 H   0  0  0  0  0  0  0  0  0  0  0  0
    5.6579   -3.5022   -0.3114 H   0  0  0  0  0  0  0  0  0  0  0  0
    5.3088   -3.9874    2.1118 H   0  0  0  0  0  0  0  0  0  0  0  0
    3.9675   -2.4829    3.4684 H   0  0  0  0  0  0  0  0  0  0  0  0
    2.9620   -0.5235    2.5241 H   0  0  0  0  0  0  0  0  0  0  0  0
  1  2  1  0
  2  3  1  0
  3  4  2  0
  3  5  1  0
  5  6  1  0
  6  7  1  0
  7  8  2  0
  7  9  1  0
  9 10  2  0
 10 11  1  0
 11 12  1  0
 10 13  1  0
 13 14  1  0
 14 15  2  0
 15 16  1  0
 16 17  2  0
 17 18  1  0
 18 19  2  0
 13 20  2  0
 20 21  1  0
 21 22  2  0
 22 23  1  0
 23 24  2  0
 24 25  1  0
 25 26  2  0
  5 27  1  0
 27 28  2  0
 28 29  1  0
 29 30  2  0
 30 31  1  0
 31 32  2  0
 26  9  1  0
 32 27  1  0
 19 14  1  0
 26 21  1  0
  1 33  1  0
  1 34  1  0
  1 35  1  0
  6 36  1  0
 12 37  1  0
 12 38  1  0
 12 39  1  0
 15 40  1  0
 16 41  1  0
 17 42  1  0
 18 43  1  0
 19 44  1  0
 22 45  1  0
 23 46  1  0
 24 47  1  0
 25 48  1  0
 28 49  1  0
 29 50  1  0
 30 51  1  0
 31 52  1  0
 32 53  1  0
M  END
$$$$
