@<TRIPOS>MOLECULE
*****
 40 44 0 0 0
SMALL
GASTEIGER

@<TRIPOS>ATOM
      1 N           4.3412   -0.9056    2.7480 N.1     1  UNL1       -0.1893
      2 C           3.9677   -1.2460    1.6878 C.1     1  UNL1        0.1192
      3 C           3.5283   -1.6419    0.3903 C.ar    1  UNL1        0.1438
      4 C           4.1271   -2.5324   -0.4591 C.ar    1  UNL1        0.0643
      5 N           3.3665   -2.5901   -1.5569 N.ar    1  UNL1       -0.2348
      6 C           2.3114   -1.7490   -1.3931 C.ar    1  UNL1        0.1385
      7 C           1.2600   -1.4633   -2.2415 C.ar    1  UNL1       -0.0181
      8 C           0.2861   -0.5568   -1.8518 C.ar    1  UNL1       -0.0477
      9 C           0.3861    0.0481   -0.6137 C.ar    1  UNL1        0.0173
     10 C          -0.6312    1.0171   -0.1653 C.ar    1  UNL1        0.0781
     11 C          -1.9486    0.6765    0.0203 C.ar    1  UNL1        0.0967
     12 C          -2.5448   -0.6399   -0.1827 C.ar    1  UNL1        0.0026
     13 C          -3.5503   -0.8613   -1.1165 C.ar    1  UNL1       -0.0498
     14 C          -4.1243   -2.0786   -1.3265 C.ar    1  UNL1       -0.0258
     15 C          -3.7072   -3.1593   -0.5919 C.ar    1  UNL1        0.1234
     16 F          -4.3009   -4.3461   -0.8304 F       1  UNL1       -0.2055
     17 C          -2.7094   -2.9918    0.3502 C.ar    1  UNL1       -0.0258
     18 C          -2.1442   -1.7482    0.5436 C.ar    1  UNL1       -0.0498
     19 N          -2.5627    1.8036    0.4247 N.ar    1  UNL1       -0.2351
     20 C          -1.6239    2.7947    0.4774 C.ar    1  UNL1        0.0973
     21 N          -0.4235    2.3127    0.1124 N.ar    1  UNL1       -0.3265
     22 C           0.8568    2.9899    0.0180 C.3     1  UNL1        0.0361
     23 C           0.8017    4.4335    0.4569 C.3     1  UNL1       -0.0302
     24 C           1.6042    3.4135    1.2007 C.3     1  UNL1       -0.0302
     25 C           1.4665   -0.2924    0.1721 C.ar    1  UNL1        0.0216
     26 N           2.4075   -1.1658   -0.1999 N.ar    1  UNL1       -0.2906
     27 H           5.0324   -3.0917   -0.3023 H       1  UNL1        0.0859
     28 H           1.1633   -1.9233   -3.2094 H       1  UNL1        0.0654
     29 H          -0.5592   -0.2959   -2.4770 H       1  UNL1        0.0626
     30 H          -3.8549    0.0218   -1.6809 H       1  UNL1        0.0625
     31 H          -4.9014   -2.1513   -2.0774 H       1  UNL1        0.0646
     32 H          -2.3907   -3.8693    0.9269 H       1  UNL1        0.0646
     33 H          -1.3685   -1.6476    1.2848 H       1  UNL1        0.0625
     34 H          -1.8273    3.8165    0.7716 H       1  UNL1        0.1029
     35 H           1.4551    2.8363   -0.9259 H       1  UNL1        0.0528
     36 H           1.3256    5.2030   -0.1734 H       1  UNL1        0.0286
     37 H          -0.0703    4.8342    0.9703 H       1  UNL1        0.0286
     38 H           2.7092    3.5015    1.1184 H       1  UNL1        0.0286
     39 H           1.2694    3.0824    2.1990 H       1  UNL1        0.0286
     40 H           1.5772    0.1624    1.1494 H       1  UNL1        0.0820
@<TRIPOS>BOND
     1     1     2    3
     2     2     3    1
     3     3     4   ar
     4     4     5   ar
     5     5     6   ar
     6     6     7   ar
     7     7     8   ar
     8     8     9   ar
     9     9    10    1
    10    10    11   ar
    11    11    12    1
    12    12    13   ar
    13    13    14   ar
    14    14    15   ar
    15    15    16    1
    16    15    17   ar
    17    17    18   ar
    18    11    19   ar
    19    19    20   ar
    20    20    21   ar
    21    21    22    1
    22    22    23    1
    23    23    24    1
    24     9    25   ar
    25    25    26   ar
    26    26     3   ar
    27    26     6   ar
    28    21    10   ar
    29    24    22    1
    30    18    12   ar
    31     4    27    1
    32     7    28    1
    33     8    29    1
    34    13    30    1
    35    14    31    1
    36    17    32    1
    37    18    33    1
    38    20    34    1
    39    22    35    1
    40    23    36    1
    41    23    37    1
    42    24    38    1
    43    24    39    1
    44    25    40    1
