
     RDKit          3D

 40 44  0  0  0  0  0  0  0  0999 V2000
    4.3412   -0.9056    2.7480 N   0  0  0  0  0  0  0  0  0  0  0  0
    3.9677   -1.2460    1.6878 C   0  0  0  0  0  0  0  0  0  0  0  0
    3.5283   -1.6419    0.3903 C   0  0  0  0  0  0  0  0  0  0  0  0
    4.1271   -2.5324   -0.4591 C   0  0  0  0  0  0  0  0  0  0  0  0
    3.3665   -2.5901   -1.5569 N   0  0  0  0  0  0  0  0  0  0  0  0
    2.3114   -1.7490   -1.3931 C   0  0  0  0  0  0  0  0  0  0  0  0
    1.2600   -1.4633   -2.2415 C   0  0  0  0  0  0  0  0  0  0  0  0
    0.2861   -0.5568   -1.8518 C   0  0  0  0  0  0  0  0  0  0  0  0
    0.3861    0.0481   -0.6137 C   0  0  0  0  0  0  0  0  0  0  0  0
   -0.6312    1.0171   -0.1653 C   0  0  0  0  0  0  0  0  0  0  0  0
   -1.9486    0.6765    0.0203 C   0  0  0  0  0  0  0  0  0  0  0  0
   -2.5448   -0.6399   -0.1827 C   0  0  0  0  0  0  0  0  0  0  0  0
   -3.5503   -0.8613   -1.1165 C   0  0  0  0  0  0  0  0  0  0  0  0
   -4.1243   -2.0786   -1.3265 C   0  0  0  0  0  0  0  0  0  0  0  0
   -3.7072   -3.1593   -0.5919 C   0  0  0  0  0  0  0  0  0  0  0  0
   -4.3009   -4.3461   -0.8304 F   0  0  0  0  0  0  0  0  0  0  0  0
   -2.7094   -2.9918    0.3502 C   0  0  0  0  0  0  0  0  0  0  0  0
   -2.1442   -1.7482    0.5436 C   0  0  0  0  0  0  0  0  0  0  0  0
   -2.5627    1.8036    0.4247 N   0  0  0  0  0  0  0  0  0  0  0  0
   -1.6239    2.7947    0.4774 C   0  0  0  0  0  0  0  0  0  0  0  0
   -0.4235    2.3127    0.1124 N   0  0  0  0  0  0  0  0  0  0  0  0
    0.8568    2.9899    0.0180 C   0  0  0  0  0  0  0  0  0  0  0  0
    0.8017    4.4335    0.4569 C   0  0  0  0  0  0  0  0  0  0  0  0
    1.6042    3.4135    1.2007 C   0  0  0  0  0  0  0  0  0  0  0  0
    1.4665   -0.2924    0.1721 C   0  0  0  0  0  0  0  0  0  0  0  0
    2.4075   -1.1658   -0.1999 N   0  0  0  0  0  0  0  0  0  0  0  0
    5.0324   -3.0917   -0.3023 H   0  0  0  0  0  0  0  0  0  0  0  0
    1.1633   -1.9233   -3.2094 H   0  0  0  0  0  0  0  0  0  0  0  0
   -0.5592   -0.2959   -2.4770 H   0  0  0  0  0  0  0  0  0  0  0  0
   -3.8549    0.0218   -1.6809 H   0  0  0  0  0  0  0  0  0  0  0  0
   -4.9014   -2.1513   -2.0774 H   0  0  0  0  0  0  0  0  0  0  0  0
   -2.3907   -3.8693    0.9269 H   0  0  0  0  0  0  0  0  0  0  0  0
   -1.3685   -1.6476    1.2848 H   0  0  0  0  0  0  0  0  0  0  0  0
   -1.8273    3.8165    0.7716 H   0  0  0  0  0  0  0  0  0  0  0  0
    1.4551    2.8363   -0.9259 H   0  0  0  0  0  0  0  0  0  0  0  0
    1.3256    5.2030   -0.1734 H   0  0  0  0  0  0  0  0  0  0  0  0
   -0.0703    4.8342    0.9703 H   0  0  0  0  0  0  0  0  0  0  0  0
    2.7092    3.5015    1.1184 H   0  0  0  0  0  0  0  0  0  0  0  0
    1.2694    3.0824    2.1990 H   0  0  0  0  0  0  0  0  0  0  0  0
    1.5772    0.1624    1.1494 H   0  0  0  0  0  0  0  0  0  0  0  0
  1  2  3  0
  2  3  1  0
  3  4  2  0
  4  5  1  0
  5  6  2  0
  6  7  1  0
  7  8  2  0
  8  9  1  0
  9 10  1  0
 10 11  2  0
 11 12  1  0
 12 13  2  0
 13 14  1  0
 14 15  2  0
 15 16  1  0
 15 17  1  0
 17 18  2  0
 11 19  1  0
 19 20  2  0
 20 21  1  0
 21 22  1  0
 22 23  1  0
 23 24  1  0
  9 25  2  0
 25 26  1  0
 26  3  1  0
 26  6  1  0
 21 10  1  0
 24 22  1  0
 18 12  1  0
  4 27  1  0
  7 28  1  0
  8 29  1  0
 13 30  1  0
 14 31  1  0
 17 32  1  0
 18 33  1  0
 20 34  1  0
 22 35  1  0
 23 36  1  0
 23 37  1  0
 24 38  1  0
 24 39  1  0
 25 40  1  0
M  END
$$$$
