
     RDKit          3D

 51 54  0  0  0  0  0  0  0  0999 V2000
    0.5809    3.2476   -0.3931 O   0  0  0  0  0  0  0  0  0  0  0  0
    0.5652    2.0146   -0.1772 C   0  0  0  0  0  0  0  0  0  0  0  0
    1.8623    1.3675    0.2128 C   0  0  0  0  0  0  0  0  0  0  0  0
    2.9528    2.3838    0.2621 C   0  0  0  0  0  0  0  0  0  0  0  0
    4.3024    1.9062    0.6073 C   0  0  0  0  0  0  0  0  0  0  0  0
    4.9768    1.0151   -0.3409 C   0  0  0  0  0  0  0  0  0  0  0  0
    4.4764    0.7297   -1.5818 C   0  0  0  0  0  0  0  0  0  0  0  0
    5.1757   -0.0855   -2.4903 C   0  0  0  0  0  0  0  0  0  0  0  0
    6.3968   -0.6246   -2.1556 C   0  0  0  0  0  0  0  0  0  0  0  0
    7.1127   -1.4320   -3.0275 C   0  0  0  0  0  0  0  0  0  0  0  0
    8.3348   -1.9570   -2.6619 C   0  0  0  0  0  0  0  0  0  0  0  0
    8.7745   -1.6249   -1.3982 C   0  0  0  0  0  0  0  0  0  0  0  0
    8.0796   -0.8435   -0.5571 N   0  0  0  0  0  0  0  0  0  0  0  0
    6.8696   -0.3151   -0.9002 C   0  0  0  0  0  0  0  0  0  0  0  0
    6.1894    0.4630   -0.0470 N   0  0  0  0  0  0  0  0  0  0  0  0
   -0.6304    1.2687   -0.2981 N   0  0  0  0  0  0  0  0  0  0  0  0
   -1.8340    1.9438   -0.6732 C   0  0  0  0  0  0  0  0  0  0  0  0
   -2.9463    0.9540   -0.7337 C   0  0  0  0  0  0  0  0  0  0  0  0
   -3.8011    0.5795    0.2896 C   0  0  0  0  0  0  0  0  0  0  0  0
   -4.6848   -0.3633   -0.1924 C   0  0  0  0  0  0  0  0  0  0  0  0
   -5.7548   -1.0441    0.4990 C   0  0  0  0  0  0  0  0  0  0  0  0
   -6.5406   -1.9609   -0.1501 C   0  0  0  0  0  0  0  0  0  0  0  0
   -7.5722   -2.6292    0.4834 C   0  0  0  0  0  0  0  0  0  0  0  0
   -7.8006   -2.3506    1.8075 C   0  0  0  0  0  0  0  0  0  0  0  0
   -8.8222   -3.0098    2.4419 F   0  0  0  0  0  0  0  0  0  0  0  0
   -7.0346   -1.4379    2.4930 C   0  0  0  0  0  0  0  0  0  0  0  0
   -7.3165   -1.1673    3.9227 C   0  0  0  0  0  0  0  0  0  0  0  0
   -7.1770   -2.3383    4.6393 F   0  0  0  0  0  0  0  0  0  0  0  0
   -6.4619   -0.2240    4.4337 F   0  0  0  0  0  0  0  0  0  0  0  0
   -8.6046   -0.6772    4.0848 F   0  0  0  0  0  0  0  0  0  0  0  0
   -5.9976   -0.7787    1.8212 C   0  0  0  0  0  0  0  0  0  0  0  0
   -4.3356   -0.5254   -1.4838 N   0  0  0  0  0  0  0  0  0  0  0  0
   -3.3305    0.2429   -1.7780 O   0  0  0  0  0  0  0  0  0  0  0  0
    1.6399    0.9696    1.2537 H   0  0  0  0  0  0  0  0  0  0  0  0
    2.0493    0.5560   -0.4816 H   0  0  0  0  0  0  0  0  0  0  0  0
    2.9630    2.9937   -0.6709 H   0  0  0  0  0  0  0  0  0  0  0  0
    2.6538    3.1273    1.0635 H   0  0  0  0  0  0  0  0  0  0  0  0
    4.9566    2.8333    0.7065 H   0  0  0  0  0  0  0  0  0  0  0  0
    4.3202    1.4908    1.6490 H   0  0  0  0  0  0  0  0  0  0  0  0
    3.5509    1.1174   -1.9720 H   0  0  0  0  0  0  0  0  0  0  0  0
    4.7723   -0.3072   -3.4694 H   0  0  0  0  0  0  0  0  0  0  0  0
    6.6953   -1.6423   -3.9993 H   0  0  0  0  0  0  0  0  0  0  0  0
    8.9111   -2.5875   -3.3215 H   0  0  0  0  0  0  0  0  0  0  0  0
    9.7443   -2.0207   -1.0632 H   0  0  0  0  0  0  0  0  0  0  0  0
   -0.6212    0.2613   -0.1171 H   0  0  0  0  0  0  0  0  0  0  0  0
   -2.0994    2.6906    0.1266 H   0  0  0  0  0  0  0  0  0  0  0  0
   -1.7744    2.4504   -1.6559 H   0  0  0  0  0  0  0  0  0  0  0  0
   -3.7815    0.9644    1.3091 H   0  0  0  0  0  0  0  0  0  0  0  0
   -6.3815   -2.1996   -1.1964 H   0  0  0  0  0  0  0  0  0  0  0  0
   -8.1901   -3.3565   -0.0450 H   0  0  0  0  0  0  0  0  0  0  0  0
   -5.4132   -0.0682    2.3841 H   0  0  0  0  0  0  0  0  0  0  0  0
  1  2  2  0
  2  3  1  0
  3  4  1  0
  4  5  1  0
  5  6  1  0
  6  7  2  0
  7  8  1  0
  8  9  2  0
  9 10  1  0
 10 11  2  0
 11 12  1  0
 12 13  2  0
 13 14  1  0
 14 15  2  0
  2 16  1  0
 16 17  1  0
 17 18  1  0
 18 19  2  0
 19 20  1  0
 20 21  1  0
 21 22  2  0
 22 23  1  0
 23 24  2  0
 24 25  1  0
 24 26  1  0
 26 27  1  0
 27 28  1  0
 27 29  1  0
 27 30  1  0
 26 31  2  0
 20 32  2  0
 32 33  1  0
 15  6  1  0
 33 18  1  0
 14  9  1  0
 31 21  1  0
  3 34  1  0
  3 35  1  0
  4 36  1  0
  4 37  1  0
  5 38  1  0
  5 39  1  0
  7 40  1  0
  8 41  1  0
 10 42  1  0
 11 43  1  0
 12 44  1  0
 16 45  1  0
 17 46  1  0
 17 47  1  0
 19 48  1  0
 22 49  1  0
 23 50  1  0
 31 51  1  0
M  END
$$$$
