@<TRIPOS>MOLECULE
*****
 51 54 0 0 0
SMALL
GASTEIGER

@<TRIPOS>ATOM
      1 O           0.5809    3.2476   -0.3931 O.2     1  UNL1       -0.2758
      2 C           0.5652    2.0146   -0.1772 C.2     1  UNL1        0.2134
      3 C           1.8623    1.3675    0.2128 C.3     1  UNL1        0.0243
      4 C           2.9528    2.3838    0.2621 C.3     1  UNL1       -0.0394
      5 C           4.3024    1.9062    0.6073 C.3     1  UNL1       -0.0099
      6 C           4.9768    1.0151   -0.3409 C.ar    1  UNL1        0.0437
      7 C           4.4764    0.7297   -1.5818 C.ar    1  UNL1       -0.0397
      8 C           5.1757   -0.0855   -2.4903 C.ar    1  UNL1       -0.0494
      9 C           6.3968   -0.6246   -2.1556 C.ar    1  UNL1        0.0192
     10 C           7.1127   -1.4320   -3.0275 C.ar    1  UNL1       -0.0496
     11 C           8.3348   -1.9570   -2.6619 C.ar    1  UNL1       -0.0429
     12 C           8.7745   -1.6249   -1.3982 C.ar    1  UNL1        0.0300
     13 N           8.0796   -0.8435   -0.5571 N.ar    1  UNL1       -0.2357
     14 C           6.8696   -0.3151   -0.9002 C.ar    1  UNL1        0.1599
     15 N           6.1894    0.4630   -0.0470 N.ar    1  UNL1       -0.2323
     16 N          -0.6304    1.2687   -0.2981 N.am    1  UNL1       -0.3081
     17 C          -1.8340    1.9438   -0.6732 C.3     1  UNL1        0.0724
     18 C          -2.9463    0.9540   -0.7337 C.ar    1  UNL1        0.1548
     19 C          -3.8011    0.5795    0.2896 C.ar    1  UNL1        0.0098
     20 C          -4.6848   -0.3633   -0.1924 C.ar    1  UNL1        0.1136
     21 C          -5.7548   -1.0441    0.4990 C.ar    1  UNL1        0.0044
     22 C          -6.5406   -1.9609   -0.1501 C.ar    1  UNL1       -0.0497
     23 C          -7.5722   -2.6292    0.4834 C.ar    1  UNL1       -0.0253
     24 C          -7.8006   -2.3506    1.8075 C.ar    1  UNL1        0.1351
     25 F          -8.8222   -3.0098    2.4419 F       1  UNL1       -0.2049
     26 C          -7.0346   -1.4379    2.4930 C.ar    1  UNL1        0.0905
     27 C          -7.3165   -1.1673    3.9227 C.3     1  UNL1        0.4201
     28 F          -7.1770   -2.3383    4.6393 F       1  UNL1       -0.1658
     29 F          -6.4619   -0.2240    4.4337 F       1  UNL1       -0.1658
     30 F          -8.6046   -0.6772    4.0848 F       1  UNL1       -0.1658
     31 C          -5.9976   -0.7787    1.8212 C.ar    1  UNL1       -0.0380
     32 N          -4.3356   -0.5254   -1.4838 N.ar    1  UNL1       -0.0780
     33 O          -3.3305    0.2429   -1.7780 O.2     1  UNL1       -0.3575
     34 H           1.6399    0.9696    1.2537 H       1  UNL1        0.0358
     35 H           2.0493    0.5560   -0.4816 H       1  UNL1        0.0358
     36 H           2.9630    2.9937   -0.6709 H       1  UNL1        0.0273
     37 H           2.6538    3.1273    1.0635 H       1  UNL1        0.0273
     38 H           4.9566    2.8333    0.7065 H       1  UNL1        0.0328
     39 H           4.3202    1.4908    1.6490 H       1  UNL1        0.0328
     40 H           3.5509    1.1174   -1.9720 H       1  UNL1        0.0636
     41 H           4.7723   -0.3072   -3.4694 H       1  UNL1        0.0625
     42 H           6.6953   -1.6423   -3.9993 H       1  UNL1        0.0625
     43 H           8.9111   -2.5875   -3.3215 H       1  UNL1        0.0633
     44 H           9.7443   -2.0207   -1.0632 H       1  UNL1        0.0830
     45 H          -0.6212    0.2613   -0.1171 H       1  UNL1        0.1491
     46 H          -2.0994    2.6906    0.1266 H       1  UNL1        0.0543
     47 H          -1.7744    2.4504   -1.6559 H       1  UNL1        0.0543
     48 H          -3.7815    0.9644    1.3091 H       1  UNL1        0.0675
     49 H          -6.3815   -2.1996   -1.1964 H       1  UNL1        0.0625
     50 H          -8.1901   -3.3565   -0.0450 H       1  UNL1        0.0646
     51 H          -5.4132   -0.0682    2.3841 H       1  UNL1        0.0630
@<TRIPOS>BOND
     1     1     2    2
     2     2     3    1
     3     3     4    1
     4     4     5    1
     5     5     6    1
     6     6     7   ar
     7     7     8   ar
     8     8     9   ar
     9     9    10   ar
    10    10    11   ar
    11    11    12   ar
    12    12    13   ar
    13    13    14   ar
    14    14    15   ar
    15     2    16   am
    16    16    17    1
    17    17    18    1
    18    18    19   ar
    19    19    20   ar
    20    20    21    1
    21    21    22   ar
    22    22    23   ar
    23    23    24   ar
    24    24    25    1
    25    24    26   ar
    26    26    27    1
    27    27    28    1
    28    27    29    1
    29    27    30    1
    30    26    31   ar
    31    20    32   ar
    32    32    33   ar
    33    15     6   ar
    34    33    18   ar
    35    14     9   ar
    36    31    21   ar
    37     3    34    1
    38     3    35    1
    39     4    36    1
    40     4    37    1
    41     5    38    1
    42     5    39    1
    43     7    40    1
    44     8    41    1
    45    10    42    1
    46    11    43    1
    47    12    44    1
    48    16    45    1
    49    17    46    1
    50    17    47    1
    51    19    48    1
    52    22    49    1
    53    23    50    1
    54    31    51    1
