@<TRIPOS>MOLECULE
*****
 76 78 0 0 0
SMALL
GASTEIGER

@<TRIPOS>ATOM
      1 C          -8.3838    2.3147    0.4675 C.3     1  UNL1        0.0364
      2 O          -7.8336    1.3302   -0.3158 O.3     1  UNL1       -0.3829
      3 C          -7.3639    0.2903    0.4115 C.3     1  UNL1        0.0504
      4 C          -6.2639    0.6889    1.3759 C.3     1  UNL1        0.0049
      5 C          -5.8571   -0.6143    2.0644 C.3     1  UNL1        0.0918
      6 O          -5.3937   -1.5100    1.1380 O.3     1  UNL1       -0.4882
      7 C          -4.2737   -1.4212    0.3735 C.ar    1  UNL1        0.1626
      8 C          -3.3172   -0.4364    0.3924 C.ar    1  UNL1       -0.0042
      9 C          -2.2000   -0.4176   -0.4332 C.ar    1  UNL1        0.0406
     10 C          -1.2687    0.6823   -0.3204 C.2     1  UNL1        0.2470
     11 O          -1.7023    1.8246   -0.5526 O.2     1  UNL1       -0.2700
     12 N           0.1156    0.4854    0.0448 N.am    1  UNL1       -0.2946
     13 C           0.9933    1.5882    0.1109 C.3     1  UNL1        0.0207
     14 C           1.7509    2.1051   -1.0181 C.3     1  UNL1        0.0055
     15 C           0.9629    2.5689   -2.2297 C.3     1  UNL1        0.0017
     16 N           0.9016    1.3197   -2.9729 N.3     1  UNL1       -0.3141
     17 C           2.3253    0.9888   -3.0316 C.3     1  UNL1        0.0133
     18 C           2.8390    1.3365   -1.6564 C.3     1  UNL1        0.0463
     19 N           4.0936    2.0700   -1.7306 N.3     1  UNL1       -0.1896
     20 S           5.4013    1.3111   -0.9854 S.O2    1  UNL1        0.0338
     21 O           5.7176   -0.0034   -1.6762 O.2     1  UNL1       -0.1579
     22 O           6.6206    2.1727   -1.1621 O.2     1  UNL1       -0.1579
     23 C           5.1808    1.0644    0.7590 C.3     1  UNL1        0.1067
     24 C           6.3567    0.3961    1.3650 C.ar    1  UNL1       -0.0250
     25 C           6.4589   -0.9708    1.4694 C.ar    1  UNL1       -0.0570
     26 C           7.5411   -1.6013    2.0243 C.ar    1  UNL1       -0.0615
     27 C           8.6022   -0.8591    2.5146 C.ar    1  UNL1       -0.0617
     28 C           8.5191    0.5114    2.4196 C.ar    1  UNL1       -0.0615
     29 C           7.4280    1.1384    1.8605 C.ar    1  UNL1       -0.0570
     30 C           0.4809   -0.8433    0.4644 C.3     1  UNL1        0.0207
     31 C           1.3543   -1.6166   -0.4836 C.3     1  UNL1       -0.0467
     32 C           1.0222   -0.8558    1.8758 C.3     1  UNL1       -0.0467
     33 C          -2.0663   -1.4677   -1.3182 C.ar    1  UNL1       -0.0459
     34 C          -3.0092   -2.4855   -1.3696 C.ar    1  UNL1       -0.0156
     35 C          -4.0930   -2.4736   -0.5472 C.ar    1  UNL1        0.1615
     36 O          -5.0525   -3.4920   -0.5859 O.3     1  UNL1       -0.4915
     37 C          -4.9792   -4.5852   -1.4529 C.3     1  UNL1        0.0790
     38 H          -7.6290    2.7319    1.1381 H       1  UNL1        0.0523
     39 H          -9.2211    1.8493    1.0457 H       1  UNL1        0.0523
     40 H          -8.7977    3.0864   -0.2373 H       1  UNL1        0.0523
     41 H          -6.9231   -0.5331   -0.2055 H       1  UNL1        0.0561
     42 H          -8.1508   -0.1868    1.0674 H       1  UNL1        0.0561
     43 H          -6.5942    1.4283    2.1391 H       1  UNL1        0.0320
     44 H          -5.4588    1.0943    0.7644 H       1  UNL1        0.0320
     45 H          -5.1460   -0.4104    2.8953 H       1  UNL1        0.0697
     46 H          -6.7832   -0.9866    2.5979 H       1  UNL1        0.0697
     47 H          -3.4006    0.3618    1.0964 H       1  UNL1        0.0663
     48 H           0.3601    2.4685    0.5186 H       1  UNL1        0.0468
     49 H           1.7296    1.4774    0.9788 H       1  UNL1        0.0468
     50 H           2.2669    3.0658   -0.6311 H       1  UNL1        0.0344
     51 H           1.6226    3.2606   -2.8173 H       1  UNL1        0.0428
     52 H           0.0485    3.0805   -2.0531 H       1  UNL1        0.0428
     53 H           0.5669    1.5752   -3.9305 H       1  UNL1        0.1220
     54 H           2.7433    1.6527   -3.8163 H       1  UNL1        0.0440
     55 H           2.3948   -0.0806   -3.2877 H       1  UNL1        0.0440
     56 H           3.0664    0.4267   -1.1097 H       1  UNL1        0.0493
     57 H           3.9957    3.0684   -1.5219 H       1  UNL1        0.1480
     58 H           4.3096    0.4032    0.9523 H       1  UNL1        0.0565
     59 H           5.0889    2.0507    1.2484 H       1  UNL1        0.0565
     60 H           5.6427   -1.5769    1.0936 H       1  UNL1        0.0621
     61 H           7.6358   -2.6747    2.1125 H       1  UNL1        0.0618
     62 H           9.4694   -1.3600    2.9592 H       1  UNL1        0.0618
     63 H           9.3516    1.0900    2.8050 H       1  UNL1        0.0618
     64 H           7.4212    2.2336    1.8139 H       1  UNL1        0.0621
     65 H          -0.4686   -1.5016    0.5046 H       1  UNL1        0.0495
     66 H           1.0998   -2.7229   -0.4721 H       1  UNL1        0.0247
     67 H           2.3948   -1.5820   -0.0720 H       1  UNL1        0.0247
     68 H           1.3724   -1.2291   -1.4962 H       1  UNL1        0.0247
     69 H           0.6310   -1.7152    2.4474 H       1  UNL1        0.0247
     70 H           0.6494    0.0618    2.3662 H       1  UNL1        0.0247
     71 H           2.1275   -0.9431    1.8962 H       1  UNL1        0.0247
     72 H          -1.2284   -1.5080   -1.9773 H       1  UNL1        0.0626
     73 H          -2.8809   -3.3119   -2.0838 H       1  UNL1        0.0655
     74 H          -5.6209   -5.4310   -1.1199 H       1  UNL1        0.0660
     75 H          -5.3477   -4.2829   -2.4574 H       1  UNL1        0.0660
     76 H          -3.9460   -4.9647   -1.5841 H       1  UNL1        0.0660
@<TRIPOS>BOND
     1     1     2    1
     2     2     3    1
     3     3     4    1
     4     4     5    1
     5     5     6    1
     6     6     7    1
     7     7     8   ar
     8     8     9   ar
     9     9    10    1
    10    10    11    2
    11    10    12   am
    12    12    13    1
    13    13    14    1
    14    14    15    1
    15    15    16    1
    16    16    17    1
    17    17    18    1
    18    18    19    1
    19    19    20    1
    20    20    21    2
    21    20    22    2
    22    20    23    1
    23    23    24    1
    24    24    25   ar
    25    25    26   ar
    26    26    27   ar
    27    27    28   ar
    28    28    29   ar
    29    12    30    1
    30    30    31    1
    31    30    32    1
    32     9    33   ar
    33    33    34   ar
    34    34    35   ar
    35    35    36    1
    36    36    37    1
    37    35     7   ar
    38    18    14    1
    39    29    24   ar
    40     1    38    1
    41     1    39    1
    42     1    40    1
    43     3    41    1
    44     3    42    1
    45     4    43    1
    46     4    44    1
    47     5    45    1
    48     5    46    1
    49     8    47    1
    50    13    48    1
    51    13    49    1
    52    14    50    1
    53    15    51    1
    54    15    52    1
    55    16    53    1
    56    17    54    1
    57    17    55    1
    58    18    56    1
    59    19    57    1
    60    23    58    1
    61    23    59    1
    62    25    60    1
    63    26    61    1
    64    27    62    1
    65    28    63    1
    66    29    64    1
    67    30    65    1
    68    31    66    1
    69    31    67    1
    70    31    68    1
    71    32    69    1
    72    32    70    1
    73    32    71    1
    74    33    72    1
    75    34    73    1
    76    37    74    1
    77    37    75    1
    78    37    76    1
