@<TRIPOS>MOLECULE
*****
 52 57 0 0 0
SMALL
GASTEIGER

@<TRIPOS>ATOM
      1 C           4.0392    2.4249   -1.6537 C.3     1  UNL1       -0.0361
      2 C           3.4883    1.1275   -1.1665 C.ar    1  UNL1       -0.0041
      3 C           2.1314    0.9435   -1.0272 C.ar    1  UNL1       -0.0324
      4 C           1.5524   -0.2419   -0.5777 C.ar    1  UNL1        0.0545
      5 N           0.1419   -0.3687   -0.4481 N.am    1  UNL1       -0.2529
      6 C          -0.5175   -1.5495   -0.0506 C.2     1  UNL1        0.2553
      7 O          -0.0874   -2.6836    0.2939 O.2     1  UNL1       -0.2695
      8 C          -1.9456   -1.2706   -0.0890 C.ar    1  UNL1        0.0834
      9 C          -3.1942   -1.8292    0.1113 C.ar    1  UNL1        0.0785
     10 C          -3.5014   -3.1925    0.5440 C.3     1  UNL1        0.0039
     11 C          -3.6406   -3.5590    1.9704 C.3     1  UNL1       -0.0441
     12 C          -4.8920   -3.3608    1.1516 C.3     1  UNL1       -0.0441
     13 N          -4.0873   -0.8556   -0.1753 N.ar    1  UNL1       -0.1751
     14 N          -3.4870    0.2410   -0.5304 N.ar    1  UNL1       -0.2682
     15 C          -4.0612    1.5221   -0.9200 C.3     1  UNL1        0.0306
     16 C          -2.1387    0.0177   -0.4871 C.ar    1  UNL1        0.0765
     17 C          -0.8158    0.6418   -0.6890 C.3     1  UNL1        0.0988
     18 C          -0.6737    1.8500    0.1595 C.ar    1  UNL1       -0.0207
     19 C          -0.8771    3.0806   -0.4232 C.ar    1  UNL1       -0.0550
     20 C          -0.7773    4.2714    0.2457 C.ar    1  UNL1       -0.0431
     21 C          -0.4533    4.2291    1.5835 C.ar    1  UNL1        0.0410
     22 CL         -0.3211    5.7477    2.4576 Cl      1  UNL1       -0.0835
     23 C          -0.2419    3.0142    2.2030 C.ar    1  UNL1       -0.0431
     24 C          -0.3520    1.8164    1.4898 C.ar    1  UNL1       -0.0550
     25 C           2.4408   -1.2525   -0.2707 C.ar    1  UNL1        0.0345
     26 N           3.7925   -1.1096   -0.3954 N.ar    1  UNL1       -0.2798
     27 C           4.8007   -1.9741   -0.1464 C.ar    1  UNL1        0.2041
     28 C           4.7106   -3.3656    0.3486 C.3     1  UNL1        0.2980
     29 F           4.0546   -3.4380    1.5659 F       1  UNL1       -0.2005
     30 F           4.0010   -4.1516   -0.5386 F       1  UNL1       -0.2005
     31 N           5.9375   -1.3227   -0.4383 N.ar    1  UNL1       -0.1278
     32 N           5.6282   -0.0903   -0.8553 N.ar    1  UNL1       -0.1290
     33 C           4.2912    0.0564   -0.8334 C.ar    1  UNL1        0.1642
     34 H           3.5833    3.2615   -1.0472 H       1  UNL1        0.0279
     35 H           3.7816    2.5891   -2.7252 H       1  UNL1        0.0279
     36 H           5.1343    2.4555   -1.4780 H       1  UNL1        0.0279
     37 H           1.4807    1.7503   -1.2810 H       1  UNL1        0.0640
     38 H          -3.2348   -3.9881   -0.1838 H       1  UNL1        0.0365
     39 H          -3.4179   -2.8649    2.7891 H       1  UNL1        0.0272
     40 H          -3.4403   -4.6386    2.2113 H       1  UNL1        0.0272
     41 H          -5.4584   -2.4475    1.4126 H       1  UNL1        0.0272
     42 H          -5.4883   -4.2390    0.8492 H       1  UNL1        0.0272
     43 H          -3.6916    2.3408   -0.2727 H       1  UNL1        0.0473
     44 H          -3.8906    1.7427   -1.9936 H       1  UNL1        0.0473
     45 H          -5.1573    1.4575   -0.7323 H       1  UNL1        0.0473
     46 H          -0.6913    0.9615   -1.7612 H       1  UNL1        0.0620
     47 H          -1.1355    3.1226   -1.4886 H       1  UNL1        0.0621
     48 H          -0.9448    5.2389   -0.2442 H       1  UNL1        0.0632
     49 H           0.0077    3.0264    3.2433 H       1  UNL1        0.0632
     50 H          -0.1907    0.8748    1.9591 H       1  UNL1        0.0621
     51 H           2.0979   -2.2105    0.0862 H       1  UNL1        0.0833
     52 H           5.7111   -3.8011    0.4462 H       1  UNL1        0.1105
@<TRIPOS>BOND
     1     1     2    1
     2     2     3   ar
     3     3     4   ar
     4     4     5    1
     5     5     6   am
     6     6     7    2
     7     6     8    1
     8     8     9   ar
     9     9    10    1
    10    10    11    1
    11    11    12    1
    12     9    13   ar
    13    13    14   ar
    14    14    15    1
    15    14    16   ar
    16    16    17    1
    17    17    18    1
    18    18    19   ar
    19    19    20   ar
    20    20    21   ar
    21    21    22    1
    22    21    23   ar
    23    23    24   ar
    24     4    25   ar
    25    25    26   ar
    26    26    27   ar
    27    27    28    1
    28    28    29    1
    29    28    30    1
    30    27    31   ar
    31    31    32   ar
    32    32    33   ar
    33    33     2   ar
    34    17     5    1
    35    24    18   ar
    36    33    26   ar
    37    16     8   ar
    38    12    10    1
    39     1    34    1
    40     1    35    1
    41     1    36    1
    42     3    37    1
    43    10    38    1
    44    11    39    1
    45    11    40    1
    46    12    41    1
    47    12    42    1
    48    15    43    1
    49    15    44    1
    50    15    45    1
    51    17    46    1
    52    19    47    1
    53    20    48    1
    54    23    49    1
    55    24    50    1
    56    25    51    1
    57    28    52    1
