
     RDKit          3D

 52 57  0  0  0  0  0  0  0  0999 V2000
    4.0392    2.4249   -1.6537 C   0  0  0  0  0  0  0  0  0  0  0  0
    3.4883    1.1275   -1.1665 C   0  0  0  0  0  0  0  0  0  0  0  0
    2.1314    0.9435   -1.0272 C   0  0  0  0  0  0  0  0  0  0  0  0
    1.5524   -0.2419   -0.5777 C   0  0  0  0  0  0  0  0  0  0  0  0
    0.1419   -0.3687   -0.4481 N   0  0  0  0  0  0  0  0  0  0  0  0
   -0.5175   -1.5495   -0.0506 C   0  0  0  0  0  0  0  0  0  0  0  0
   -0.0874   -2.6836    0.2939 O   0  0  0  0  0  0  0  0  0  0  0  0
   -1.9456   -1.2706   -0.0890 C   0  0  0  0  0  0  0  0  0  0  0  0
   -3.1942   -1.8292    0.1113 C   0  0  0  0  0  0  0  0  0  0  0  0
   -3.5014   -3.1925    0.5440 C   0  0  0  0  0  0  0  0  0  0  0  0
   -3.6406   -3.5590    1.9704 C   0  0  0  0  0  0  0  0  0  0  0  0
   -4.8920   -3.3608    1.1516 C   0  0  0  0  0  0  0  0  0  0  0  0
   -4.0873   -0.8556   -0.1753 N   0  0  0  0  0  0  0  0  0  0  0  0
   -3.4870    0.2410   -0.5304 N   0  0  0  0  0  0  0  0  0  0  0  0
   -4.0612    1.5221   -0.9200 C   0  0  0  0  0  0  0  0  0  0  0  0
   -2.1387    0.0177   -0.4871 C   0  0  0  0  0  0  0  0  0  0  0  0
   -0.8158    0.6418   -0.6890 C   0  0  1  0  0  0  0  0  0  0  0  0
   -0.6737    1.8500    0.1595 C   0  0  0  0  0  0  0  0  0  0  0  0
   -0.8771    3.0806   -0.4232 C   0  0  0  0  0  0  0  0  0  0  0  0
   -0.7773    4.2714    0.2457 C   0  0  0  0  0  0  0  0  0  0  0  0
   -0.4533    4.2291    1.5835 C   0  0  0  0  0  0  0  0  0  0  0  0
   -0.3211    5.7477    2.4576 Cl  0  0  0  0  0  0  0  0  0  0  0  0
   -0.2419    3.0142    2.2030 C   0  0  0  0  0  0  0  0  0  0  0  0
   -0.3520    1.8164    1.4898 C   0  0  0  0  0  0  0  0  0  0  0  0
    2.4408   -1.2525   -0.2707 C   0  0  0  0  0  0  0  0  0  0  0  0
    3.7925   -1.1096   -0.3954 N   0  0  0  0  0  0  0  0  0  0  0  0
    4.8007   -1.9741   -0.1464 C   0  0  0  0  0  0  0  0  0  0  0  0
    4.7106   -3.3656    0.3486 C   0  0  0  0  0  0  0  0  0  0  0  0
    4.0546   -3.4380    1.5659 F   0  0  0  0  0  0  0  0  0  0  0  0
    4.0010   -4.1516   -0.5386 F   0  0  0  0  0  0  0  0  0  0  0  0
    5.9375   -1.3227   -0.4383 N   0  0  0  0  0  0  0  0  0  0  0  0
    5.6282   -0.0903   -0.8553 N   0  0  0  0  0  0  0  0  0  0  0  0
    4.2912    0.0564   -0.8334 C   0  0  0  0  0  0  0  0  0  0  0  0
    3.5833    3.2615   -1.0472 H   0  0  0  0  0  0  0  0  0  0  0  0
    3.7816    2.5891   -2.7252 H   0  0  0  0  0  0  0  0  0  0  0  0
    5.1343    2.4555   -1.4780 H   0  0  0  0  0  0  0  0  0  0  0  0
    1.4807    1.7503   -1.2810 H   0  0  0  0  0  0  0  0  0  0  0  0
   -3.2348   -3.9881   -0.1838 H   0  0  0  0  0  0  0  0  0  0  0  0
   -3.4179   -2.8649    2.7891 H   0  0  0  0  0  0  0  0  0  0  0  0
   -3.4403   -4.6386    2.2113 H   0  0  0  0  0  0  0  0  0  0  0  0
   -5.4584   -2.4475    1.4126 H   0  0  0  0  0  0  0  0  0  0  0  0
   -5.4883   -4.2390    0.8492 H   0  0  0  0  0  0  0  0  0  0  0  0
   -3.6916    2.3408   -0.2727 H   0  0  0  0  0  0  0  0  0  0  0  0
   -3.8906    1.7427   -1.9936 H   0  0  0  0  0  0  0  0  0  0  0  0
   -5.1573    1.4575   -0.7323 H   0  0  0  0  0  0  0  0  0  0  0  0
   -0.6913    0.9615   -1.7612 H   0  0  0  0  0  0  0  0  0  0  0  0
   -1.1355    3.1226   -1.4886 H   0  0  0  0  0  0  0  0  0  0  0  0
   -0.9448    5.2389   -0.2442 H   0  0  0  0  0  0  0  0  0  0  0  0
    0.0077    3.0264    3.2433 H   0  0  0  0  0  0  0  0  0  0  0  0
   -0.1907    0.8748    1.9591 H   0  0  0  0  0  0  0  0  0  0  0  0
    2.0979   -2.2105    0.0862 H   0  0  0  0  0  0  0  0  0  0  0  0
    5.7111   -3.8011    0.4462 H   0  0  0  0  0  0  0  0  0  0  0  0
  1  2  1  0
  2  3  2  0
  3  4  1  0
  4  5  1  0
  5  6  1  0
  6  7  2  0
  6  8  1  0
  8  9  1  0
  9 10  1  0
 10 11  1  0
 11 12  1  0
  9 13  2  0
 13 14  1  0
 14 15  1  0
 14 16  1  0
 16 17  1  0
 17 18  1  0
 18 19  2  0
 19 20  1  0
 20 21  2  0
 21 22  1  0
 21 23  1  0
 23 24  2  0
  4 25  2  0
 25 26  1  0
 26 27  1  0
 27 28  1  0
 28 29  1  0
 28 30  1  0
 27 31  2  0
 31 32  1  0
 32 33  2  0
 33  2  1  0
 17  5  1  0
 24 18  1  0
 33 26  1  0
 16  8  2  0
 12 10  1  0
  1 34  1  0
  1 35  1  0
  1 36  1  0
  3 37  1  0
 10 38  1  0
 11 39  1  0
 11 40  1  0
 12 41  1  0
 12 42  1  0
 15 43  1  0
 15 44  1  0
 15 45  1  0
 17 46  1  6
 19 47  1  0
 20 48  1  0
 23 49  1  0
 24 50  1  0
 25 51  1  0
 28 52  1  0
M  END
$$$$
