@<TRIPOS>MOLECULE
*****
 66 69 0 0 0
SMALL
GASTEIGER

@<TRIPOS>ATOM
      1 C           0.1036    2.7752   -1.7826 C.3     1  UNL1       -0.0421
      2 C           0.3057    1.2897   -2.0072 C.3     1  UNL1        0.0515
      3 C           1.6300    0.9194   -1.4939 C.ar    1  UNL1       -0.0271
      4 C           1.9982   -0.4047   -1.3833 C.ar    1  UNL1       -0.0562
      5 C           3.2274   -0.8194   -0.9065 C.ar    1  UNL1       -0.0537
      6 C           4.1224    0.1577   -0.5250 C.ar    1  UNL1       -0.0177
      7 C           5.4590   -0.1617   -0.0029 C.ar    1  UNL1       -0.0114
      8 C           6.4972    0.7221   -0.2408 C.ar    1  UNL1       -0.0374
      9 C           7.7772    0.4930    0.2166 C.ar    1  UNL1        0.0137
     10 N           8.0159   -0.6287    0.9161 N.ar    1  UNL1       -0.2583
     11 C           9.3428   -0.9400    1.4328 C.3     1  UNL1        0.3223
     12 F           9.7634    0.1878    2.1388 F       1  UNL1       -0.1846
     13 F           9.2818   -1.9666    2.3389 F       1  UNL1       -0.1846
     14 C           7.0186   -1.4947    1.1544 C.ar    1  UNL1        0.2560
     15 O           7.2834   -2.5496    1.8227 O.2     1  UNL1       -0.2675
     16 C           5.7187   -1.2970    0.7098 C.ar    1  UNL1        0.0108
     17 C           3.7680    1.4904   -0.6300 C.ar    1  UNL1       -0.0537
     18 C           2.5393    1.8861   -1.1071 C.ar    1  UNL1       -0.0562
     19 N          -0.7777    0.5138   -1.4508 N.am    1  UNL1       -0.2605
     20 C          -1.7154   -0.2488   -2.2596 C.3     1  UNL1        0.0224
     21 C          -3.1259    0.0031   -1.7709 C.3     1  UNL1        0.0076
     22 C          -3.2905   -0.4183   -0.2915 C.3     1  UNL1        0.1440
     23 C          -3.6760   -1.8413   -0.3008 C.3     1  UNL1        0.0199
     24 C          -3.8729   -2.5556    0.9651 C.3     1  UNL1        0.0645
     25 C          -4.9406   -2.0100    1.8729 C.3     1  UNL1       -0.0362
     26 C          -2.5946   -2.8036    1.7438 C.3     1  UNL1       -0.0362
     27 O          -4.3207   -3.8616    0.6230 O.3     1  UNL1       -0.3890
     28 C          -4.2851    0.5377    0.2365 C.ar    1  UNL1       -0.0040
     29 C          -3.8582    1.6200    0.9578 C.ar    1  UNL1       -0.0548
     30 C          -4.7618    2.5471    1.4372 C.ar    1  UNL1       -0.0614
     31 C          -6.1102    2.3883    1.1911 C.ar    1  UNL1       -0.0617
     32 C          -6.5621    1.3102    0.4697 C.ar    1  UNL1       -0.0614
     33 C          -5.6211    0.3891   -0.0020 C.ar    1  UNL1       -0.0548
     34 O          -2.0519   -0.3011    0.4035 O.3     1  UNL1       -0.4387
     35 C          -0.9864    0.4610   -0.0457 C.2     1  UNL1        0.4042
     36 O          -0.1977    1.1034    0.6900 O.2     1  UNL1       -0.2262
     37 H          -0.9373    3.0377   -2.1295 H       1  UNL1        0.0251
     38 H           0.2533    3.0215   -0.7293 H       1  UNL1        0.0251
     39 H           0.7778    3.3093   -2.4831 H       1  UNL1        0.0251
     40 H           0.2532    1.1598   -3.1280 H       1  UNL1        0.0549
     41 H           1.3172   -1.2140   -1.6750 H       1  UNL1        0.0621
     42 H           3.5023   -1.8744   -0.8259 H       1  UNL1        0.0624
     43 H           6.3462    1.6451   -0.8044 H       1  UNL1        0.0638
     44 H           8.6037    1.1636    0.0459 H       1  UNL1        0.0812
     45 H          10.0669   -1.1627    0.6461 H       1  UNL1        0.1281
     46 H           4.9242   -1.9986    0.9063 H       1  UNL1        0.0678
     47 H           4.4680    2.2860   -0.3314 H       1  UNL1        0.0624
     48 H           2.3009    2.9598   -1.1730 H       1  UNL1        0.0621
     49 H          -1.4674   -1.3243   -2.2957 H       1  UNL1        0.0467
     50 H          -1.6729    0.1396   -3.2894 H       1  UNL1        0.0467
     51 H          -3.7999   -0.6177   -2.3994 H       1  UNL1        0.0322
     52 H          -3.3850    1.0498   -1.9310 H       1  UNL1        0.0322
     53 H          -2.9350   -2.3822   -0.9329 H       1  UNL1        0.0335
     54 H          -4.6451   -1.9197   -0.8839 H       1  UNL1        0.0335
     55 H          -4.7127   -1.0174    2.2950 H       1  UNL1        0.0257
     56 H          -5.9159   -2.0915    1.3559 H       1  UNL1        0.0257
     57 H          -5.0768   -2.6992    2.7731 H       1  UNL1        0.0257
     58 H          -2.9041   -3.4076    2.6447 H       1  UNL1        0.0257
     59 H          -1.9197   -3.4728    1.1736 H       1  UNL1        0.0257
     60 H          -2.1316   -1.8944    2.1189 H       1  UNL1        0.0257
     61 H          -4.6773   -4.2597    1.4791 H       1  UNL1        0.2101
     62 H          -2.8138    1.7940    1.1806 H       1  UNL1        0.0622
     63 H          -4.4602    3.4112    2.0088 H       1  UNL1        0.0618
     64 H          -6.8238    3.0978    1.5554 H       1  UNL1        0.0618
     65 H          -7.6097    1.1945    0.2827 H       1  UNL1        0.0618
     66 H          -6.0297   -0.4576   -0.5745 H       1  UNL1        0.0622
@<TRIPOS>BOND
     1     1     2    1
     2     2     3    1
     3     3     4   ar
     4     4     5   ar
     5     5     6   ar
     6     6     7    1
     7     7     8   ar
     8     8     9   ar
     9     9    10   ar
    10    10    11    1
    11    11    12    1
    12    11    13    1
    13    10    14   ar
    14    14    15    2
    15    14    16   ar
    16     6    17   ar
    17    17    18   ar
    18     2    19    1
    19    19    20    1
    20    20    21    1
    21    21    22    1
    22    22    23    1
    23    23    24    1
    24    24    25    1
    25    24    26    1
    26    24    27    1
    27    22    28    1
    28    28    29   ar
    29    29    30   ar
    30    30    31   ar
    31    31    32   ar
    32    32    33   ar
    33    22    34    1
    34    34    35    1
    35    35    36    2
    36    18     3   ar
    37    35    19   am
    38    16     7   ar
    39    33    28   ar
    40     1    37    1
    41     1    38    1
    42     1    39    1
    43     2    40    1
    44     4    41    1
    45     5    42    1
    46     8    43    1
    47     9    44    1
    48    11    45    1
    49    16    46    1
    50    17    47    1
    51    18    48    1
    52    20    49    1
    53    20    50    1
    54    21    51    1
    55    21    52    1
    56    23    53    1
    57    23    54    1
    58    25    55    1
    59    25    56    1
    60    25    57    1
    61    26    58    1
    62    26    59    1
    63    26    60    1
    64    27    61    1
    65    29    62    1
    66    30    63    1
    67    31    64    1
    68    32    65    1
    69    33    66    1
