@<TRIPOS>MOLECULE
*****
 77 81 0 0 0
SMALL
GASTEIGER

@<TRIPOS>ATOM
      1 C           9.5011    0.1140   -1.7292 C.3     1  UNL1       -0.0128
      2 N           9.2643    0.6846   -0.4402 N.3     1  UNL1       -0.3053
      3 C           9.6678   -0.3066    0.5479 C.3     1  UNL1       -0.0128
      4 C           7.9656    1.2065   -0.2047 C.3     1  UNL1        0.0127
      5 C           7.5550    2.2705   -1.1522 C.3     1  UNL1       -0.0214
      6 C           6.2775    2.9344   -0.6703 C.3     1  UNL1        0.0164
      7 N           5.3084    1.9368   -0.3695 N.am    1  UNL1       -0.2974
      8 C           3.9557    2.0808   -0.8324 C.2     1  UNL1        0.2467
      9 O           3.6496    3.0818   -1.4936 O.2     1  UNL1       -0.2700
     10 C           3.0203    1.0036   -0.4783 C.ar    1  UNL1        0.0384
     11 C           2.5445    0.9076    0.8205 C.ar    1  UNL1       -0.0478
     12 C           1.7167   -0.1243    1.2064 C.ar    1  UNL1       -0.0384
     13 C           1.3261   -1.1131    0.2949 C.ar    1  UNL1        0.0510
     14 N           0.4778   -2.1736    0.7277 N.pl3   1  UNL1       -0.2982
     15 C          -0.7899   -2.3450    0.1159 C.ar    1  UNL1        0.1249
     16 C          -1.8843   -1.5703    0.4950 C.ar    1  UNL1        0.0031
     17 C          -3.1229   -1.7412   -0.0725 C.ar    1  UNL1        0.0649
     18 C          -3.2279   -2.7101   -1.0282 C.ar    1  UNL1        0.0192
     19 C          -2.1238   -3.4852   -1.4053 C.ar    1  UNL1        0.0389
     20 N          -0.9338   -3.2862   -0.8270 N.ar    1  UNL1       -0.2395
     21 C          -4.5327   -2.7021   -1.4253 C.ar    1  UNL1       -0.0264
     22 C          -5.2561   -1.7208   -0.7142 C.ar    1  UNL1        0.0637
     23 C          -6.6896   -1.5141   -0.8836 C.ar    1  UNL1        0.0364
     24 C          -7.6104   -0.6838   -0.3662 C.ar    1  UNL1        0.0585
     25 N          -8.8597   -0.9729   -0.8672 N.ar    1  UNL1       -0.1792
     26 N          -8.7368   -1.9825   -1.6999 N.ar    1  UNL1       -0.2738
     27 C          -9.8390   -2.5826   -2.4238 C.3     1  UNL1        0.0302
     28 C          -7.4536   -2.3371   -1.7405 C.ar    1  UNL1        0.0343
     29 N          -4.3680   -1.1530    0.0990 N.ar    1  UNL1       -0.2454
     30 C          -4.5245   -0.0945    1.0003 C.2     1  UNL1        0.4209
     31 O          -3.5028    0.2629    1.7152 O.2     1  UNL1       -0.2227
     32 O          -5.6109    0.6731    1.2758 O.3     1  UNL1       -0.4424
     33 C          -5.6669    1.7354    2.1980 C.3     1  UNL1        0.1070
     34 C          -7.0841    2.2799    2.1553 C.3     1  UNL1       -0.0253
     35 C          -4.7504    2.8778    1.7755 C.3     1  UNL1       -0.0253
     36 C          -5.3343    1.3783    3.6044 C.3     1  UNL1       -0.0253
     37 C           1.8049   -1.0005   -0.9849 C.ar    1  UNL1        0.0628
     38 CL          1.3521   -2.2281   -2.1677 Cl      1  UNL1       -0.0816
     39 C           2.6470    0.0483   -1.3792 C.ar    1  UNL1       -0.0295
     40 C           5.6476    0.7659    0.4035 C.3     1  UNL1        0.0164
     41 C           6.9147    0.1100   -0.1212 C.3     1  UNL1       -0.0214
     42 H           8.7859    0.4582   -2.4729 H       1  UNL1        0.0391
     43 H           9.4855   -1.0075   -1.6391 H       1  UNL1        0.0391
     44 H          10.5388    0.3447   -2.1093 H       1  UNL1        0.0391
     45 H          10.7586   -0.4752    0.4992 H       1  UNL1        0.0391
     46 H           9.1456   -1.2767    0.3000 H       1  UNL1        0.0391
     47 H           9.3504    0.0693    1.5402 H       1  UNL1        0.0391
     48 H           7.9824    1.6546    0.8334 H       1  UNL1        0.0463
     49 H           8.3862    3.0075   -1.2616 H       1  UNL1        0.0295
     50 H           7.3283    1.7901   -2.1513 H       1  UNL1        0.0295
     51 H           6.5297    3.5029    0.2759 H       1  UNL1        0.0465
     52 H           5.9308    3.6518   -1.4523 H       1  UNL1        0.0465
     53 H           2.8437    1.6735    1.5298 H       1  UNL1        0.0626
     54 H           1.3301   -0.2179    2.2280 H       1  UNL1        0.0637
     55 H           0.7865   -2.8396    1.4995 H       1  UNL1        0.1536
     56 H          -1.6972   -0.8429    1.2477 H       1  UNL1        0.0673
     57 H          -2.3130   -4.2204   -2.1703 H       1  UNL1        0.0837
     58 H          -4.9665   -3.3420   -2.1730 H       1  UNL1        0.0645
     59 H          -7.4976    0.1000    0.3174 H       1  UNL1        0.0854
     60 H         -10.4925   -3.1172   -1.7020 H       1  UNL1        0.0473
     61 H          -9.4093   -3.4032   -3.0737 H       1  UNL1        0.0473
     62 H         -10.3505   -1.8650   -3.0630 H       1  UNL1        0.0473
     63 H          -7.0573   -3.1387   -2.3444 H       1  UNL1        0.0833
     64 H          -7.1735    3.2134    2.7399 H       1  UNL1        0.0268
     65 H          -7.7886    1.4892    2.4827 H       1  UNL1        0.0268
     66 H          -7.3599    2.4593    1.0717 H       1  UNL1        0.0268
     67 H          -4.8888    3.6878    2.5196 H       1  UNL1        0.0268
     68 H          -3.6819    2.5865    1.8305 H       1  UNL1        0.0268
     69 H          -5.0049    3.2501    0.7538 H       1  UNL1        0.0268
     70 H          -4.2584    1.6178    3.7944 H       1  UNL1        0.0268
     71 H          -5.6535    0.3917    3.9302 H       1  UNL1        0.0268
     72 H          -5.8923    2.1072    4.2607 H       1  UNL1        0.0268
     73 H           2.9911    0.0859   -2.4028 H       1  UNL1        0.0640
     74 H           4.8398   -0.0046    0.3576 H       1  UNL1        0.0465
     75 H           5.8488    1.0541    1.4545 H       1  UNL1        0.0465
     76 H           7.2336   -0.5977    0.6658 H       1  UNL1        0.0295
     77 H           6.6952   -0.3717   -1.0755 H       1  UNL1        0.0295
@<TRIPOS>BOND
     1     1     2    1
     2     2     3    1
     3     2     4    1
     4     4     5    1
     5     5     6    1
     6     6     7    1
     7     7     8   am
     8     8     9    2
     9     8    10    1
    10    10    11   ar
    11    11    12   ar
    12    12    13   ar
    13    13    14    1
    14    14    15    1
    15    15    16   ar
    16    16    17   ar
    17    17    18   ar
    18    18    19   ar
    19    19    20   ar
    20    18    21   ar
    21    21    22   ar
    22    22    23    1
    23    23    24   ar
    24    24    25   ar
    25    25    26   ar
    26    26    27    1
    27    26    28   ar
    28    22    29   ar
    29    29    30   am
    30    30    31    2
    31    30    32    1
    32    32    33    1
    33    33    34    1
    34    33    35    1
    35    33    36    1
    36    13    37   ar
    37    37    38    1
    38    37    39   ar
    39     7    40    1
    40    40    41    1
    41    41     4    1
    42    39    10   ar
    43    20    15   ar
    44    28    23   ar
    45    29    17   ar
    46     1    42    1
    47     1    43    1
    48     1    44    1
    49     3    45    1
    50     3    46    1
    51     3    47    1
    52     4    48    1
    53     5    49    1
    54     5    50    1
    55     6    51    1
    56     6    52    1
    57    11    53    1
    58    12    54    1
    59    14    55    1
    60    16    56    1
    61    19    57    1
    62    21    58    1
    63    24    59    1
    64    27    60    1
    65    27    61    1
    66    27    62    1
    67    28    63    1
    68    34    64    1
    69    34    65    1
    70    34    66    1
    71    35    67    1
    72    35    68    1
    73    35    69    1
    74    36    70    1
    75    36    71    1
    76    36    72    1
    77    39    73    1
    78    40    74    1
    79    40    75    1
    80    41    76    1
    81    41    77    1
