
     RDKit          3D

 77 81  0  0  0  0  0  0  0  0999 V2000
    9.5011    0.1140   -1.7292 C   0  0  0  0  0  0  0  0  0  0  0  0
    9.2643    0.6846   -0.4402 N   0  0  0  0  0  0  0  0  0  0  0  0
    9.6678   -0.3066    0.5479 C   0  0  0  0  0  0  0  0  0  0  0  0
    7.9656    1.2065   -0.2047 C   0  0  0  0  0  0  0  0  0  0  0  0
    7.5550    2.2705   -1.1522 C   0  0  0  0  0  0  0  0  0  0  0  0
    6.2775    2.9344   -0.6703 C   0  0  0  0  0  0  0  0  0  0  0  0
    5.3084    1.9368   -0.3695 N   0  0  0  0  0  0  0  0  0  0  0  0
    3.9557    2.0808   -0.8324 C   0  0  0  0  0  0  0  0  0  0  0  0
    3.6496    3.0818   -1.4936 O   0  0  0  0  0  0  0  0  0  0  0  0
    3.0203    1.0036   -0.4783 C   0  0  0  0  0  0  0  0  0  0  0  0
    2.5445    0.9076    0.8205 C   0  0  0  0  0  0  0  0  0  0  0  0
    1.7167   -0.1243    1.2064 C   0  0  0  0  0  0  0  0  0  0  0  0
    1.3261   -1.1131    0.2949 C   0  0  0  0  0  0  0  0  0  0  0  0
    0.4778   -2.1736    0.7277 N   0  0  0  0  0  0  0  0  0  0  0  0
   -0.7899   -2.3450    0.1159 C   0  0  0  0  0  0  0  0  0  0  0  0
   -1.8843   -1.5703    0.4950 C   0  0  0  0  0  0  0  0  0  0  0  0
   -3.1229   -1.7412   -0.0725 C   0  0  0  0  0  0  0  0  0  0  0  0
   -3.2279   -2.7101   -1.0282 C   0  0  0  0  0  0  0  0  0  0  0  0
   -2.1238   -3.4852   -1.4053 C   0  0  0  0  0  0  0  0  0  0  0  0
   -0.9338   -3.2862   -0.8270 N   0  0  0  0  0  0  0  0  0  0  0  0
   -4.5327   -2.7021   -1.4253 C   0  0  0  0  0  0  0  0  0  0  0  0
   -5.2561   -1.7208   -0.7142 C   0  0  0  0  0  0  0  0  0  0  0  0
   -6.6896   -1.5141   -0.8836 C   0  0  0  0  0  0  0  0  0  0  0  0
   -7.6104   -0.6838   -0.3662 C   0  0  0  0  0  0  0  0  0  0  0  0
   -8.8597   -0.9729   -0.8672 N   0  0  0  0  0  0  0  0  0  0  0  0
   -8.7368   -1.9825   -1.6999 N   0  0  0  0  0  0  0  0  0  0  0  0
   -9.8390   -2.5826   -2.4238 C   0  0  0  0  0  0  0  0  0  0  0  0
   -7.4536   -2.3371   -1.7405 C   0  0  0  0  0  0  0  0  0  0  0  0
   -4.3680   -1.1530    0.0990 N   0  0  0  0  0  0  0  0  0  0  0  0
   -4.5245   -0.0945    1.0003 C   0  0  0  0  0  0  0  0  0  0  0  0
   -3.5028    0.2629    1.7152 O   0  0  0  0  0  0  0  0  0  0  0  0
   -5.6109    0.6731    1.2758 O   0  0  0  0  0  0  0  0  0  0  0  0
   -5.6669    1.7354    2.1980 C   0  0  0  0  0  0  0  0  0  0  0  0
   -7.0841    2.2799    2.1553 C   0  0  0  0  0  0  0  0  0  0  0  0
   -4.7504    2.8778    1.7755 C   0  0  0  0  0  0  0  0  0  0  0  0
   -5.3343    1.3783    3.6044 C   0  0  0  0  0  0  0  0  0  0  0  0
    1.8049   -1.0005   -0.9849 C   0  0  0  0  0  0  0  0  0  0  0  0
    1.3521   -2.2281   -2.1677 Cl  0  0  0  0  0  0  0  0  0  0  0  0
    2.6470    0.0483   -1.3792 C   0  0  0  0  0  0  0  0  0  0  0  0
    5.6476    0.7659    0.4035 C   0  0  0  0  0  0  0  0  0  0  0  0
    6.9147    0.1100   -0.1212 C   0  0  0  0  0  0  0  0  0  0  0  0
    8.7859    0.4582   -2.4729 H   0  0  0  0  0  0  0  0  0  0  0  0
    9.4855   -1.0075   -1.6391 H   0  0  0  0  0  0  0  0  0  0  0  0
   10.5388    0.3447   -2.1093 H   0  0  0  0  0  0  0  0  0  0  0  0
   10.7586   -0.4752    0.4992 H   0  0  0  0  0  0  0  0  0  0  0  0
    9.1456   -1.2767    0.3000 H   0  0  0  0  0  0  0  0  0  0  0  0
    9.3504    0.0693    1.5402 H   0  0  0  0  0  0  0  0  0  0  0  0
    7.9824    1.6546    0.8334 H   0  0  0  0  0  0  0  0  0  0  0  0
    8.3862    3.0075   -1.2616 H   0  0  0  0  0  0  0  0  0  0  0  0
    7.3283    1.7901   -2.1513 H   0  0  0  0  0  0  0  0  0  0  0  0
    6.5297    3.5029    0.2759 H   0  0  0  0  0  0  0  0  0  0  0  0
    5.9308    3.6518   -1.4523 H   0  0  0  0  0  0  0  0  0  0  0  0
    2.8437    1.6735    1.5298 H   0  0  0  0  0  0  0  0  0  0  0  0
    1.3301   -0.2179    2.2280 H   0  0  0  0  0  0  0  0  0  0  0  0
    0.7865   -2.8396    1.4995 H   0  0  0  0  0  0  0  0  0  0  0  0
   -1.6972   -0.8429    1.2477 H   0  0  0  0  0  0  0  0  0  0  0  0
   -2.3130   -4.2204   -2.1703 H   0  0  0  0  0  0  0  0  0  0  0  0
   -4.9665   -3.3420   -2.1730 H   0  0  0  0  0  0  0  0  0  0  0  0
   -7.4976    0.1000    0.3174 H   0  0  0  0  0  0  0  0  0  0  0  0
  -10.4925   -3.1172   -1.7020 H   0  0  0  0  0  0  0  0  0  0  0  0
   -9.4093   -3.4032   -3.0737 H   0  0  0  0  0  0  0  0  0  0  0  0
  -10.3505   -1.8650   -3.0630 H   0  0  0  0  0  0  0  0  0  0  0  0
   -7.0573   -3.1387   -2.3444 H   0  0  0  0  0  0  0  0  0  0  0  0
   -7.1735    3.2134    2.7399 H   0  0  0  0  0  0  0  0  0  0  0  0
   -7.7886    1.4892    2.4827 H   0  0  0  0  0  0  0  0  0  0  0  0
   -7.3599    2.4593    1.0717 H   0  0  0  0  0  0  0  0  0  0  0  0
   -4.8888    3.6878    2.5196 H   0  0  0  0  0  0  0  0  0  0  0  0
   -3.6819    2.5865    1.8305 H   0  0  0  0  0  0  0  0  0  0  0  0
   -5.0049    3.2501    0.7538 H   0  0  0  0  0  0  0  0  0  0  0  0
   -4.2584    1.6178    3.7944 H   0  0  0  0  0  0  0  0  0  0  0  0
   -5.6535    0.3917    3.9302 H   0  0  0  0  0  0  0  0  0  0  0  0
   -5.8923    2.1072    4.2607 H   0  0  0  0  0  0  0  0  0  0  0  0
    2.9911    0.0859   -2.4028 H   0  0  0  0  0  0  0  0  0  0  0  0
    4.8398   -0.0046    0.3576 H   0  0  0  0  0  0  0  0  0  0  0  0
    5.8488    1.0541    1.4545 H   0  0  0  0  0  0  0  0  0  0  0  0
    7.2336   -0.5977    0.6658 H   0  0  0  0  0  0  0  0  0  0  0  0
    6.6952   -0.3717   -1.0755 H   0  0  0  0  0  0  0  0  0  0  0  0
  1  2  1  0
  2  3  1  0
  2  4  1  0
  4  5  1  0
  5  6  1  0
  6  7  1  0
  7  8  1  0
  8  9  2  0
  8 10  1  0
 10 11  2  0
 11 12  1  0
 12 13  2  0
 13 14  1  0
 14 15  1  0
 15 16  2  0
 16 17  1  0
 17 18  2  0
 18 19  1  0
 19 20  2  0
 18 21  1  0
 21 22  2  0
 22 23  1  0
 23 24  1  0
 24 25  2  0
 25 26  1  0
 26 27  1  0
 26 28  1  0
 22 29  1  0
 29 30  1  0
 30 31  2  0
 30 32  1  0
 32 33  1  0
 33 34  1  0
 33 35  1  0
 33 36  1  0
 13 37  1  0
 37 38  1  0
 37 39  2  0
  7 40  1  0
 40 41  1  0
 41  4  1  0
 39 10  1  0
 20 15  1  0
 28 23  2  0
 29 17  1  0
  1 42  1  0
  1 43  1  0
  1 44  1  0
  3 45  1  0
  3 46  1  0
  3 47  1  0
  4 48  1  0
  5 49  1  0
  5 50  1  0
  6 51  1  0
  6 52  1  0
 11 53  1  0
 12 54  1  0
 14 55  1  0
 16 56  1  0
 19 57  1  0
 21 58  1  0
 24 59  1  0
 27 60  1  0
 27 61  1  0
 27 62  1  0
 28 63  1  0
 34 64  1  0
 34 65  1  0
 34 66  1  0
 35 67  1  0
 35 68  1  0
 35 69  1  0
 36 70  1  0
 36 71  1  0
 36 72  1  0
 39 73  1  0
 40 74  1  0
 40 75  1  0
 41 76  1  0
 41 77  1  0
M  END
$$$$
