
     RDKit          3D

 48 51  0  0  0  0  0  0  0  0999 V2000
   -4.0221   -3.2214    1.5165 C   0  0  0  0  0  0  0  0  0  0  0  0
   -3.3266   -2.3254    0.6999 O   0  0  0  0  0  0  0  0  0  0  0  0
   -2.2868   -1.5690    1.2150 C   0  0  0  0  0  0  0  0  0  0  0  0
   -1.9142   -1.6676    2.5006 N   0  0  0  0  0  0  0  0  0  0  0  0
   -0.8902   -0.8984    2.9359 C   0  0  0  0  0  0  0  0  0  0  0  0
   -0.2332   -0.0307    2.1004 C   0  0  0  0  0  0  0  0  0  0  0  0
   -0.6252    0.0647    0.7729 C   0  0  0  0  0  0  0  0  0  0  0  0
    0.0335    0.9630   -0.1583 C   0  0  0  0  0  0  0  0  0  0  0  0
   -0.5789    2.0139   -0.7928 C   0  0  0  0  0  0  0  0  0  0  0  0
   -1.9574    2.4569   -0.7015 C   0  0  0  0  0  0  0  0  0  0  0  0
   -2.2983    3.6748   -0.1212 C   0  0  0  0  0  0  0  0  0  0  0  0
   -3.5938    4.1323   -0.0198 C   0  0  0  0  0  0  0  0  0  0  0  0
   -4.6237    3.3532   -0.5157 C   0  0  0  0  0  0  0  0  0  0  0  0
   -5.8883    3.8081   -0.4125 F   0  0  0  0  0  0  0  0  0  0  0  0
   -4.3204    2.1412   -1.0971 C   0  0  0  0  0  0  0  0  0  0  0  0
   -3.0121    1.7091   -1.1845 C   0  0  0  0  0  0  0  0  0  0  0  0
    0.3971    2.5677   -1.5484 N   0  0  0  0  0  0  0  0  0  0  0  0
    1.5373    1.8798   -1.3731 C   0  0  0  0  0  0  0  0  0  0  0  0
    1.3219    0.8777   -0.5089 N   0  0  0  0  0  0  0  0  0  0  0  0
    2.2676   -0.0729   -0.0627 C   0  0  1  0  0  0  0  0  0  0  0  0
    1.8663   -1.5027   -0.1975 C   0  0  0  0  0  0  0  0  0  0  0  0
    2.9830   -2.4039   -0.6900 C   0  0  0  0  0  0  0  0  0  0  0  0
    4.2001   -2.0950    0.1519 C   0  0  2  0  0  0  0  0  0  0  0  0
    3.7553   -2.0063    1.4830 O   0  0  0  0  0  0  0  0  0  0  0  0
    4.6849   -0.7200   -0.2709 C   0  0  0  0  0  0  0  0  0  0  0  0
    3.5590    0.0996   -0.8505 C   0  0  0  0  0  0  0  0  0  0  0  0
   -1.6515   -0.7330    0.4165 N   0  0  0  0  0  0  0  0  0  0  0  0
   -5.0807   -2.9005    1.6611 H   0  0  0  0  0  0  0  0  0  0  0  0
   -3.4885   -3.3255    2.4809 H   0  0  0  0  0  0  0  0  0  0  0  0
   -4.0790   -4.2361    1.0684 H   0  0  0  0  0  0  0  0  0  0  0  0
   -0.6111   -1.0039    3.9936 H   0  0  0  0  0  0  0  0  0  0  0  0
    0.5750    0.5585    2.4969 H   0  0  0  0  0  0  0  0  0  0  0  0
   -1.5085    4.3014    0.2740 H   0  0  0  0  0  0  0  0  0  0  0  0
   -3.8321    5.0932    0.4412 H   0  0  0  0  0  0  0  0  0  0  0  0
   -5.1000    1.5198   -1.4885 H   0  0  0  0  0  0  0  0  0  0  0  0
   -2.7826    0.7494   -1.6494 H   0  0  0  0  0  0  0  0  0  0  0  0
    2.4667    2.1475   -1.8869 H   0  0  0  0  0  0  0  0  0  0  0  0
    2.5784    0.0957    1.0134 H   0  0  0  0  0  0  0  0  0  0  0  0
    1.0133   -1.6831   -0.8708 H   0  0  0  0  0  0  0  0  0  0  0  0
    1.5651   -1.9080    0.7977 H   0  0  0  0  0  0  0  0  0  0  0  0
    3.1681   -2.3167   -1.7627 H   0  0  0  0  0  0  0  0  0  0  0  0
    2.6377   -3.4528   -0.4960 H   0  0  0  0  0  0  0  0  0  0  0  0
    4.9633   -2.8675    0.0405 H   0  0  0  0  0  0  0  0  0  0  0  0
    4.3097   -1.3458    1.9722 H   0  0  0  0  0  0  0  0  0  0  0  0
    5.4535   -0.8243   -1.0494 H   0  0  0  0  0  0  0  0  0  0  0  0
    5.0515   -0.1699    0.6323 H   0  0  0  0  0  0  0  0  0  0  0  0
    3.9047    1.1736   -0.7933 H   0  0  0  0  0  0  0  0  0  0  0  0
    3.4123   -0.1008   -1.9211 H   0  0  0  0  0  0  0  0  0  0  0  0
  1  2  1  0
  2  3  1  0
  3  4  2  0
  4  5  1  0
  5  6  2  0
  6  7  1  0
  7  8  1  0
  8  9  2  0
  9 10  1  0
 10 11  2  0
 11 12  1  0
 12 13  2  0
 13 14  1  0
 13 15  1  0
 15 16  2  0
  9 17  1  0
 17 18  2  0
 18 19  1  0
 19 20  1  0
 20 21  1  0
 21 22  1  0
 22 23  1  0
 23 24  1  0
 23 25  1  0
 25 26  1  0
  7 27  2  0
 27  3  1  0
 19  8  1  0
 26 20  1  0
 16 10  1  0
  1 28  1  0
  1 29  1  0
  1 30  1  0
  5 31  1  0
  6 32  1  0
 11 33  1  0
 12 34  1  0
 15 35  1  0
 16 36  1  0
 18 37  1  0
 20 38  1  1
 21 39  1  0
 21 40  1  0
 22 41  1  0
 22 42  1  0
 23 43  1  1
 24 44  1  0
 25 45  1  0
 25 46  1  0
 26 47  1  0
 26 48  1  0
M  END
$$$$
