@<TRIPOS>MOLECULE
*****
 48 51 0 0 0
SMALL
GASTEIGER

@<TRIPOS>ATOM
      1 C          -4.0221   -3.2214    1.5165 C.3     1  UNL1        0.0819
      2 O          -3.3266   -2.3254    0.6999 O.3     1  UNL1       -0.4657
      3 C          -2.2868   -1.5690    1.2150 C.ar    1  UNL1        0.3182
      4 N          -1.9142   -1.6676    2.5006 N.ar    1  UNL1       -0.2033
      5 C          -0.8902   -0.8984    2.9359 C.ar    1  UNL1        0.0350
      6 C          -0.2332   -0.0307    2.1004 C.ar    1  UNL1       -0.0158
      7 C          -0.6252    0.0647    0.7729 C.ar    1  UNL1        0.0962
      8 C           0.0335    0.9630   -0.1583 C.ar    1  UNL1        0.0953
      9 C          -0.5789    2.0139   -0.7928 C.ar    1  UNL1        0.0982
     10 C          -1.9574    2.4569   -0.7015 C.ar    1  UNL1        0.0027
     11 C          -2.2983    3.6748   -0.1212 C.ar    1  UNL1       -0.0498
     12 C          -3.5938    4.1323   -0.0198 C.ar    1  UNL1       -0.0258
     13 C          -4.6237    3.3532   -0.5157 C.ar    1  UNL1        0.1234
     14 F          -5.8883    3.8081   -0.4125 F       1  UNL1       -0.2055
     15 C          -4.3204    2.1412   -1.0971 C.ar    1  UNL1       -0.0258
     16 C          -3.0121    1.7091   -1.1845 C.ar    1  UNL1       -0.0498
     17 N           0.3971    2.5677   -1.5484 N.ar    1  UNL1       -0.2351
     18 C           1.5373    1.8798   -1.3731 C.ar    1  UNL1        0.0974
     19 N           1.3219    0.8777   -0.5089 N.ar    1  UNL1       -0.3253
     20 C           2.2676   -0.0729   -0.0627 C.3     1  UNL1        0.0362
     21 C           1.8663   -1.5027   -0.1975 C.3     1  UNL1       -0.0297
     22 C           2.9830   -2.4039   -0.6900 C.3     1  UNL1       -0.0250
     23 C           4.2001   -2.0950    0.1519 C.3     1  UNL1        0.0554
     24 O           3.7553   -2.0063    1.4830 O.3     1  UNL1       -0.3918
     25 C           4.6849   -0.7200   -0.2709 C.3     1  UNL1       -0.0250
     26 C           3.5590    0.0996   -0.8505 C.3     1  UNL1       -0.0297
     27 N          -1.6515   -0.7330    0.4165 N.ar    1  UNL1       -0.1934
     28 H          -5.0807   -2.9005    1.6611 H       1  UNL1        0.0661
     29 H          -3.4885   -3.3255    2.4809 H       1  UNL1        0.0661
     30 H          -4.0790   -4.2361    1.0684 H       1  UNL1        0.0661
     31 H          -0.6111   -1.0039    3.9936 H       1  UNL1        0.0832
     32 H           0.5750    0.5585    2.4969 H       1  UNL1        0.0655
     33 H          -1.5085    4.3014    0.2740 H       1  UNL1        0.0625
     34 H          -3.8321    5.0932    0.4412 H       1  UNL1        0.0646
     35 H          -5.1000    1.5198   -1.4885 H       1  UNL1        0.0646
     36 H          -2.7826    0.7494   -1.6494 H       1  UNL1        0.0625
     37 H           2.4667    2.1475   -1.8869 H       1  UNL1        0.1029
     38 H           2.5784    0.0957    1.0134 H       1  UNL1        0.0528
     39 H           1.0133   -1.6831   -0.8708 H       1  UNL1        0.0286
     40 H           1.5651   -1.9080    0.7977 H       1  UNL1        0.0286
     41 H           3.1681   -2.3167   -1.7627 H       1  UNL1        0.0291
     42 H           2.6377   -3.4528   -0.4960 H       1  UNL1        0.0291
     43 H           4.9633   -2.8675    0.0405 H       1  UNL1        0.0593
     44 H           4.3097   -1.3458    1.9722 H       1  UNL1        0.2098
     45 H           5.4535   -0.8243   -1.0494 H       1  UNL1        0.0291
     46 H           5.0515   -0.1699    0.6323 H       1  UNL1        0.0291
     47 H           3.9047    1.1736   -0.7933 H       1  UNL1        0.0286
     48 H           3.4123   -0.1008   -1.9211 H       1  UNL1        0.0286
@<TRIPOS>BOND
     1     1     2    1
     2     2     3    1
     3     3     4   ar
     4     4     5   ar
     5     5     6   ar
     6     6     7   ar
     7     7     8    1
     8     8     9   ar
     9     9    10    1
    10    10    11   ar
    11    11    12   ar
    12    12    13   ar
    13    13    14    1
    14    13    15   ar
    15    15    16   ar
    16     9    17   ar
    17    17    18   ar
    18    18    19   ar
    19    19    20    1
    20    20    21    1
    21    21    22    1
    22    22    23    1
    23    23    24    1
    24    23    25    1
    25    25    26    1
    26     7    27   ar
    27    27     3   ar
    28    19     8   ar
    29    26    20    1
    30    16    10   ar
    31     1    28    1
    32     1    29    1
    33     1    30    1
    34     5    31    1
    35     6    32    1
    36    11    33    1
    37    12    34    1
    38    15    35    1
    39    16    36    1
    40    18    37    1
    41    20    38    1
    42    21    39    1
    43    21    40    1
    44    22    41    1
    45    22    42    1
    46    23    43    1
    47    24    44    1
    48    25    45    1
    49    25    46    1
    50    26    47    1
    51    26    48    1
