@<TRIPOS>MOLECULE
*****
 31 31 0 0 0
SMALL
GASTEIGER

@<TRIPOS>ATOM
      1 C           2.8989   -0.4102    0.8116 C.3     1  UNL1       -0.0623
      2 C           1.7885    0.5315    0.4163 C.3     1  UNL1       -0.0415
      3 C           2.4297    1.5847   -0.4626 C.3     1  UNL1       -0.0623
      4 C           0.6912   -0.1108   -0.3473 C.3     1  UNL1       -0.0126
      5 C          -0.3505    0.9338   -0.6790 C.3     1  UNL1       -0.0474
      6 C          -1.4168    1.0332    0.3868 C.3     1  UNL1       -0.0500
      7 C          -2.2488   -0.2298    0.3623 C.3     1  UNL1       -0.0415
      8 C          -3.4841   -0.0748   -0.5111 C.3     1  UNL1       -0.0623
      9 C          -1.3918   -1.3460   -0.1699 C.3     1  UNL1       -0.0240
     10 C           0.0249   -1.2587    0.3654 C.3     1  UNL1        0.0585
     11 O           0.5954   -2.5027    0.0279 O.3     1  UNL1       -0.3915
     12 H           3.2410   -0.9975   -0.0630 H       1  UNL1        0.0232
     13 H           2.6957   -0.9953    1.7179 H       1  UNL1        0.0232
     14 H           3.7821    0.2481    1.0569 H       1  UNL1        0.0232
     15 H           1.4510    1.0543    1.3334 H       1  UNL1        0.0299
     16 H           3.5261    1.6411   -0.3003 H       1  UNL1        0.0232
     17 H           2.2662    1.2865   -1.5171 H       1  UNL1        0.0232
     18 H           1.9448    2.5750   -0.3111 H       1  UNL1        0.0232
     19 H           1.0695   -0.5063   -1.3013 H       1  UNL1        0.0328
     20 H          -0.8806    0.6756   -1.6181 H       1  UNL1        0.0269
     21 H           0.0802    1.9395   -0.8241 H       1  UNL1        0.0269
     22 H          -1.0361    1.1874    1.3967 H       1  UNL1        0.0268
     23 H          -2.0886    1.8656    0.0701 H       1  UNL1        0.0268
     24 H          -2.5758   -0.5384    1.3837 H       1  UNL1        0.0299
     25 H          -4.0617   -1.0204   -0.3922 H       1  UNL1        0.0232
     26 H          -3.1785   -0.0246   -1.5722 H       1  UNL1        0.0232
     27 H          -4.0284    0.8107   -0.1606 H       1  UNL1        0.0232
     28 H          -1.8543   -2.3306    0.0704 H       1  UNL1        0.0293
     29 H          -1.3494   -1.2798   -1.2775 H       1  UNL1        0.0293
     30 H          -0.0498   -1.1291    1.4576 H       1  UNL1        0.0596
     31 H           1.5097   -2.6120    0.3718 H       1  UNL1        0.2098
@<TRIPOS>BOND
     1     1     2    1
     2     2     3    1
     3     2     4    1
     4     4     5    1
     5     5     6    1
     6     6     7    1
     7     7     8    1
     8     7     9    1
     9     9    10    1
    10    10    11    1
    11    10     4    1
    12     1    12    1
    13     1    13    1
    14     1    14    1
    15     2    15    1
    16     3    16    1
    17     3    17    1
    18     3    18    1
    19     4    19    1
    20     5    20    1
    21     5    21    1
    22     6    22    1
    23     6    23    1
    24     7    24    1
    25     8    25    1
    26     8    26    1
    27     8    27    1
    28     9    28    1
    29     9    29    1
    30    10    30    1
    31    11    31    1
