
     RDKit          3D

 31 31  0  0  0  0  0  0  0  0999 V2000
    2.8989   -0.4102    0.8116 C   0  0  0  0  0  0  0  0  0  0  0  0
    1.7885    0.5315    0.4163 C   0  0  0  0  0  0  0  0  0  0  0  0
    2.4297    1.5847   -0.4626 C   0  0  0  0  0  0  0  0  0  0  0  0
    0.6912   -0.1108   -0.3473 C   0  0  2  0  0  0  0  0  0  0  0  0
   -0.3505    0.9338   -0.6790 C   0  0  0  0  0  0  0  0  0  0  0  0
   -1.4168    1.0332    0.3868 C   0  0  0  0  0  0  0  0  0  0  0  0
   -2.2488   -0.2298    0.3623 C   0  0  1  0  0  0  0  0  0  0  0  0
   -3.4841   -0.0748   -0.5111 C   0  0  0  0  0  0  0  0  0  0  0  0
   -1.3918   -1.3460   -0.1699 C   0  0  0  0  0  0  0  0  0  0  0  0
    0.0249   -1.2587    0.3654 C   0  0  1  0  0  0  0  0  0  0  0  0
    0.5954   -2.5027    0.0279 O   0  0  0  0  0  0  0  0  0  0  0  0
    3.2410   -0.9975   -0.0630 H   0  0  0  0  0  0  0  0  0  0  0  0
    2.6957   -0.9953    1.7179 H   0  0  0  0  0  0  0  0  0  0  0  0
    3.7821    0.2481    1.0569 H   0  0  0  0  0  0  0  0  0  0  0  0
    1.4510    1.0543    1.3334 H   0  0  0  0  0  0  0  0  0  0  0  0
    3.5261    1.6411   -0.3003 H   0  0  0  0  0  0  0  0  0  0  0  0
    2.2662    1.2865   -1.5171 H   0  0  0  0  0  0  0  0  0  0  0  0
    1.9448    2.5750   -0.3111 H   0  0  0  0  0  0  0  0  0  0  0  0
    1.0695   -0.5063   -1.3013 H   0  0  0  0  0  0  0  0  0  0  0  0
   -0.8806    0.6756   -1.6181 H   0  0  0  0  0  0  0  0  0  0  0  0
    0.0802    1.9395   -0.8241 H   0  0  0  0  0  0  0  0  0  0  0  0
   -1.0361    1.1874    1.3967 H   0  0  0  0  0  0  0  0  0  0  0  0
   -2.0886    1.8656    0.0701 H   0  0  0  0  0  0  0  0  0  0  0  0
   -2.5758   -0.5384    1.3837 H   0  0  0  0  0  0  0  0  0  0  0  0
   -4.0617   -1.0204   -0.3922 H   0  0  0  0  0  0  0  0  0  0  0  0
   -3.1785   -0.0246   -1.5722 H   0  0  0  0  0  0  0  0  0  0  0  0
   -4.0284    0.8107   -0.1606 H   0  0  0  0  0  0  0  0  0  0  0  0
   -1.8543   -2.3306    0.0704 H   0  0  0  0  0  0  0  0  0  0  0  0
   -1.3494   -1.2798   -1.2775 H   0  0  0  0  0  0  0  0  0  0  0  0
   -0.0498   -1.1291    1.4576 H   0  0  0  0  0  0  0  0  0  0  0  0
    1.5097   -2.6120    0.3718 H   0  0  0  0  0  0  0  0  0  0  0  0
  1  2  1  0
  2  3  1  0
  2  4  1  0
  4  5  1  0
  5  6  1  0
  6  7  1  0
  7  8  1  0
  7  9  1  0
  9 10  1  0
 10 11  1  0
 10  4  1  0
  1 12  1  0
  1 13  1  0
  1 14  1  0
  2 15  1  0
  3 16  1  0
  3 17  1  0
  3 18  1  0
  4 19  1  6
  5 20  1  0
  5 21  1  0
  6 22  1  0
  6 23  1  0
  7 24  1  1
  8 25  1  0
  8 26  1  0
  8 27  1  0
  9 28  1  0
  9 29  1  0
 10 30  1  1
 11 31  1  0
M  END
$$$$
