@<TRIPOS>MOLECULE
*****
 69 72 0 0 0
SMALL
GASTEIGER

@<TRIPOS>ATOM
      1 C          -0.7595   -0.9669   -2.3321 C.3     1  UNL1       -0.0421
      2 C          -0.3356   -1.4647   -0.9592 C.3     1  UNL1        0.0515
      3 C           1.1327   -1.2633   -0.7572 C.ar    1  UNL1       -0.0271
      4 C           1.7064   -1.4725    0.4804 C.ar    1  UNL1       -0.0562
      5 C           3.0579   -1.2969    0.6996 C.ar    1  UNL1       -0.0537
      6 C           3.9066   -0.9021   -0.3119 C.ar    1  UNL1       -0.0165
      7 C           5.3459   -0.7159   -0.0804 C.ar    1  UNL1       -0.0015
      8 C           5.9499   -1.5255    0.8684 C.ar    1  UNL1       -0.0475
      9 C           7.3091   -1.4310    1.1622 C.ar    1  UNL1        0.0036
     10 C           8.0070   -0.4764    0.4424 C.ar    1  UNL1        0.2516
     11 O           9.2483   -0.3247    0.6479 O.2     1  UNL1       -0.2677
     12 N           7.4332    0.3159   -0.4812 N.ar    1  UNL1       -0.3060
     13 C           8.2424    1.2928   -1.1913 C.3     1  UNL1        0.1212
     14 C           8.7898    0.6120   -2.4458 C.3     1  UNL1        0.4074
     15 F           7.7590    0.1829   -3.2514 F       1  UNL1       -0.1687
     16 F           9.5016   -0.5236   -2.0822 F       1  UNL1       -0.1687
     17 F           9.6472    1.4316   -3.1397 F       1  UNL1       -0.1687
     18 C           6.1155    0.1933   -0.7362 C.ar    1  UNL1        0.0159
     19 C           3.3426   -0.6905   -1.5522 C.ar    1  UNL1       -0.0537
     20 C           1.9837   -0.8674   -1.7700 C.ar    1  UNL1       -0.0562
     21 N          -1.1067   -0.8523    0.1010 N.am    1  UNL1       -0.2605
     22 C          -1.9559   -1.6838    0.9038 C.3     1  UNL1        0.0224
     23 C          -3.1378   -1.0012    1.4905 C.3     1  UNL1        0.0076
     24 C          -3.2993    0.4379    1.1651 C.3     1  UNL1        0.1440
     25 C          -4.0410    1.1923    2.2068 C.3     1  UNL1        0.0199
     26 C          -5.4037    0.8407    2.5688 C.3     1  UNL1        0.0645
     27 C          -6.4309    0.8902    1.4752 C.3     1  UNL1       -0.0362
     28 C          -5.6127   -0.4220    3.3681 C.3     1  UNL1       -0.0362
     29 O          -5.8280    1.8729    3.4664 O.3     1  UNL1       -0.3890
     30 C          -3.8478    0.6871   -0.2086 C.ar    1  UNL1       -0.0040
     31 C          -4.1746   -0.3296   -1.0621 C.ar    1  UNL1       -0.0548
     32 C          -4.6738   -0.0134   -2.3161 C.ar    1  UNL1       -0.0614
     33 C          -4.8568    1.2837   -2.7442 C.ar    1  UNL1       -0.0617
     34 C          -4.5088    2.2749   -1.8379 C.ar    1  UNL1       -0.0614
     35 C          -4.0131    1.9865   -0.5922 C.ar    1  UNL1       -0.0548
     36 O          -2.0127    1.1027    1.1009 O.3     1  UNL1       -0.4387
     37 C          -1.0109    0.5506    0.3317 C.2     1  UNL1        0.4042
     38 O          -0.0557    1.2191   -0.1521 O.2     1  UNL1       -0.2262
     39 H          -0.2143   -1.5819   -3.1002 H       1  UNL1        0.0251
     40 H          -0.5020    0.0752   -2.5108 H       1  UNL1        0.0251
     41 H          -1.8261   -1.2287   -2.4853 H       1  UNL1        0.0251
     42 H          -0.5435   -2.5739   -0.9888 H       1  UNL1        0.0549
     43 H           1.0499   -1.7854    1.2926 H       1  UNL1        0.0621
     44 H           3.4932   -1.4668    1.6849 H       1  UNL1        0.0624
     45 H           5.3524   -2.2519    1.3970 H       1  UNL1        0.0626
     46 H           7.7707   -2.0678    1.9048 H       1  UNL1        0.0672
     47 H           7.6461    2.1727   -1.4357 H       1  UNL1        0.0582
     48 H           9.1218    1.5108   -0.5562 H       1  UNL1        0.0582
     49 H           5.6453    0.8251   -1.4767 H       1  UNL1        0.0816
     50 H           4.0080   -0.3783   -2.3534 H       1  UNL1        0.0624
     51 H           1.5761   -0.6928   -2.7486 H       1  UNL1        0.0621
     52 H          -1.2905   -2.1222    1.7038 H       1  UNL1        0.0467
     53 H          -2.2521   -2.5575    0.2867 H       1  UNL1        0.0467
     54 H          -3.0593   -1.0849    2.6027 H       1  UNL1        0.0322
     55 H          -4.0593   -1.5461    1.2200 H       1  UNL1        0.0322
     56 H          -3.4055    1.1233    3.1420 H       1  UNL1        0.0335
     57 H          -3.9946    2.2913    1.9657 H       1  UNL1        0.0335
     58 H          -7.4360    0.8060    1.9883 H       1  UNL1        0.0257
     59 H          -6.4565    1.8708    0.9590 H       1  UNL1        0.0257
     60 H          -6.3892    0.0203    0.7906 H       1  UNL1        0.0257
     61 H          -6.5508   -0.2960    3.9963 H       1  UNL1        0.0257
     62 H          -4.8267   -0.6032    4.1270 H       1  UNL1        0.0257
     63 H          -5.8532   -1.3120    2.7507 H       1  UNL1        0.0257
     64 H          -5.7615    2.7366    3.0053 H       1  UNL1        0.2101
     65 H          -4.0500   -1.3913   -0.7802 H       1  UNL1        0.0622
     66 H          -4.9331   -0.8269   -2.9938 H       1  UNL1        0.0618
     67 H          -5.2496    1.5299   -3.7310 H       1  UNL1        0.0618
     68 H          -4.6469    3.3210   -2.1594 H       1  UNL1        0.0618
     69 H          -3.7761    2.8528    0.0276 H       1  UNL1        0.0622
@<TRIPOS>BOND
     1     1     2    1
     2     2     3    1
     3     3     4   ar
     4     4     5   ar
     5     5     6   ar
     6     6     7    1
     7     7     8   ar
     8     8     9   ar
     9     9    10   ar
    10    10    11    2
    11    10    12   ar
    12    12    13    1
    13    13    14    1
    14    14    15    1
    15    14    16    1
    16    14    17    1
    17    12    18   ar
    18     6    19   ar
    19    19    20   ar
    20     2    21    1
    21    21    22    1
    22    22    23    1
    23    23    24    1
    24    24    25    1
    25    25    26    1
    26    26    27    1
    27    26    28    1
    28    26    29    1
    29    24    30    1
    30    30    31   ar
    31    31    32   ar
    32    32    33   ar
    33    33    34   ar
    34    34    35   ar
    35    24    36    1
    36    36    37    1
    37    37    38    2
    38    20     3   ar
    39    37    21   am
    40    18     7   ar
    41    35    30   ar
    42     1    39    1
    43     1    40    1
    44     1    41    1
    45     2    42    1
    46     4    43    1
    47     5    44    1
    48     8    45    1
    49     9    46    1
    50    13    47    1
    51    13    48    1
    52    18    49    1
    53    19    50    1
    54    20    51    1
    55    22    52    1
    56    22    53    1
    57    23    54    1
    58    23    55    1
    59    25    56    1
    60    25    57    1
    61    27    58    1
    62    27    59    1
    63    27    60    1
    64    28    61    1
    65    28    62    1
    66    28    63    1
    67    29    64    1
    68    31    65    1
    69    32    66    1
    70    33    67    1
    71    34    68    1
    72    35    69    1
