@<TRIPOS>MOLECULE
*****
 47 47 0 0 0
SMALL
GASTEIGER

@<TRIPOS>ATOM
      1 C1         -1.3575   -0.2750    0.4651 C.2     1  <1>         0.0332
      2 N1         -0.4080   -0.0613   -0.3705 N.2     1  <1>        -0.2909
      3 C2          0.8808   -0.6600   -0.1973 C.3     1  <1>         0.0397
      4 C3          1.8828    0.3013   -0.8147 C.3     1  <1>        -0.0334
      5 C4          3.2566   -0.2880   -0.6686 C.3     1  <1>        -0.0495
      6 C5          3.6935   -0.5357    0.7343 C.3     1  <1>        -0.0273
      7 C6          5.1160   -1.1147    0.6377 C.3     1  <1>         0.1032
      8 N2          5.6275   -1.3931    1.9658 N.3     1  <1>        -0.3184
      9 C7          5.9683   -0.0723    0.0016 C.2     1  <1>         0.3217
     10 O1          6.2779    0.7499   -1.0661 O.3     1  <1>        -0.4795
     11 O2          6.7226    0.0266    0.9903 O.2     1  <1>        -0.2493
     12 C8         -2.3583    0.5616   -0.2120 C.ar    1  <1>         0.0426
     13 C9         -3.1554    0.0764   -1.2195 C.ar    1  <1>         0.0088
     14 C10        -3.1960   -1.3190   -1.7035 C.3     1  <1>         0.0862
     15 O3         -3.9910   -2.1892   -1.0566 O.3     1  <1>        -0.2820
     16 P1         -3.8270   -2.5479    0.5262 P.3     1  <1>         0.4727
     17 O4         -5.0567   -3.7090    0.9022 O.3     1  <1>        -0.3026
     18 O5         -4.1655   -1.2508    1.5891 O.3     1  <1>        -0.3026
     19 O6         -2.5416   -3.2364    0.9268 O.2     1  <1>        -0.2275
     20 C11        -4.0386    1.0014   -1.8015 C.ar    1  <1>         0.0341
     21 N3         -4.0996    2.2817   -1.3968 N.ar    1  <1>        -0.2562
     22 C12        -3.3345    2.7841   -0.4146 C.ar    1  <1>         0.0801
     23 C13        -3.3421    4.1789    0.0880 C.3     1  <1>        -0.0188
     24 C14        -2.4359    1.9018    0.1979 C.ar    1  <1>         0.1466
     25 O7         -1.6059    2.3260    1.2182 O.3     1  <1>        -0.5043
     26 H1         -1.2586   -0.8986    1.3357 H       1  <1>         0.0832
     27 H2          0.9962   -1.6271   -0.7039 H       1  <1>         0.0508
     28 H3          1.1598   -0.7612    0.8751 H       1  <1>         0.0508
     29 H4          1.8108    1.2735   -0.2727 H       1  <1>         0.0283
     30 H5          1.6037    0.4620   -1.8768 H       1  <1>         0.0283
     31 H6          3.3606   -1.2508   -1.2219 H       1  <1>         0.0266
     32 H7          3.9703    0.4077   -1.1689 H       1  <1>         0.0266
     33 H8          3.7076    0.3751    1.3561 H       1  <1>         0.0286
     34 H9          3.0694   -1.3168    1.2360 H       1  <1>         0.0286
     35 H10         5.1375   -2.0197    0.0156 H       1  <1>         0.0574
     36 H11         4.8374   -1.3443    2.6479 H       1  <1>         0.1190
     37 H12         6.0177   -2.3710    1.9642 H       1  <1>         0.1190
     38 H13         6.4118    1.7449   -0.9074 H       1  <1>         0.2951
     39 H14        -3.5851   -1.2592   -2.7711 H       1  <1>         0.0616
     40 H15        -2.1403   -1.7077   -1.8407 H       1  <1>         0.0616
     41 H16        -5.8594   -3.5002    0.3555 H       1  <1>         0.2220
     42 H17        -3.5058   -1.2418    2.3287 H       1  <1>         0.2220
     43 H18        -4.7048    0.6952   -2.6056 H       1  <1>         0.0833
     44 H19        -2.2770    4.5245    0.0944 H       1  <1>         0.0294
     45 H20        -3.7499    4.1808    1.1100 H       1  <1>         0.0294
     46 H21        -3.9256    4.8239   -0.6260 H       1  <1>         0.0294
     47 H22        -1.5890    3.2734    1.5440 H       1  <1>         0.2922
@<TRIPOS>BOND
     1     1     2    2
     2     2     3    1
     3     3     4    1
     4     4     5    1
     5     5     6    1
     6     6     7    1
     7     7     8    1
     8     7     9    1
     9     9    10    1
    10     9    11    2
    11     1    12    1
    12    12    13   ar
    13    13    14    1
    14    14    15    1
    15    15    16    1
    16    16    17    1
    17    16    18    1
    18    16    19    2
    19    13    20   ar
    20    20    21   ar
    21    21    22   ar
    22    22    23    1
    23    22    24   ar
    24    24    25    1
    25    24    12   ar
    26     1    26    1
    27     3    27    1
    28     3    28    1
    29     4    29    1
    30     4    30    1
    31     5    31    1
    32     5    32    1
    33     6    33    1
    34     6    34    1
    35     7    35    1
    36     8    36    1
    37     8    37    1
    38    10    38    1
    39    14    39    1
    40    14    40    1
    41    17    41    1
    42    18    42    1
    43    20    43    1
    44    23    44    1
    45    23    45    1
    46    23    46    1
    47    25    47    1
