
     RDKit          3D

 39 40  0  0  0  0  0  0  0  0999 V2000
    4.7075   -1.9478    0.6126 C   0  0  0  0  0  0  0  0  0  0  0  0
    3.6048   -1.4828    1.9486 S   0  0  0  0  0  6  0  0  0  0  0  0
    3.4415   -2.6312    2.8992 O   0  0  0  0  0  0  0  0  0  0  0  0
    4.2718   -0.3740    2.7102 O   0  0  0  0  0  0  0  0  0  0  0  0
    2.0842   -1.0134    1.3195 N   0  0  0  0  0  0  0  0  0  0  0  0
    1.9042    0.0827    0.4423 C   0  0  0  0  0  0  0  0  0  0  0  0
    3.0448    0.7950    0.0951 C   0  0  0  0  0  0  0  0  0  0  0  0
    2.9177    1.8797   -0.7639 C   0  0  0  0  0  0  0  0  0  0  0  0
    1.6774    2.2328   -1.2559 C   0  0  0  0  0  0  0  0  0  0  0  0
    1.5858    3.3477   -2.1319 N   0  0  0  0  0  4  0  0  0  0  0  0
    2.5537    4.0141   -2.4743 O   0  0  0  0  0  0  0  0  0  0  0  0
    0.3453    3.6840   -2.6111 O   0  0  0  0  0  1  0  0  0  0  0  0
    0.5496    1.4946   -0.8864 C   0  0  0  0  0  0  0  0  0  0  0  0
    0.6584    0.4202   -0.0386 C   0  0  0  0  0  0  0  0  0  0  0  0
   -0.4294   -0.2966    0.3215 O   0  0  0  0  0  0  0  0  0  0  0  0
   -1.7597   -0.1690   -0.0125 C   0  0  0  0  0  0  0  0  0  0  0  0
   -2.2976   -1.3848   -0.7348 C   0  0  0  0  0  0  0  0  0  0  0  0
   -3.7737   -1.5118   -0.5818 C   0  0  0  0  0  0  0  0  0  0  0  0
   -4.4964   -0.1858   -0.5184 C   0  0  0  0  0  0  0  0  0  0  0  0
   -3.9535    0.6900    0.5902 C   0  0  0  0  0  0  0  0  0  0  0  0
   -2.6714    0.0779    1.1693 C   0  0  0  0  0  0  0  0  0  0  0  0
    5.1001   -2.9813    0.7838 H   0  0  0  0  0  0  0  0  0  0  0  0
    5.5758   -1.2895    0.5496 H   0  0  0  0  0  0  0  0  0  0  0  0
    4.1799   -1.9064   -0.3641 H   0  0  0  0  0  0  0  0  0  0  0  0
    1.2469   -1.5657    1.5984 H   0  0  0  0  0  0  0  0  0  0  0  0
    4.0313    0.5457    0.4620 H   0  0  0  0  0  0  0  0  0  0  0  0
    3.8064    2.4588   -1.0531 H   0  0  0  0  0  0  0  0  0  0  0  0
   -0.3750    1.8438   -1.3194 H   0  0  0  0  0  0  0  0  0  0  0  0
   -1.8988    0.6874   -0.6978 H   0  0  0  0  0  0  0  0  0  0  0  0
   -1.9590   -1.3805   -1.8093 H   0  0  0  0  0  0  0  0  0  0  0  0
   -1.8177   -2.2871   -0.2694 H   0  0  0  0  0  0  0  0  0  0  0  0
   -4.1617   -2.0324   -1.5002 H   0  0  0  0  0  0  0  0  0  0  0  0
   -4.0791   -2.1311    0.2823 H   0  0  0  0  0  0  0  0  0  0  0  0
   -5.5593   -0.4068   -0.2533 H   0  0  0  0  0  0  0  0  0  0  0  0
   -4.4905    0.3086   -1.5037 H   0  0  0  0  0  0  0  0  0  0  0  0
   -4.6967    0.8951    1.3820 H   0  0  0  0  0  0  0  0  0  0  0  0
   -3.6561    1.6636    0.1298 H   0  0  0  0  0  0  0  0  0  0  0  0
   -2.9422   -0.9164    1.5789 H   0  0  0  0  0  0  0  0  0  0  0  0
   -2.2692    0.7726    1.9045 H   0  0  0  0  0  0  0  0  0  0  0  0
  1  2  1  0
  2  3  2  0
  2  4  2  0
  2  5  1  0
  5  6  1  0
  6  7  2  0
  7  8  1  0
  8  9  2  0
  9 10  1  0
 10 11  2  0
 10 12  1  0
  9 13  1  0
 13 14  2  0
 14 15  1  0
 15 16  1  0
 16 17  1  0
 17 18  1  0
 18 19  1  0
 19 20  1  0
 20 21  1  0
 14  6  1  0
 21 16  1  0
  1 22  1  0
  1 23  1  0
  1 24  1  0
  5 25  1  0
  7 26  1  0
  8 27  1  0
 13 28  1  0
 16 29  1  0
 17 30  1  0
 17 31  1  0
 18 32  1  0
 18 33  1  0
 19 34  1  0
 19 35  1  0
 20 36  1  0
 20 37  1  0
 21 38  1  0
 21 39  1  0
M  CHG  2  10   1  12  -1
M  END
$$$$
