@<TRIPOS>MOLECULE
*****
 39 40 0 0 0
SMALL
GASTEIGER

@<TRIPOS>ATOM
      1 C           4.7075   -1.9478    0.6126 C.3     1  UNL1        0.0736
      2 S           3.6048   -1.4828    1.9486 S.O2    1  UNL1        0.0404
      3 O           3.4415   -2.6312    2.8992 O.2     1  UNL1       -0.1555
      4 O           4.2718   -0.3740    2.7102 O.2     1  UNL1       -0.1555
      5 N           2.0842   -1.0134    1.3195 N.pl3   1  UNL1       -0.2173
      6 C           1.9042    0.0827    0.4423 C.ar    1  UNL1        0.0897
      7 C           3.0448    0.7950    0.0951 C.ar    1  UNL1       -0.0294
      8 C           2.9177    1.8797   -0.7639 C.ar    1  UNL1        0.0176
      9 C           1.6774    2.2328   -1.2559 C.ar    1  UNL1        0.2768
     10 N           1.5858    3.3477   -2.1319 N.pl3   1  UNL1        0.0797
     11 O           2.5537    4.0141   -2.4743 O.2     1  UNL1        0.0414
     12 O           0.3453    3.6840   -2.6111 O.co2   1  UNL1       -0.5760
     13 C           0.5496    1.4946   -0.8864 C.ar    1  UNL1        0.0591
     14 C           0.6584    0.4202   -0.0386 C.ar    1  UNL1        0.1496
     15 O          -0.4294   -0.2966    0.3215 O.3     1  UNL1       -0.4867
     16 C          -1.7597   -0.1690   -0.0125 C.3     1  UNL1        0.1003
     17 C          -2.2976   -1.3848   -0.7348 C.3     1  UNL1       -0.0158
     18 C          -3.7737   -1.5118   -0.5818 C.3     1  UNL1       -0.0497
     19 C          -4.4964   -0.1858   -0.5184 C.3     1  UNL1       -0.0528
     20 C          -3.9535    0.6900    0.5902 C.3     1  UNL1       -0.0497
     21 C          -2.6714    0.0779    1.1693 C.3     1  UNL1       -0.0158
     22 H           5.1001   -2.9813    0.7838 H       1  UNL1        0.0482
     23 H           5.5758   -1.2895    0.5496 H       1  UNL1        0.0482
     24 H           4.1799   -1.9064   -0.3641 H       1  UNL1        0.0482
     25 H           1.2469   -1.5657    1.5984 H       1  UNL1        0.1734
     26 H           4.0313    0.5457    0.4620 H       1  UNL1        0.0640
     27 H           3.8064    2.4588   -1.0531 H       1  UNL1        0.0686
     28 H          -0.3750    1.8438   -1.3194 H       1  UNL1        0.0723
     29 H          -1.8988    0.6874   -0.6978 H       1  UNL1        0.0733
     30 H          -1.9590   -1.3805   -1.8093 H       1  UNL1        0.0301
     31 H          -1.8177   -2.2871   -0.2694 H       1  UNL1        0.0301
     32 H          -4.1617   -2.0324   -1.5002 H       1  UNL1        0.0266
     33 H          -4.0791   -2.1311    0.2823 H       1  UNL1        0.0266
     34 H          -5.5593   -0.4068   -0.2533 H       1  UNL1        0.0265
     35 H          -4.4905    0.3086   -1.5037 H       1  UNL1        0.0265
     36 H          -4.6967    0.8951    1.3820 H       1  UNL1        0.0266
     37 H          -3.6561    1.6636    0.1298 H       1  UNL1        0.0266
     38 H          -2.9422   -0.9164    1.5789 H       1  UNL1        0.0301
     39 H          -2.2692    0.7726    1.9045 H       1  UNL1        0.0301
@<TRIPOS>UNITY_ATOM_ATTR
10 1
charge 1
12 1
charge -1
@<TRIPOS>BOND
     1     1     2    1
     2     2     3    2
     3     2     4    2
     4     2     5    1
     5     5     6    1
     6     6     7   ar
     7     7     8   ar
     8     8     9   ar
     9     9    10    1
    10    10    11    2
    11    10    12    1
    12     9    13   ar
    13    13    14   ar
    14    14    15    1
    15    15    16    1
    16    16    17    1
    17    17    18    1
    18    18    19    1
    19    19    20    1
    20    20    21    1
    21    14     6   ar
    22    21    16    1
    23     1    22    1
    24     1    23    1
    25     1    24    1
    26     5    25    1
    27     7    26    1
    28     8    27    1
    29    13    28    1
    30    16    29    1
    31    17    30    1
    32    17    31    1
    33    18    32    1
    34    18    33    1
    35    19    34    1
    36    19    35    1
    37    20    36    1
    38    20    37    1
    39    21    38    1
    40    21    39    1
