
     RDKit          3D

 56 60  0  0  0  0  0  0  0  0999 V2000
    6.8354   -2.1708   -0.7740 C   0  0  0  0  0  0  0  0  0  0  0  0
    6.9542   -1.0226   -1.7336 C   0  0  0  0  0  0  0  0  0  0  0  0
    6.4127    0.2019   -1.0321 C   0  0  0  0  0  0  0  0  0  0  0  0
    4.9365    0.0386   -0.9257 C   0  0  0  0  0  0  0  0  0  0  0  0
    4.4773   -1.2838   -0.4145 C   0  0  0  0  0  0  0  0  0  0  0  0
    5.5233   -2.2821   -0.0747 C   0  0  0  0  0  0  0  0  0  0  0  0
    4.4190    1.1547   -0.1293 N   0  0  0  0  0  0  0  0  0  0  0  0
    3.0315    1.3779    0.2069 C   0  0  0  0  0  0  0  0  0  0  0  0
    2.6417    2.4744    0.9691 C   0  0  0  0  0  0  0  0  0  0  0  0
    3.3262    3.4813    1.5305 N   0  0  0  0  0  0  0  0  0  0  0  0
    2.4317    4.2880    2.1741 C   0  0  0  0  0  0  0  0  0  0  0  0
    1.2308    3.7224    1.9681 N   0  0  0  0  0  0  0  0  0  0  0  0
    1.2974    2.6018    1.2321 C   0  0  0  0  0  0  0  0  0  0  0  0
    0.4405    1.7169    0.7745 N   0  0  0  0  0  0  0  0  0  0  0  0
    0.7830    0.6538    0.0409 C   0  0  0  0  0  0  0  0  0  0  0  0
   -0.1184   -0.3152   -0.4731 N   0  0  0  0  0  0  0  0  0  0  0  0
   -1.5335   -0.2914   -0.3933 C   0  0  0  0  0  0  0  0  0  0  0  0
   -2.2908    0.8115   -0.0062 C   0  0  0  0  0  0  0  0  0  0  0  0
   -3.6680    0.7892    0.0743 C   0  0  0  0  0  0  0  0  0  0  0  0
   -4.3732   -0.3545   -0.2319 C   0  0  0  0  0  0  0  0  0  0  0  0
   -3.6478   -1.4540   -0.6154 C   0  0  0  0  0  0  0  0  0  0  0  0
   -2.2765   -1.4126   -0.6903 C   0  0  0  0  0  0  0  0  0  0  0  0
   -5.7882   -0.4248   -0.1642 N   0  0  0  0  0  0  0  0  0  0  0  0
   -6.5305   -1.6502   -0.4015 C   0  0  0  0  0  0  0  0  0  0  0  0
   -7.9845   -1.4325   -0.6273 C   0  0  0  0  0  0  0  0  0  0  0  0
   -8.6176   -0.6255    0.3081 O   0  0  0  0  0  0  0  0  0  0  0  0
   -7.7629    0.1499    1.0480 C   0  0  0  0  0  0  0  0  0  0  0  0
   -6.6616    0.6885    0.1392 C   0  0  0  0  0  0  0  0  0  0  0  0
    2.0946    0.5316   -0.2146 N   0  0  0  0  0  0  0  0  0  0  0  0
    7.0982   -3.0988   -1.3421 H   0  0  0  0  0  0  0  0  0  0  0  0
    7.6893   -2.0577   -0.0438 H   0  0  0  0  0  0  0  0  0  0  0  0
    8.0555   -0.8249   -1.8913 H   0  0  0  0  0  0  0  0  0  0  0  0
    6.4656   -1.1803   -2.7082 H   0  0  0  0  0  0  0  0  0  0  0  0
    6.6299    1.0640   -1.7138 H   0  0  0  0  0  0  0  0  0  0  0  0
    6.9263    0.3210   -0.0621 H   0  0  0  0  0  0  0  0  0  0  0  0
    4.5346    0.2408   -1.9620 H   0  0  0  0  0  0  0  0  0  0  0  0
    3.7512   -1.7105   -1.1669 H   0  0  0  0  0  0  0  0  0  0  0  0
    3.8599   -1.1067    0.4948 H   0  0  0  0  0  0  0  0  0  0  0  0
    5.1053   -3.3057   -0.3077 H   0  0  0  0  0  0  0  0  0  0  0  0
    5.7182   -2.3110    1.0259 H   0  0  0  0  0  0  0  0  0  0  0  0
    5.0826    1.8783    0.2490 H   0  0  0  0  0  0  0  0  0  0  0  0
    2.6998    5.1761    2.7138 H   0  0  0  0  0  0  0  0  0  0  0  0
    0.3707    4.1574    2.3660 H   0  0  0  0  0  0  0  0  0  0  0  0
    0.2913   -1.1413   -0.9652 H   0  0  0  0  0  0  0  0  0  0  0  0
   -1.8015    1.7402    0.2409 H   0  0  0  0  0  0  0  0  0  0  0  0
   -4.1718    1.6863    0.3810 H   0  0  0  0  0  0  0  0  0  0  0  0
   -4.1367   -2.4063   -0.8753 H   0  0  0  0  0  0  0  0  0  0  0  0
   -1.7406   -2.3170   -1.0018 H   0  0  0  0  0  0  0  0  0  0  0  0
   -6.3336   -2.3916    0.4276 H   0  0  0  0  0  0  0  0  0  0  0  0
   -6.1157   -2.1086   -1.3208 H   0  0  0  0  0  0  0  0  0  0  0  0
   -8.4699   -2.4496   -0.5272 H   0  0  0  0  0  0  0  0  0  0  0  0
   -8.1670   -1.0757   -1.6615 H   0  0  0  0  0  0  0  0  0  0  0  0
   -7.2875   -0.3499    1.8957 H   0  0  0  0  0  0  0  0  0  0  0  0
   -8.3371    1.0595    1.3871 H   0  0  0  0  0  0  0  0  0  0  0  0
   -7.1298    1.0203   -0.8264 H   0  0  0  0  0  0  0  0  0  0  0  0
   -6.1695    1.5295    0.6219 H   0  0  0  0  0  0  0  0  0  0  0  0
  1  2  1  0
  2  3  1  0
  3  4  1  0
  4  5  1  0
  5  6  1  0
  4  7  1  0
  7  8  1  0
  8  9  2  0
  9 10  1  0
 10 11  2  0
 11 12  1  0
 12 13  1  0
 13 14  2  0
 14 15  1  0
 15 16  1  0
 16 17  1  0
 17 18  2  0
 18 19  1  0
 19 20  2  0
 20 21  1  0
 21 22  2  0
 20 23  1  0
 23 24  1  0
 24 25  1  0
 25 26  1  0
 26 27  1  0
 27 28  1  0
 15 29  2  0
  6  1  1  0
 29  8  1  0
 13  9  1  0
 22 17  1  0
 28 23  1  0
  1 30  1  0
  1 31  1  0
  2 32  1  0
  2 33  1  0
  3 34  1  0
  3 35  1  0
  4 36  1  0
  5 37  1  0
  5 38  1  0
  6 39  1  0
  6 40  1  0
  7 41  1  0
 11 42  1  0
 12 43  1  0
 16 44  1  0
 18 45  1  0
 19 46  1  0
 21 47  1  0
 22 48  1  0
 24 49  1  0
 24 50  1  0
 25 51  1  0
 25 52  1  0
 27 53  1  0
 27 54  1  0
 28 55  1  0
 28 56  1  0
M  END
$$$$
