@<TRIPOS>MOLECULE
*****
 56 60 0 0 0
SMALL
GASTEIGER

@<TRIPOS>ATOM
      1 C           6.8354   -2.1708   -0.7740 C.3     1  UNL1       -0.0529
      2 C           6.9542   -1.0226   -1.7336 C.3     1  UNL1       -0.0514
      3 C           6.4127    0.2019   -1.0321 C.3     1  UNL1       -0.0345
      4 C           4.9365    0.0386   -0.9257 C.3     1  UNL1        0.0220
      5 C           4.4773   -1.2838   -0.4145 C.3     1  UNL1       -0.0345
      6 C           5.5233   -2.2821   -0.0747 C.3     1  UNL1       -0.0514
      7 N           4.4190    1.1547   -0.1293 N.pl3   1  UNL1       -0.3243
      8 C           3.0315    1.3779    0.2069 C.ar    1  UNL1        0.1518
      9 C           2.6417    2.4744    0.9691 C.ar    1  UNL1        0.1473
     10 N           3.3262    3.4813    1.5305 N.ar    1  UNL1       -0.2308
     11 C           2.4317    4.2880    2.1741 C.ar    1  UNL1        0.0957
     12 N           1.2308    3.7224    1.9681 N.ar    1  UNL1       -0.3291
     13 C           1.2974    2.6018    1.2321 C.ar    1  UNL1        0.1646
     14 N           0.4405    1.7169    0.7745 N.ar    1  UNL1       -0.1947
     15 C           0.7830    0.6538    0.0409 C.ar    1  UNL1        0.2232
     16 N          -0.1184   -0.3152   -0.4731 N.pl3   1  UNL1       -0.2835
     17 C          -1.5335   -0.2914   -0.3933 C.ar    1  UNL1        0.0337
     18 C          -2.2908    0.8115   -0.0062 C.ar    1  UNL1       -0.0387
     19 C          -3.6680    0.7892    0.0743 C.ar    1  UNL1       -0.0389
     20 C          -4.3732   -0.3545   -0.2319 C.ar    1  UNL1        0.0299
     21 C          -3.6478   -1.4540   -0.6154 C.ar    1  UNL1       -0.0389
     22 C          -2.2765   -1.4126   -0.6903 C.ar    1  UNL1       -0.0387
     23 N          -5.7882   -0.4248   -0.1642 N.pl3   1  UNL1       -0.3255
     24 C          -6.5305   -1.6502   -0.4015 C.3     1  UNL1        0.0357
     25 C          -7.9845   -1.4325   -0.6273 C.3     1  UNL1        0.0634
     26 O          -8.6176   -0.6255    0.3081 O.3     1  UNL1       -0.3767
     27 C          -7.7629    0.1499    1.0480 C.3     1  UNL1        0.0634
     28 C          -6.6616    0.6885    0.1392 C.3     1  UNL1        0.0357
     29 N           2.0946    0.5316   -0.2146 N.ar    1  UNL1       -0.1972
     30 H           7.0982   -3.0988   -1.3421 H       1  UNL1        0.0265
     31 H           7.6893   -2.0577   -0.0438 H       1  UNL1        0.0265
     32 H           8.0555   -0.8249   -1.8913 H       1  UNL1        0.0266
     33 H           6.4656   -1.1803   -2.7082 H       1  UNL1        0.0266
     34 H           6.6299    1.0640   -1.7138 H       1  UNL1        0.0283
     35 H           6.9263    0.3210   -0.0621 H       1  UNL1        0.0283
     36 H           4.5346    0.2408   -1.9620 H       1  UNL1        0.0498
     37 H           3.7512   -1.7105   -1.1669 H       1  UNL1        0.0283
     38 H           3.8599   -1.1067    0.4948 H       1  UNL1        0.0283
     39 H           5.1053   -3.3057   -0.3077 H       1  UNL1        0.0266
     40 H           5.7182   -2.3110    1.0259 H       1  UNL1        0.0266
     41 H           5.0826    1.8783    0.2490 H       1  UNL1        0.1478
     42 H           2.6998    5.1761    2.7138 H       1  UNL1        0.1027
     43 H           0.3707    4.1574    2.3660 H       1  UNL1        0.1682
     44 H           0.2913   -1.1413   -0.9652 H       1  UNL1        0.1550
     45 H          -1.8015    1.7402    0.2409 H       1  UNL1        0.0637
     46 H          -4.1718    1.6863    0.3810 H       1  UNL1        0.0637
     47 H          -4.1367   -2.4063   -0.8753 H       1  UNL1        0.0637
     48 H          -1.7406   -2.3170   -1.0018 H       1  UNL1        0.0637
     49 H          -6.3336   -2.3916    0.4276 H       1  UNL1        0.0486
     50 H          -6.1157   -2.1086   -1.3208 H       1  UNL1        0.0486
     51 H          -8.4699   -2.4496   -0.5272 H       1  UNL1        0.0575
     52 H          -8.1670   -1.0757   -1.6615 H       1  UNL1        0.0575
     53 H          -7.2875   -0.3499    1.8957 H       1  UNL1        0.0575
     54 H          -8.3371    1.0595    1.3871 H       1  UNL1        0.0575
     55 H          -7.1298    1.0203   -0.8264 H       1  UNL1        0.0486
     56 H          -6.1695    1.5295    0.6219 H       1  UNL1        0.0486
@<TRIPOS>BOND
     1     1     2    1
     2     2     3    1
     3     3     4    1
     4     4     5    1
     5     5     6    1
     6     4     7    1
     7     7     8    1
     8     8     9   ar
     9     9    10   ar
    10    10    11   ar
    11    11    12   ar
    12    12    13   ar
    13    13    14   ar
    14    14    15   ar
    15    15    16    1
    16    16    17    1
    17    17    18   ar
    18    18    19   ar
    19    19    20   ar
    20    20    21   ar
    21    21    22   ar
    22    20    23    1
    23    23    24    1
    24    24    25    1
    25    25    26    1
    26    26    27    1
    27    27    28    1
    28    15    29   ar
    29     6     1    1
    30    29     8   ar
    31    13     9   ar
    32    22    17   ar
    33    28    23    1
    34     1    30    1
    35     1    31    1
    36     2    32    1
    37     2    33    1
    38     3    34    1
    39     3    35    1
    40     4    36    1
    41     5    37    1
    42     5    38    1
    43     6    39    1
    44     6    40    1
    45     7    41    1
    46    11    42    1
    47    12    43    1
    48    16    44    1
    49    18    45    1
    50    19    46    1
    51    21    47    1
    52    22    48    1
    53    24    49    1
    54    24    50    1
    55    25    51    1
    56    25    52    1
    57    27    53    1
    58    27    54    1
    59    28    55    1
    60    28    56    1
