@<TRIPOS>MOLECULE
*****
 78 82 0 0 0
SMALL
GASTEIGER

@<TRIPOS>ATOM
      1 C           8.6125    2.2568    2.2892 C.3     1  UNL1        0.0789
      2 O           7.5253    1.7240    1.5788 O.3     1  UNL1       -0.4930
      3 C           7.6961    0.7585    0.6063 C.ar    1  UNL1        0.1454
      4 C           8.9599    0.2874    0.3074 C.ar    1  UNL1       -0.0178
      5 C           9.1732   -0.6786   -0.6586 C.ar    1  UNL1       -0.0562
      6 C           8.0442   -1.1636   -1.3273 C.ar    1  UNL1       -0.0340
      7 C           6.7901   -0.7048   -1.0400 C.ar    1  UNL1        0.0927
      8 N           5.5952   -1.0116   -1.5378 N.ar    1  UNL1       -0.2324
      9 C           4.6478   -0.2853   -0.9311 C.ar    1  UNL1        0.1083
     10 C           3.1910   -0.3997   -1.2816 C.3     1  UNL1        0.0066
     11 C           2.3463    0.5054   -0.4633 C.3     1  UNL1       -0.0334
     12 C           0.9082    0.4553   -0.8094 C.3     1  UNL1       -0.0010
     13 N           0.1970   -0.7482   -0.6959 N.3     1  UNL1       -0.3052
     14 C           0.5069   -1.7733   -1.6139 C.3     1  UNL1       -0.0128
     15 C          -0.5257   -1.0332    0.4600 C.3     1  UNL1        0.0022
     16 C          -1.7419   -0.2799    0.7996 C.3     1  UNL1        0.0006
     17 C          -2.9152   -0.3113   -0.0876 C.3     1  UNL1        0.1220
     18 O          -3.4837   -1.5555   -0.3177 O.3     1  UNL1       -0.4572
     19 C          -4.0101   -2.4498    0.5626 C.2     1  UNL1        0.3102
     20 O          -3.9934   -2.1451    1.7821 O.2     1  UNL1       -0.2505
     21 C          -4.6032   -3.7644    0.1552 C.3     1  UNL1        0.0509
     22 C          -5.1036   -4.5019    1.3719 C.3     1  UNL1       -0.0525
     23 C          -3.6681   -4.6189   -0.6323 C.3     1  UNL1       -0.0525
     24 C          -2.6511    0.3151   -1.4396 C.3     1  UNL1       -0.0054
     25 C          -2.9190    1.7802   -1.5179 C.3     1  UNL1       -0.0120
     26 C          -4.3094    2.0687   -2.0814 C.3     1  UNL1       -0.0461
     27 C          -5.3380    1.9770   -0.9606 C.3     1  UNL1       -0.0518
     28 C          -5.1687    0.6405   -0.2992 C.3     1  UNL1       -0.0425
     29 C          -3.9876    0.5707    0.6020 C.3     1  UNL1        0.0244
     30 C          -3.3642    1.9150    0.8785 C.ar    1  UNL1       -0.0371
     31 C          -3.3453    2.4831    2.1117 C.ar    1  UNL1       -0.0579
     32 C          -2.7236    3.7229    2.2185 C.ar    1  UNL1       -0.0615
     33 C          -2.1531    4.3475    1.1271 C.ar    1  UNL1       -0.0615
     34 C          -2.1884    3.7397   -0.1272 C.ar    1  UNL1       -0.0580
     35 C          -2.8059    2.5094   -0.2326 C.ar    1  UNL1       -0.0406
     36 N           5.2685    0.4866   -0.0392 N.ar    1  UNL1       -0.3390
     37 C           6.6106    0.2496   -0.0808 C.ar    1  UNL1        0.1084
     38 H           9.0909    3.0473    1.6500 H       1  UNL1        0.0660
     39 H           8.2091    2.6854    3.2328 H       1  UNL1        0.0660
     40 H           9.3515    1.4825    2.6093 H       1  UNL1        0.0660
     41 H           9.8589    0.6488    0.8137 H       1  UNL1        0.0655
     42 H          10.1618   -1.0435   -0.8886 H       1  UNL1        0.0619
     43 H           8.1911   -1.9225   -2.0903 H       1  UNL1        0.0639
     44 H           2.9289   -1.4619   -0.9934 H       1  UNL1        0.0344
     45 H           3.1332   -0.2292   -2.3594 H       1  UNL1        0.0344
     46 H           2.5204    0.3071    0.6379 H       1  UNL1        0.0282
     47 H           2.6897    1.5797   -0.5809 H       1  UNL1        0.0282
     48 H           0.7787    0.8561   -1.8548 H       1  UNL1        0.0426
     49 H           0.3458    1.2362   -0.1848 H       1  UNL1        0.0426
     50 H          -0.4713   -2.1284   -2.0981 H       1  UNL1        0.0391
     51 H           0.9195   -2.6712   -1.0622 H       1  UNL1        0.0391
     52 H           1.1100   -1.4776   -2.4768 H       1  UNL1        0.0391
     53 H          -0.6829   -2.1607    0.5030 H       1  UNL1        0.0428
     54 H           0.1835   -0.8848    1.3428 H       1  UNL1        0.0428
     55 H          -2.0416   -0.5960    1.8489 H       1  UNL1        0.0316
     56 H          -1.4856    0.8136    0.9595 H       1  UNL1        0.0316
     57 H          -5.5119   -3.5924   -0.4910 H       1  UNL1        0.0408
     58 H          -6.1096   -4.0821    1.6620 H       1  UNL1        0.0237
     59 H          -5.1542   -5.5826    1.2304 H       1  UNL1        0.0237
     60 H          -4.4289   -4.2584    2.2229 H       1  UNL1        0.0237
     61 H          -4.2515   -5.5413   -0.9064 H       1  UNL1        0.0237
     62 H          -3.3744   -4.1548   -1.5940 H       1  UNL1        0.0237
     63 H          -2.8105   -4.9883   -0.0357 H       1  UNL1        0.0237
     64 H          -3.3714   -0.1490   -2.1983 H       1  UNL1        0.0310
     65 H          -1.6681    0.1030   -1.8664 H       1  UNL1        0.0310
     66 H          -2.2064    2.2694   -2.2297 H       1  UNL1        0.0350
     67 H          -4.5688    1.3517   -2.8822 H       1  UNL1        0.0271
     68 H          -4.3241    3.1163   -2.4400 H       1  UNL1        0.0271
     69 H          -5.2004    2.8253   -0.2558 H       1  UNL1        0.0266
     70 H          -6.3319    2.0238   -1.4413 H       1  UNL1        0.0266
     71 H          -6.1138    0.3428    0.2446 H       1  UNL1        0.0272
     72 H          -5.0999   -0.1148   -1.1273 H       1  UNL1        0.0272
     73 H          -4.2570    0.1084    1.5671 H       1  UNL1        0.0388
     74 H          -3.7957    1.9797    2.9457 H       1  UNL1        0.0620
     75 H          -2.6849    4.2069    3.1656 H       1  UNL1        0.0618
     76 H          -1.6698    5.3102    1.2067 H       1  UNL1        0.0618
     77 H          -1.7458    4.2171   -0.9863 H       1  UNL1        0.0620
     78 H           4.8139    1.1599    0.5875 H       1  UNL1        0.1672
@<TRIPOS>BOND
     1     1     2    1
     2     2     3    1
     3     3     4   ar
     4     4     5   ar
     5     5     6   ar
     6     6     7   ar
     7     7     8   ar
     8     8     9   ar
     9     9    10    1
    10    10    11    1
    11    11    12    1
    12    12    13    1
    13    13    14    1
    14    13    15    1
    15    15    16    1
    16    16    17    1
    17    17    18    1
    18    18    19    1
    19    19    20    2
    20    19    21    1
    21    21    22    1
    22    21    23    1
    23    17    24    1
    24    24    25    1
    25    25    26    1
    26    26    27    1
    27    27    28    1
    28    28    29    1
    29    29    30    1
    30    30    31   ar
    31    31    32   ar
    32    32    33   ar
    33    33    34   ar
    34    34    35   ar
    35     9    36   ar
    36    36    37   ar
    37    37     3   ar
    38    37     7   ar
    39    29    17    1
    40    35    30   ar
    41    35    25    1
    42     1    38    1
    43     1    39    1
    44     1    40    1
    45     4    41    1
    46     5    42    1
    47     6    43    1
    48    10    44    1
    49    10    45    1
    50    11    46    1
    51    11    47    1
    52    12    48    1
    53    12    49    1
    54    14    50    1
    55    14    51    1
    56    14    52    1
    57    15    53    1
    58    15    54    1
    59    16    55    1
    60    16    56    1
    61    21    57    1
    62    22    58    1
    63    22    59    1
    64    22    60    1
    65    23    61    1
    66    23    62    1
    67    23    63    1
    68    24    64    1
    69    24    65    1
    70    25    66    1
    71    26    67    1
    72    26    68    1
    73    27    69    1
    74    27    70    1
    75    28    71    1
    76    28    72    1
    77    29    73    1
    78    31    74    1
    79    32    75    1
    80    33    76    1
    81    34    77    1
    82    36    78    1
