
     RDKit          3D

 78 82  0  0  0  0  0  0  0  0999 V2000
    8.6125    2.2568    2.2892 C   0  0  0  0  0  0  0  0  0  0  0  0
    7.5253    1.7240    1.5788 O   0  0  0  0  0  0  0  0  0  0  0  0
    7.6961    0.7585    0.6063 C   0  0  0  0  0  0  0  0  0  0  0  0
    8.9599    0.2874    0.3074 C   0  0  0  0  0  0  0  0  0  0  0  0
    9.1732   -0.6786   -0.6586 C   0  0  0  0  0  0  0  0  0  0  0  0
    8.0442   -1.1636   -1.3273 C   0  0  0  0  0  0  0  0  0  0  0  0
    6.7901   -0.7048   -1.0400 C   0  0  0  0  0  0  0  0  0  0  0  0
    5.5952   -1.0116   -1.5378 N   0  0  0  0  0  0  0  0  0  0  0  0
    4.6478   -0.2853   -0.9311 C   0  0  0  0  0  0  0  0  0  0  0  0
    3.1910   -0.3997   -1.2816 C   0  0  0  0  0  0  0  0  0  0  0  0
    2.3463    0.5054   -0.4633 C   0  0  0  0  0  0  0  0  0  0  0  0
    0.9082    0.4553   -0.8094 C   0  0  0  0  0  0  0  0  0  0  0  0
    0.1970   -0.7482   -0.6959 N   0  0  0  0  0  0  0  0  0  0  0  0
    0.5069   -1.7733   -1.6139 C   0  0  0  0  0  0  0  0  0  0  0  0
   -0.5257   -1.0332    0.4600 C   0  0  0  0  0  0  0  0  0  0  0  0
   -1.7419   -0.2799    0.7996 C   0  0  0  0  0  0  0  0  0  0  0  0
   -2.9152   -0.3113   -0.0876 C   0  0  2  0  0  0  0  0  0  0  0  0
   -3.4837   -1.5555   -0.3177 O   0  0  0  0  0  0  0  0  0  0  0  0
   -4.0101   -2.4498    0.5626 C   0  0  0  0  0  0  0  0  0  0  0  0
   -3.9934   -2.1451    1.7821 O   0  0  0  0  0  0  0  0  0  0  0  0
   -4.6032   -3.7644    0.1552 C   0  0  0  0  0  0  0  0  0  0  0  0
   -5.1036   -4.5019    1.3719 C   0  0  0  0  0  0  0  0  0  0  0  0
   -3.6681   -4.6189   -0.6323 C   0  0  0  0  0  0  0  0  0  0  0  0
   -2.6511    0.3151   -1.4396 C   0  0  0  0  0  0  0  0  0  0  0  0
   -2.9190    1.7802   -1.5179 C   0  0  1  0  0  0  0  0  0  0  0  0
   -4.3094    2.0687   -2.0814 C   0  0  0  0  0  0  0  0  0  0  0  0
   -5.3380    1.9770   -0.9606 C   0  0  0  0  0  0  0  0  0  0  0  0
   -5.1687    0.6405   -0.2992 C   0  0  0  0  0  0  0  0  0  0  0  0
   -3.9876    0.5707    0.6020 C   0  0  2  0  0  0  0  0  0  0  0  0
   -3.3642    1.9150    0.8785 C   0  0  0  0  0  0  0  0  0  0  0  0
   -3.3453    2.4831    2.1117 C   0  0  0  0  0  0  0  0  0  0  0  0
   -2.7236    3.7229    2.2185 C   0  0  0  0  0  0  0  0  0  0  0  0
   -2.1531    4.3475    1.1271 C   0  0  0  0  0  0  0  0  0  0  0  0
   -2.1884    3.7397   -0.1272 C   0  0  0  0  0  0  0  0  0  0  0  0
   -2.8059    2.5094   -0.2326 C   0  0  0  0  0  0  0  0  0  0  0  0
    5.2685    0.4866   -0.0392 N   0  0  0  0  0  0  0  0  0  0  0  0
    6.6106    0.2496   -0.0808 C   0  0  0  0  0  0  0  0  0  0  0  0
    9.0909    3.0473    1.6500 H   0  0  0  0  0  0  0  0  0  0  0  0
    8.2091    2.6854    3.2328 H   0  0  0  0  0  0  0  0  0  0  0  0
    9.3515    1.4825    2.6093 H   0  0  0  0  0  0  0  0  0  0  0  0
    9.8589    0.6488    0.8137 H   0  0  0  0  0  0  0  0  0  0  0  0
   10.1618   -1.0435   -0.8886 H   0  0  0  0  0  0  0  0  0  0  0  0
    8.1911   -1.9225   -2.0903 H   0  0  0  0  0  0  0  0  0  0  0  0
    2.9289   -1.4619   -0.9934 H   0  0  0  0  0  0  0  0  0  0  0  0
    3.1332   -0.2292   -2.3594 H   0  0  0  0  0  0  0  0  0  0  0  0
    2.5204    0.3071    0.6379 H   0  0  0  0  0  0  0  0  0  0  0  0
    2.6897    1.5797   -0.5809 H   0  0  0  0  0  0  0  0  0  0  0  0
    0.7787    0.8561   -1.8548 H   0  0  0  0  0  0  0  0  0  0  0  0
    0.3458    1.2362   -0.1848 H   0  0  0  0  0  0  0  0  0  0  0  0
   -0.4713   -2.1284   -2.0981 H   0  0  0  0  0  0  0  0  0  0  0  0
    0.9195   -2.6712   -1.0622 H   0  0  0  0  0  0  0  0  0  0  0  0
    1.1100   -1.4776   -2.4768 H   0  0  0  0  0  0  0  0  0  0  0  0
   -0.6829   -2.1607    0.5030 H   0  0  0  0  0  0  0  0  0  0  0  0
    0.1835   -0.8848    1.3428 H   0  0  0  0  0  0  0  0  0  0  0  0
   -2.0416   -0.5960    1.8489 H   0  0  0  0  0  0  0  0  0  0  0  0
   -1.4856    0.8136    0.9595 H   0  0  0  0  0  0  0  0  0  0  0  0
   -5.5119   -3.5924   -0.4910 H   0  0  0  0  0  0  0  0  0  0  0  0
   -6.1096   -4.0821    1.6620 H   0  0  0  0  0  0  0  0  0  0  0  0
   -5.1542   -5.5826    1.2304 H   0  0  0  0  0  0  0  0  0  0  0  0
   -4.4289   -4.2584    2.2229 H   0  0  0  0  0  0  0  0  0  0  0  0
   -4.2515   -5.5413   -0.9064 H   0  0  0  0  0  0  0  0  0  0  0  0
   -3.3744   -4.1548   -1.5940 H   0  0  0  0  0  0  0  0  0  0  0  0
   -2.8105   -4.9883   -0.0357 H   0  0  0  0  0  0  0  0  0  0  0  0
   -3.3714   -0.1490   -2.1983 H   0  0  0  0  0  0  0  0  0  0  0  0
   -1.6681    0.1030   -1.8664 H   0  0  0  0  0  0  0  0  0  0  0  0
   -2.2064    2.2694   -2.2297 H   0  0  0  0  0  0  0  0  0  0  0  0
   -4.5688    1.3517   -2.8822 H   0  0  0  0  0  0  0  0  0  0  0  0
   -4.3241    3.1163   -2.4400 H   0  0  0  0  0  0  0  0  0  0  0  0
   -5.2004    2.8253   -0.2558 H   0  0  0  0  0  0  0  0  0  0  0  0
   -6.3319    2.0238   -1.4413 H   0  0  0  0  0  0  0  0  0  0  0  0
   -6.1138    0.3428    0.2446 H   0  0  0  0  0  0  0  0  0  0  0  0
   -5.0999   -0.1148   -1.1273 H   0  0  0  0  0  0  0  0  0  0  0  0
   -4.2570    0.1084    1.5671 H   0  0  0  0  0  0  0  0  0  0  0  0
   -3.7957    1.9797    2.9457 H   0  0  0  0  0  0  0  0  0  0  0  0
   -2.6849    4.2069    3.1656 H   0  0  0  0  0  0  0  0  0  0  0  0
   -1.6698    5.3102    1.2067 H   0  0  0  0  0  0  0  0  0  0  0  0
   -1.7458    4.2171   -0.9863 H   0  0  0  0  0  0  0  0  0  0  0  0
    4.8139    1.1599    0.5875 H   0  0  0  0  0  0  0  0  0  0  0  0
  1  2  1  0
  2  3  1  0
  3  4  1  0
  4  5  2  0
  5  6  1  0
  6  7  2  0
  7  8  1  0
  8  9  2  0
  9 10  1  0
 10 11  1  0
 11 12  1  0
 12 13  1  0
 13 14  1  0
 13 15  1  0
 15 16  1  0
 16 17  1  0
 17 18  1  6
 18 19  1  0
 19 20  2  0
 19 21  1  0
 21 22  1  0
 21 23  1  0
 17 24  1  0
 24 25  1  0
 25 26  1  0
 26 27  1  0
 27 28  1  0
 28 29  1  0
 29 30  1  0
 30 31  2  0
 31 32  1  0
 32 33  2  0
 33 34  1  0
 34 35  2  0
  9 36  1  0
 36 37  1  0
 37  3  2  0
 37  7  1  0
 29 17  1  0
 35 30  1  0
 35 25  1  0
  1 38  1  0
  1 39  1  0
  1 40  1  0
  4 41  1  0
  5 42  1  0
  6 43  1  0
 10 44  1  0
 10 45  1  0
 11 46  1  0
 11 47  1  0
 12 48  1  0
 12 49  1  0
 14 50  1  0
 14 51  1  0
 14 52  1  0
 15 53  1  0
 15 54  1  0
 16 55  1  0
 16 56  1  0
 21 57  1  0
 22 58  1  0
 22 59  1  0
 22 60  1  0
 23 61  1  0
 23 62  1  0
 23 63  1  0
 24 64  1  0
 24 65  1  0
 25 66  1  6
 26 67  1  0
 26 68  1  0
 27 69  1  0
 27 70  1  0
 28 71  1  0
 28 72  1  0
 29 73  1  1
 31 74  1  0
 32 75  1  0
 33 76  1  0
 34 77  1  0
 36 78  1  0
M  END
$$$$
