@<TRIPOS>MOLECULE
*****
 54 55 0 0 0
SMALL
GASTEIGER

@<TRIPOS>ATOM
      1 C          -5.2311    3.8401   -0.1857 C.3     1  UNL1       -0.0395
      2 C          -4.5152    2.5536    0.0462 C.ar    1  UNL1       -0.0455
      3 C          -4.8032    1.7545    1.1466 C.ar    1  UNL1       -0.0376
      4 C          -4.1196    0.5686    1.3316 C.ar    1  UNL1        0.0406
      5 C          -4.4461   -0.2799    2.5275 C.3     1  UNL1       -0.0223
      6 N          -3.1853    0.1718    0.4738 N.ar    1  UNL1       -0.2371
      7 C          -2.8749    0.9081   -0.5990 C.ar    1  UNL1        0.1234
      8 N          -1.8828    0.4630   -1.4894 N.pl3   1  UNL1       -0.2976
      9 C          -1.2343   -0.7875   -1.4299 C.ar    1  UNL1        0.0650
     10 C           0.1461   -0.7958   -1.1611 C.ar    1  UNL1       -0.0159
     11 C           0.8376   -1.9781   -1.0900 C.ar    1  UNL1        0.0473
     12 N           2.2244   -2.0975   -0.8037 N.pl3   1  UNL1       -0.3411
     13 C           3.0765   -0.9458   -0.4731 C.3     1  UNL1        0.0244
     14 C           2.7863   -0.4976    0.9076 C.3     1  UNL1        0.0219
     15 N           3.1034   -1.5179    1.9116 N.3     1  UNL1       -0.3259
     16 C           3.1537    0.8516    1.2764 C.3     1  UNL1       -0.0169
     17 C           4.4980    1.4154    1.2575 C.3     1  UNL1        0.0669
     18 S           5.3884    1.6167   -0.2122 S.O2    1  UNL1       -0.0337
     19 C           6.9668    2.4152    0.2447 C.3     1  UNL1        0.0544
     20 O           5.8128    0.3857   -0.9299 O.2     1  UNL1       -0.1746
     21 O           4.7327    2.6042   -1.1390 O.2     1  UNL1       -0.1746
     22 C           0.0888   -3.1254   -1.2992 C.ar    1  UNL1        0.0494
     23 N          -1.2258   -3.1061   -1.5558 N.ar    1  UNL1       -0.2467
     24 C          -1.9444   -1.9455   -1.6337 C.ar    1  UNL1        0.1463
     25 C          -3.3602   -1.9882   -1.9733 C.2     1  UNL1        0.2617
     26 N          -3.9832   -3.2531   -2.0801 N.am    1  UNL1       -0.3240
     27 O          -4.0880   -0.9923   -2.1829 O.2     1  UNL1       -0.2687
     28 C          -3.5390    2.0963   -0.8115 C.ar    1  UNL1       -0.0186
     29 H          -4.5527    4.6964   -0.1023 H       1  UNL1        0.0278
     30 H          -5.6912    3.8831   -1.2027 H       1  UNL1        0.0278
     31 H          -6.0374    3.9173    0.5801 H       1  UNL1        0.0278
     32 H          -5.5617    2.1147    1.8078 H       1  UNL1        0.0638
     33 H          -3.6856   -0.1857    3.3100 H       1  UNL1        0.0292
     34 H          -5.4174    0.0118    2.9702 H       1  UNL1        0.0292
     35 H          -4.5434   -1.3189    2.1345 H       1  UNL1        0.0292
     36 H          -1.5763    1.1013   -2.2829 H       1  UNL1        0.1536
     37 H           0.6630    0.1430   -1.0256 H       1  UNL1        0.0656
     38 H           2.6748   -3.0312   -0.8208 H       1  UNL1        0.1462
     39 H           2.9768   -0.1180   -1.1782 H       1  UNL1        0.0476
     40 H           4.1122   -1.3704   -0.5755 H       1  UNL1        0.0476
     41 H           1.5995   -0.5668    0.9485 H       1  UNL1        0.0474
     42 H           4.0566   -1.8922    1.8115 H       1  UNL1        0.1185
     43 H           3.0683   -1.0045    2.8337 H       1  UNL1        0.1185
     44 H           2.4512    1.6316    0.7880 H       1  UNL1        0.0296
     45 H           2.7953    0.9818    2.3779 H       1  UNL1        0.0296
     46 H           4.4172    2.4555    1.7298 H       1  UNL1        0.0500
     47 H           5.1654    0.8747    2.0095 H       1  UNL1        0.0500
     48 H           7.6973    2.2452   -0.5697 H       1  UNL1        0.0464
     49 H           6.7930    3.5063    0.3131 H       1  UNL1        0.0464
     50 H           7.2705    2.0325    1.2232 H       1  UNL1        0.0464
     51 H           0.6342   -4.0827   -1.2441 H       1  UNL1        0.0848
     52 H          -4.7463   -3.4103   -2.7546 H       1  UNL1        0.1453
     53 H          -3.6668   -4.0254   -1.4738 H       1  UNL1        0.1453
     54 H          -3.2787    2.6806   -1.6816 H       1  UNL1        0.0654
@<TRIPOS>BOND
     1     1     2    1
     2     2     3   ar
     3     3     4   ar
     4     4     5    1
     5     4     6   ar
     6     6     7   ar
     7     7     8    1
     8     8     9    1
     9     9    10   ar
    10    10    11   ar
    11    11    12    1
    12    12    13    1
    13    13    14    1
    14    14    15    1
    15    14    16    1
    16    16    17    1
    17    17    18    1
    18    18    19    1
    19    18    20    2
    20    18    21    2
    21    11    22   ar
    22    22    23   ar
    23    23    24   ar
    24    24    25    1
    25    25    26   am
    26    25    27    2
    27     7    28   ar
    28    28     2   ar
    29    24     9   ar
    30     1    29    1
    31     1    30    1
    32     1    31    1
    33     3    32    1
    34     5    33    1
    35     5    34    1
    36     5    35    1
    37     8    36    1
    38    10    37    1
    39    12    38    1
    40    13    39    1
    41    13    40    1
    42    14    41    1
    43    15    42    1
    44    15    43    1
    45    16    44    1
    46    16    45    1
    47    17    46    1
    48    17    47    1
    49    19    48    1
    50    19    49    1
    51    19    50    1
    52    22    51    1
    53    26    52    1
    54    26    53    1
    55    28    54    1
