
     RDKit          3D

 60 63  0  0  0  0  0  0  0  0999 V2000
    0.6503    2.1111   -3.3922 O   0  0  0  0  0  0  0  0  0  0  0  0
    0.3731    1.3377   -2.4678 C   0  0  0  0  0  0  0  0  0  0  0  0
    1.2152    0.2735   -2.2218 O   0  0  0  0  0  0  0  0  0  0  0  0
    2.3906   -0.0229   -2.9410 C   0  0  2  0  0  0  0  0  0  0  0  0
    2.2056   -1.3979   -3.5429 C   0  0  0  0  0  0  0  0  0  0  0  0
    3.3885   -2.2370   -3.1117 C   0  0  0  0  0  0  0  0  0  0  0  0
    4.3981   -1.2164   -2.6269 C   0  0  0  0  0  0  0  0  0  0  0  0
    3.5319   -0.1722   -1.9696 C   0  0  2  0  0  0  0  0  0  0  0  0
    2.9511   -0.6064   -0.6581 C   0  0  0  0  0  0  0  0  0  0  0  0
    4.0269   -0.7741    0.3543 C   0  0  0  0  0  0  0  0  0  0  0  0
    4.4476    0.2669    1.1564 C   0  0  0  0  0  0  0  0  0  0  0  0
    5.4435    0.1095    2.0972 C   0  0  0  0  0  0  0  0  0  0  0  0
    5.9961   -1.1513    2.1898 C   0  0  0  0  0  0  0  0  0  0  0  0
    7.0032   -1.3159    3.1386 O   0  0  0  0  0  0  0  0  0  0  0  0
    5.6021   -2.2072    1.4089 C   0  0  0  0  0  0  0  0  0  0  0  0
    4.6085   -2.0147    0.4836 C   0  0  0  0  0  0  0  0  0  0  0  0
   -0.8144    1.4970   -1.6139 C   0  0  0  0  0  0  0  0  0  0  0  0
   -1.7181    2.5342   -1.7766 C   0  0  0  0  0  0  0  0  0  0  0  0
   -2.8219    2.6677   -0.9699 C   0  0  0  0  0  0  0  0  0  0  0  0
   -3.7390    3.7106   -1.1267 O   0  0  0  0  0  0  0  0  0  0  0  0
   -3.0786    1.7625    0.0483 C   0  0  0  0  0  0  0  0  0  0  0  0
   -4.1666    1.9521    0.9805 C   0  0  0  0  0  0  0  0  0  0  0  0
   -4.5318    3.1953    1.0927 O   0  0  0  0  0  0  0  0  0  0  0  0
   -4.8844    1.0385    1.7869 C   0  0  0  0  0  0  0  0  0  0  0  0
   -5.2453    1.4511    3.0956 C   0  0  0  0  0  0  0  0  0  0  0  0
   -4.8429    2.6955    3.5008 O   0  0  0  0  0  0  0  0  0  0  0  0
   -5.9645    0.6753    3.9554 C   0  0  0  0  0  0  0  0  0  0  0  0
   -6.3680   -0.5633    3.5583 C   0  0  0  0  0  0  0  0  0  0  0  0
   -6.0388   -0.9866    2.3026 C   0  0  0  0  0  0  0  0  0  0  0  0
   -5.3002   -0.1916    1.4075 C   0  0  0  0  0  0  0  0  0  0  0  0
   -5.2101   -0.6766    0.0532 C   0  0  0  0  0  0  0  0  0  0  0  0
   -4.8435   -0.0005   -0.8964 O   0  0  0  0  0  0  0  0  0  0  0  0
   -5.5578   -2.0108   -0.2358 O   0  0  0  0  0  0  0  0  0  0  0  0
   -2.1874    0.7061    0.2404 C   0  0  0  0  0  0  0  0  0  0  0  0
   -2.3764   -0.2518    1.2581 O   0  0  0  0  0  0  0  0  0  0  0  0
   -1.0997    0.6205   -0.5962 C   0  0  0  0  0  0  0  0  0  0  0  0
    2.6067    0.6816   -3.7549 H   0  0  0  0  0  0  0  0  0  0  0  0
    1.2742   -1.9011   -3.1788 H   0  0  0  0  0  0  0  0  0  0  0  0
    2.1092   -1.3574   -4.6463 H   0  0  0  0  0  0  0  0  0  0  0  0
    3.7525   -2.8060   -3.9943 H   0  0  0  0  0  0  0  0  0  0  0  0
    3.1189   -2.9576   -2.3107 H   0  0  0  0  0  0  0  0  0  0  0  0
    4.8554   -0.7361   -3.5195 H   0  0  0  0  0  0  0  0  0  0  0  0
    5.1896   -1.6223   -2.0006 H   0  0  0  0  0  0  0  0  0  0  0  0
    4.0456    0.8101   -1.8955 H   0  0  0  0  0  0  0  0  0  0  0  0
    2.4021   -1.5491   -0.8101 H   0  0  0  0  0  0  0  0  0  0  0  0
    2.2164    0.1619   -0.3492 H   0  0  0  0  0  0  0  0  0  0  0  0
    3.9800    1.2471    1.0469 H   0  0  0  0  0  0  0  0  0  0  0  0
    5.7686    0.9402    2.7262 H   0  0  0  0  0  0  0  0  0  0  0  0
    7.8511   -0.7305    3.1109 H   0  0  0  0  0  0  0  0  0  0  0  0
    6.0625   -3.1942    1.5096 H   0  0  0  0  0  0  0  0  0  0  0  0
    4.2605   -2.8334   -0.1620 H   0  0  0  0  0  0  0  0  0  0  0  0
   -1.5498    3.2712   -2.5718 H   0  0  0  0  0  0  0  0  0  0  0  0
   -3.3770    4.6703   -1.1681 H   0  0  0  0  0  0  0  0  0  0  0  0
   -4.1734    2.9209    4.2134 H   0  0  0  0  0  0  0  0  0  0  0  0
   -6.2105    1.0566    4.9572 H   0  0  0  0  0  0  0  0  0  0  0  0
   -6.9369   -1.1622    4.2637 H   0  0  0  0  0  0  0  0  0  0  0  0
   -6.3590   -1.9614    1.9985 H   0  0  0  0  0  0  0  0  0  0  0  0
   -5.6459   -2.3230   -1.2036 H   0  0  0  0  0  0  0  0  0  0  0  0
   -2.2699   -1.2317    1.0852 H   0  0  0  0  0  0  0  0  0  0  0  0
   -0.4140   -0.2019   -0.4413 H   0  0  0  0  0  0  0  0  0  0  0  0
  1  2  2  0
  2  3  1  0
  3  4  1  0
  4  5  1  0
  5  6  1  0
  6  7  1  0
  7  8  1  0
  8  9  1  0
  9 10  1  0
 10 11  2  0
 11 12  1  0
 12 13  2  0
 13 14  1  0
 13 15  1  0
 15 16  2  0
  2 17  1  0
 17 18  2  0
 18 19  1  0
 19 20  1  0
 19 21  2  0
 21 22  1  0
 22 23  2  0
 22 24  1  0
 24 25  2  0
 25 26  1  0
 25 27  1  0
 27 28  2  0
 28 29  1  0
 29 30  2  0
 30 31  1  0
 31 32  2  0
 31 33  1  0
 21 34  1  0
 34 35  1  0
 34 36  2  0
  8  4  1  0
 16 10  1  0
 36 17  1  0
 30 24  1  0
  4 37  1  6
  5 38  1  0
  5 39  1  0
  6 40  1  0
  6 41  1  0
  7 42  1  0
  7 43  1  0
  8 44  1  1
  9 45  1  0
  9 46  1  0
 11 47  1  0
 12 48  1  0
 14 49  1  0
 15 50  1  0
 16 51  1  0
 18 52  1  0
 20 53  1  0
 26 54  1  0
 27 55  1  0
 28 56  1  0
 29 57  1  0
 33 58  1  0
 35 59  1  0
 36 60  1  0
M  END
$$$$
