@<TRIPOS>MOLECULE
*****
 60 63 0 0 0
SMALL
GASTEIGER

@<TRIPOS>ATOM
      1 O           0.6503    2.1111   -3.3922 O.2     1  UNL1       -0.2449
      2 C           0.3731    1.3377   -2.4678 C.2     1  UNL1        0.3397
      3 O           1.2152    0.2735   -2.2218 O.3     1  UNL1       -0.4576
      4 C           2.3906   -0.0229   -2.9410 C.3     1  UNL1        0.1065
      5 C           2.2056   -1.3979   -3.5429 C.3     1  UNL1       -0.0154
      6 C           3.3885   -2.2370   -3.1117 C.3     1  UNL1       -0.0493
      7 C           4.3981   -1.2164   -2.6269 C.3     1  UNL1       -0.0464
      8 C           3.5319   -0.1722   -1.9696 C.3     1  UNL1        0.0001
      9 C           2.9511   -0.6064   -0.6581 C.3     1  UNL1       -0.0215
     10 C           4.0269   -0.7741    0.3543 C.ar    1  UNL1       -0.0468
     11 C           4.4476    0.2669    1.1564 C.ar    1  UNL1       -0.0551
     12 C           5.4435    0.1095    2.0972 C.ar    1  UNL1       -0.0199
     13 C           5.9961   -1.1513    2.1898 C.ar    1  UNL1        0.1169
     14 O           7.0032   -1.3159    3.1386 O.3     1  UNL1       -0.5068
     15 C           5.6021   -2.2072    1.4089 C.ar    1  UNL1       -0.0199
     16 C           4.6085   -2.0147    0.4836 C.ar    1  UNL1       -0.0551
     17 C          -0.8144    1.4970   -1.6139 C.ar    1  UNL1        0.0659
     18 C          -1.7181    2.5342   -1.7766 C.ar    1  UNL1       -0.0053
     19 C          -2.8219    2.6677   -0.9699 C.ar    1  UNL1        0.1320
     20 O          -3.7390    3.7106   -1.1267 O.3     1  UNL1       -0.5059
     21 C          -3.0786    1.7625    0.0483 C.ar    1  UNL1        0.1050
     22 C          -4.1666    1.9521    0.9805 C.2     1  UNL1        0.2044
     23 O          -4.5318    3.1953    1.0927 O.2     1  UNL1       -0.2863
     24 C          -4.8844    1.0385    1.7869 C.ar    1  UNL1        0.0778
     25 C          -5.2453    1.4511    3.0956 C.ar    1  UNL1        0.1285
     26 O          -4.8429    2.6955    3.5008 O.3     1  UNL1       -0.5060
     27 C          -5.9645    0.6753    3.9554 C.ar    1  UNL1       -0.0194
     28 C          -6.3680   -0.5633    3.5583 C.ar    1  UNL1       -0.0575
     29 C          -6.0388   -0.9866    2.3026 C.ar    1  UNL1       -0.0468
     30 C          -5.3002   -0.1916    1.4075 C.ar    1  UNL1        0.0731
     31 C          -5.2101   -0.6766    0.0532 C.2     1  UNL1        0.3376
     32 O          -4.8435   -0.0005   -0.8964 O.2     1  UNL1       -0.2451
     33 O          -5.5578   -2.0108   -0.2358 O.3     1  UNL1       -0.4771
     34 C          -2.1874    0.7061    0.2404 C.ar    1  UNL1        0.1320
     35 O          -2.3764   -0.2518    1.2581 O.3     1  UNL1       -0.5059
     36 C          -1.0997    0.6205   -0.5962 C.ar    1  UNL1       -0.0053
     37 H           2.6067    0.6816   -3.7549 H       1  UNL1        0.0737
     38 H           1.2742   -1.9011   -3.1788 H       1  UNL1        0.0301
     39 H           2.1092   -1.3574   -4.6463 H       1  UNL1        0.0301
     40 H           3.7525   -2.8060   -3.9943 H       1  UNL1        0.0267
     41 H           3.1189   -2.9576   -2.3107 H       1  UNL1        0.0267
     42 H           4.8554   -0.7361   -3.5195 H       1  UNL1        0.0269
     43 H           5.1896   -1.6223   -2.0006 H       1  UNL1        0.0269
     44 H           4.0456    0.8101   -1.8955 H       1  UNL1        0.0340
     45 H           2.4021   -1.5491   -0.8101 H       1  UNL1        0.0317
     46 H           2.2164    0.1619   -0.3492 H       1  UNL1        0.0317
     47 H           3.9800    1.2471    1.0469 H       1  UNL1        0.0621
     48 H           5.7686    0.9402    2.7262 H       1  UNL1        0.0654
     49 H           7.8511   -0.7305    3.1109 H       1  UNL1        0.2921
     50 H           6.0625   -3.1942    1.5096 H       1  UNL1        0.0654
     51 H           4.2605   -2.8334   -0.1620 H       1  UNL1        0.0621
     52 H          -1.5498    3.2712   -2.5718 H       1  UNL1        0.0662
     53 H          -3.3770    4.6703   -1.1681 H       1  UNL1        0.2922
     54 H          -4.1734    2.9209    4.2134 H       1  UNL1        0.2922
     55 H          -6.2105    1.0566    4.9572 H       1  UNL1        0.0654
     56 H          -6.9369   -1.1622    4.2637 H       1  UNL1        0.0619
     57 H          -6.3590   -1.9614    1.9985 H       1  UNL1        0.0626
     58 H          -5.6459   -2.3230   -1.2036 H       1  UNL1        0.2954
     59 H          -2.2699   -1.2317    1.0852 H       1  UNL1        0.2922
     60 H          -0.4140   -0.2019   -0.4413 H       1  UNL1        0.0662
@<TRIPOS>BOND
     1     1     2    2
     2     2     3    1
     3     3     4    1
     4     4     5    1
     5     5     6    1
     6     6     7    1
     7     7     8    1
     8     8     9    1
     9     9    10    1
    10    10    11   ar
    11    11    12   ar
    12    12    13   ar
    13    13    14    1
    14    13    15   ar
    15    15    16   ar
    16     2    17    1
    17    17    18   ar
    18    18    19   ar
    19    19    20    1
    20    19    21   ar
    21    21    22    1
    22    22    23    2
    23    22    24    1
    24    24    25   ar
    25    25    26    1
    26    25    27   ar
    27    27    28   ar
    28    28    29   ar
    29    29    30   ar
    30    30    31    1
    31    31    32    2
    32    31    33    1
    33    21    34   ar
    34    34    35    1
    35    34    36   ar
    36     8     4    1
    37    16    10   ar
    38    36    17   ar
    39    30    24   ar
    40     4    37    1
    41     5    38    1
    42     5    39    1
    43     6    40    1
    44     6    41    1
    45     7    42    1
    46     7    43    1
    47     8    44    1
    48     9    45    1
    49     9    46    1
    50    11    47    1
    51    12    48    1
    52    14    49    1
    53    15    50    1
    54    16    51    1
    55    18    52    1
    56    20    53    1
    57    26    54    1
    58    27    55    1
    59    28    56    1
    60    29    57    1
    61    33    58    1
    62    35    59    1
    63    36    60    1
