
     RDKit          3D

 28 28  0  0  0  0  0  0  0  0999 V2000
   -2.1277   -0.6066    0.9058 C   0  0  2  0  0  0  0  0  0  0  0  0
   -3.2536   -0.7302    0.0635 O   0  0  0  0  0  0  0  0  0  0  0  0
   -1.7461    0.6639    0.9299 O   0  0  0  0  0  0  0  0  0  0  0  0
   -0.4939    1.0826    0.6719 C   0  0  2  0  0  0  0  0  0  0  0  0
   -0.6292    2.2447   -0.2966 C   0  0  0  0  0  0  0  0  0  0  0  0
    0.5718    2.7969   -0.6684 O   0  0  0  0  0  0  0  0  0  0  0  0
    0.5064    0.1012    0.2154 C   0  0  2  0  0  0  0  0  0  0  0  0
    1.3452    0.6884   -0.7151 O   0  0  0  0  0  0  0  0  0  0  0  0
    2.9577    0.6542   -0.3076 S   0  0  0  0  0  0  0  0  0  0  0  0
    3.2963   -0.2630    1.0316 O   0  0  0  0  0  0  0  0  0  0  0  0
    3.5154    2.0291   -0.0721 O   0  0  0  0  0  0  0  0  0  0  0  0
    3.7059    0.1177   -1.5187 O   0  0  0  0  0  0  0  0  0  0  0  0
   -0.0584   -1.1466   -0.4097 C   0  0  2  0  0  0  0  0  0  0  0  0
   -0.5304   -0.9443   -1.6839 O   0  0  0  0  0  0  0  0  0  0  0  0
   -1.1469   -1.6459    0.4900 C   0  0  1  0  0  0  0  0  0  0  0  0
   -0.5561   -2.2021    1.6433 O   0  0  0  0  0  0  0  0  0  0  0  0
   -2.5191   -0.8865    1.9140 H   0  0  0  0  0  0  0  0  0  0  0  0
   -3.5279   -1.6799   -0.0295 H   0  0  0  0  0  0  0  0  0  0  0  0
   -0.0944    1.5410    1.6236 H   0  0  0  0  0  0  0  0  0  0  0  0
   -1.2634    1.9586   -1.1739 H   0  0  0  0  0  0  0  0  0  0  0  0
   -1.2323    3.0120    0.2629 H   0  0  0  0  0  0  0  0  0  0  0  0
    0.7471    3.6733   -0.2002 H   0  0  0  0  0  0  0  0  0  0  0  0
    1.1855   -0.2602    1.0425 H   0  0  0  0  0  0  0  0  0  0  0  0
    4.0684   -0.8490    0.8210 H   0  0  0  0  0  0  0  0  0  0  0  0
    0.7250   -1.9416   -0.4214 H   0  0  0  0  0  0  0  0  0  0  0  0
   -0.8541   -1.8465   -1.9974 H   0  0  0  0  0  0  0  0  0  0  0  0
   -1.6443   -2.4943   -0.0273 H   0  0  0  0  0  0  0  0  0  0  0  0
   -0.9468   -3.0669    1.8839 H   0  0  0  0  0  0  0  0  0  0  0  0
  1  2  1  0
  1  3  1  0
  3  4  1  0
  4  5  1  0
  5  6  1  0
  4  7  1  0
  7  8  1  0
  8  9  1  0
  9 10  1  0
  9 11  2  0
  9 12  2  0
  7 13  1  0
 13 14  1  0
 13 15  1  0
 15 16  1  0
 15  1  1  0
  1 17  1  1
  2 18  1  0
  4 19  1  1
  5 20  1  0
  5 21  1  0
  6 22  1  0
  7 23  1  1
 10 24  1  0
 13 25  1  6
 14 26  1  0
 15 27  1  6
 16 28  1  0
M  END
$$$$
