@<TRIPOS>MOLECULE
*****
 28 28 0 0 0
SMALL
GASTEIGER

@<TRIPOS>ATOM
      1 C          -2.1277   -0.6066    0.9058 C.3     1  UNL1        0.1854
      2 O          -3.2536   -0.7302    0.0635 O.3     1  UNL1       -0.3649
      3 O          -1.7461    0.6639    0.9299 O.3     1  UNL1       -0.3406
      4 C          -0.4939    1.0826    0.6719 C.3     1  UNL1        0.1156
      5 C          -0.6292    2.2447   -0.2966 C.3     1  UNL1        0.0731
      6 O           0.5718    2.7969   -0.6684 O.3     1  UNL1       -0.3924
      7 C           0.5064    0.1012    0.2154 C.3     1  UNL1        0.1462
      8 O           1.3452    0.6884   -0.7151 O.3     1  UNL1       -0.2071
      9 S           2.9577    0.6542   -0.3076 S.O2    1  UNL1        0.2079
     10 O           3.2963   -0.2630    1.0316 O.3     1  UNL1       -0.2311
     11 O           3.5154    2.0291   -0.0721 O.2     1  UNL1       -0.1181
     12 O           3.7059    0.1177   -1.5187 O.2     1  UNL1       -0.1181
     13 C          -0.0584   -1.1466   -0.4097 C.3     1  UNL1        0.1167
     14 O          -0.5304   -0.9443   -1.6839 O.3     1  UNL1       -0.3863
     15 C          -1.1469   -1.6459    0.4900 C.3     1  UNL1        0.1340
     16 O          -0.5561   -2.2021    1.6433 O.3     1  UNL1       -0.3841
     17 H          -2.5191   -0.8865    1.9140 H       1  UNL1        0.0935
     18 H          -3.5279   -1.6799   -0.0295 H       1  UNL1        0.2126
     19 H          -0.0944    1.5410    1.6236 H       1  UNL1        0.0648
     20 H          -1.2634    1.9586   -1.1739 H       1  UNL1        0.0584
     21 H          -1.2323    3.0120    0.2629 H       1  UNL1        0.0584
     22 H           0.7471    3.6733   -0.2002 H       1  UNL1        0.2095
     23 H           1.1855   -0.2602    1.0425 H       1  UNL1        0.0675
     24 H           4.0684   -0.8490    0.8210 H       1  UNL1        0.2469
     25 H           0.7250   -1.9416   -0.4214 H       1  UNL1        0.0648
     26 H          -0.8541   -1.8465   -1.9974 H       1  UNL1        0.2100
     27 H          -1.6443   -2.4943   -0.0273 H       1  UNL1        0.0671
     28 H          -0.9468   -3.0669    1.8839 H       1  UNL1        0.2101
@<TRIPOS>BOND
     1     1     2    1
     2     1     3    1
     3     3     4    1
     4     4     5    1
     5     5     6    1
     6     4     7    1
     7     7     8    1
     8     8     9    1
     9     9    10    1
    10     9    11    2
    11     9    12    2
    12     7    13    1
    13    13    14    1
    14    13    15    1
    15    15    16    1
    16    15     1    1
    17     1    17    1
    18     2    18    1
    19     4    19    1
    20     5    20    1
    21     5    21    1
    22     6    22    1
    23     7    23    1
    24    10    24    1
    25    13    25    1
    26    14    26    1
    27    15    27    1
    28    16    28    1
