@<TRIPOS>MOLECULE
*****
 27 28 0 0 0
SMALL
GASTEIGER

@<TRIPOS>ATOM
      1 F          -5.9005   -1.2720   -0.6819 F       1  UNL1       -0.2055
      2 C          -4.6752   -0.7063   -0.7098 C.ar    1  UNL1        0.1241
      3 C          -3.6646   -1.2757    0.0384 C.ar    1  UNL1       -0.0173
      4 C          -2.4053   -0.7186    0.0279 C.ar    1  UNL1        0.0031
      5 C          -2.1016    0.4104   -0.7150 C.ar    1  UNL1        0.0472
      6 N          -0.8030    0.6883   -0.5050 N.ar    1  UNL1       -0.3506
      7 C          -0.2407   -0.1993    0.3361 C.ar    1  UNL1        0.1028
      8 C          -1.2500   -1.0832    0.6701 C.ar    1  UNL1       -0.0241
      9 C           1.1440   -0.2533    0.8208 C.2     1  UNL1        0.2604
     10 O           1.4866   -1.1769    1.6182 O.2     1  UNL1       -0.2686
     11 N           2.0707    0.7272    0.3886 N.am    1  UNL1       -0.3094
     12 C           3.4567    0.7424    0.8222 C.3     1  UNL1        0.0207
     13 C           4.1673   -0.5298    0.4294 C.3     1  UNL1        0.0063
     14 S           5.9009   -0.5087    0.9729 S.3     1  UNL1       -0.1767
     15 C          -3.1058    0.9958   -1.4730 C.ar    1  UNL1       -0.0351
     16 C          -4.3796    0.4178   -1.4517 C.ar    1  UNL1       -0.0245
     17 H          -3.8584   -2.1669    0.6396 H       1  UNL1        0.0653
     18 H          -0.3184    1.5031   -0.9560 H       1  UNL1        0.1660
     19 H          -1.1311   -1.9274    1.3367 H       1  UNL1        0.0646
     20 H           1.7061    1.4690   -0.2805 H       1  UNL1        0.1491
     21 H           3.4899    0.8816    1.9239 H       1  UNL1        0.0470
     22 H           3.9643    1.5944    0.3444 H       1  UNL1        0.0470
     23 H           4.1378   -0.5675   -0.6872 H       1  UNL1        0.0389
     24 H           3.7016   -1.3993    0.9052 H       1  UNL1        0.0389
     25 H           6.6849    0.4068    0.2854 H       1  UNL1        0.1017
     26 H          -2.9002    1.8747   -2.0614 H       1  UNL1        0.0639
     27 H          -5.1761    0.8626   -2.0384 H       1  UNL1        0.0647
@<TRIPOS>BOND
     1     1     2    1
     2     2     3   ar
     3     3     4   ar
     4     4     5   ar
     5     5     6   ar
     6     6     7   ar
     7     7     8   ar
     8     7     9    1
     9     9    10    2
    10     9    11   am
    11    11    12    1
    12    12    13    1
    13    13    14    1
    14     5    15   ar
    15    15    16   ar
    16    16     2   ar
    17     8     4   ar
    18     3    17    1
    19     6    18    1
    20     8    19    1
    21    11    20    1
    22    12    21    1
    23    12    22    1
    24    13    23    1
    25    13    24    1
    26    14    25    1
    27    15    26    1
    28    16    27    1
