@<TRIPOS>MOLECULE
*****
 92 97 0 0 0
SMALL
GASTEIGER

@<TRIPOS>ATOM
      1 C          11.2620   -0.1031    3.4220 C.3     1  UNL1        0.0365
      2 O          11.3595    0.0678    2.0454 O.3     1  UNL1       -0.3814
      3 C          11.3395   -1.1722    1.4053 C.3     1  UNL1        0.0628
      4 C          11.4476   -0.9344   -0.0814 C.3     1  UNL1        0.0353
      5 N          10.3320   -0.1289   -0.5061 N.am    1  UNL1       -0.3092
      6 C           8.9854   -0.5208   -0.3992 C.2     1  UNL1        0.2443
      7 O           8.7224   -1.6480    0.0907 O.2     1  UNL1       -0.2702
      8 C           7.8808    0.3363   -0.8380 C.ar    1  UNL1        0.0419
      9 C           6.5709   -0.1643   -0.7584 C.ar    1  UNL1       -0.0281
     10 C           5.4920    0.5550   -1.1323 C.ar    1  UNL1        0.0378
     11 N           4.1678    0.0837   -1.0923 N.pl3   1  UNL1       -0.2834
     12 C           3.7373   -1.2556   -0.9699 C.ar    1  UNL1        0.2226
     13 N           4.5841   -2.2740   -0.9404 N.ar    1  UNL1       -0.2225
     14 C           4.1897   -3.5369   -0.8302 C.ar    1  UNL1        0.0362
     15 C           2.8211   -3.7972   -0.7418 C.ar    1  UNL1        0.0186
     16 C           1.9331   -2.7385   -0.7717 C.ar    1  UNL1        0.2249
     17 O           0.5814   -3.0557   -0.6795 O.3     1  UNL1       -0.4373
     18 C          -0.4424   -2.1292   -0.6499 C.ar    1  UNL1        0.1381
     19 C          -1.3782   -2.0425   -1.6648 C.ar    1  UNL1       -0.0169
     20 C          -2.3897   -1.1121   -1.6182 C.ar    1  UNL1       -0.0363
     21 C          -2.5153   -0.2361   -0.5723 C.ar    1  UNL1        0.0427
     22 N          -3.5362    0.7469   -0.4725 N.am    1  UNL1       -0.2686
     23 C          -4.7671    0.4183    0.1601 C.2     1  UNL1        0.3092
     24 O          -4.9031   -0.7512    0.6076 O.2     1  UNL1       -0.2521
     25 N          -5.8279    1.3533    0.2996 N.am    1  UNL1       -0.2538
     26 C          -7.0489    1.0181    0.9256 C.ar    1  UNL1        0.1299
     27 C          -7.4061    1.1020    2.2544 C.ar    1  UNL1        0.0018
     28 C          -8.7046    0.6642    2.3710 C.ar    1  UNL1        0.0679
     29 C          -9.5336    0.5652    3.6169 C.3     1  UNL1       -0.0025
     30 C          -8.9159   -0.4508    4.5550 C.3     1  UNL1       -0.0572
     31 C          -9.5979    1.9352    4.2545 C.3     1  UNL1       -0.0572
     32 N          -9.0966    0.3296    1.1223 N.ar    1  UNL1       -0.1694
     33 N          -8.1198    0.5359    0.2544 N.ar    1  UNL1       -0.2181
     34 C          -8.1825    0.2918   -1.1542 C.ar    1  UNL1        0.0674
     35 C          -7.9655    1.3014   -2.0677 C.ar    1  UNL1       -0.0359
     36 C          -8.0301    1.0523   -3.4316 C.ar    1  UNL1       -0.0568
     37 C          -8.3113   -0.2027   -3.9304 C.ar    1  UNL1       -0.0503
     38 C          -8.3740   -0.4387   -5.4029 C.3     1  UNL1       -0.0397
     39 C          -8.5289   -1.2155   -3.0197 C.ar    1  UNL1       -0.0568
     40 C          -8.4633   -0.9619   -1.6545 C.ar    1  UNL1       -0.0359
     41 C          -1.5867   -0.3074    0.4581 C.ar    1  UNL1        0.0069
     42 C          -1.6954    0.5595    1.5435 C.ar    1  UNL1       -0.0521
     43 C          -0.7825    0.4705    2.5634 C.ar    1  UNL1       -0.0611
     44 C           0.2306   -0.4584    2.5264 C.ar    1  UNL1       -0.0611
     45 C           0.3483   -1.3211    1.4576 C.ar    1  UNL1       -0.0505
     46 C          -0.5724   -1.2425    0.4094 C.ar    1  UNL1        0.0262
     47 N           2.4280   -1.5210   -0.8839 N.ar    1  UNL1       -0.1789
     48 C           5.6972    1.8540   -1.6178 C.ar    1  UNL1        0.0013
     49 C           6.9669    2.3728   -1.7079 C.ar    1  UNL1        0.1226
     50 O           7.1110    3.6584   -2.1935 O.3     1  UNL1       -0.4950
     51 C           8.3127    4.3488   -2.3561 C.3     1  UNL1        0.0788
     52 C           8.0480    1.5940   -1.3113 C.ar    1  UNL1       -0.0077
     53 H          12.1257   -0.7151    3.7634 H       1  UNL1        0.0523
     54 H          11.1964    0.8627    3.9316 H       1  UNL1        0.0523
     55 H          10.3562   -0.7122    3.6503 H       1  UNL1        0.0523
     56 H          12.2283   -1.7261    1.7841 H       1  UNL1        0.0575
     57 H          10.3958   -1.6665    1.6264 H       1  UNL1        0.0575
     58 H          11.4720   -1.9013   -0.6363 H       1  UNL1        0.0485
     59 H          12.4172   -0.4070   -0.3008 H       1  UNL1        0.0485
     60 H          10.5501    0.8062   -0.9199 H       1  UNL1        0.1491
     61 H           6.4470   -1.1643   -0.3700 H       1  UNL1        0.0644
     62 H           3.3958    0.8410   -1.1601 H       1  UNL1        0.1550
     63 H           4.9116   -4.3368   -0.8101 H       1  UNL1        0.0832
     64 H           2.5259   -4.8321   -0.6531 H       1  UNL1        0.0686
     65 H          -1.3090   -2.7199   -2.5066 H       1  UNL1        0.0655
     66 H          -3.1347   -1.0431   -2.4268 H       1  UNL1        0.0637
     67 H          -3.3928    1.7200   -0.8624 H       1  UNL1        0.1564
     68 H          -5.6695    2.3213   -0.0893 H       1  UNL1        0.1578
     69 H          -6.7603    1.4545    3.0498 H       1  UNL1        0.0671
     70 H         -10.5726    0.2632    3.3712 H       1  UNL1        0.0359
     71 H          -9.2315   -1.4570    4.1640 H       1  UNL1        0.0236
     72 H          -7.8287   -0.3945    4.5645 H       1  UNL1        0.0236
     73 H          -9.3873   -0.3425    5.5555 H       1  UNL1        0.0236
     74 H         -10.0228    1.8980    5.2770 H       1  UNL1        0.0236
     75 H          -8.6025    2.4239    4.3279 H       1  UNL1        0.0236
     76 H         -10.2597    2.5869    3.6515 H       1  UNL1        0.0236
     77 H          -7.7448    2.2849   -1.6644 H       1  UNL1        0.0639
     78 H          -7.8566    1.8582   -4.1471 H       1  UNL1        0.0621
     79 H          -8.7539    0.4365   -5.9572 H       1  UNL1        0.0278
     80 H          -7.3909   -0.7087   -5.8301 H       1  UNL1        0.0278
     81 H          -9.0673   -1.2814   -5.6542 H       1  UNL1        0.0278
     82 H          -8.7483   -2.1955   -3.4220 H       1  UNL1        0.0621
     83 H          -8.6369   -1.7699   -0.9588 H       1  UNL1        0.0639
     84 H          -2.5076    1.2767    1.5361 H       1  UNL1        0.0624
     85 H          -0.8523    1.1337    3.4102 H       1  UNL1        0.0618
     86 H           0.9661   -0.5416    3.3329 H       1  UNL1        0.0618
     87 H           1.1374   -2.0767    1.4258 H       1  UNL1        0.0625
     88 H           4.8601    2.4813   -1.9343 H       1  UNL1        0.0673
     89 H           9.2021    3.7364   -2.5081 H       1  UNL1        0.0660
     90 H           8.4127    5.0491   -1.4762 H       1  UNL1        0.0660
     91 H           8.2317    5.0214   -3.2358 H       1  UNL1        0.0660
     92 H           9.0244    2.0419   -1.3992 H       1  UNL1        0.0662
@<TRIPOS>BOND
     1     1     2    1
     2     2     3    1
     3     3     4    1
     4     4     5    1
     5     5     6   am
     6     6     7    2
     7     6     8    1
     8     8     9   ar
     9     9    10   ar
    10    10    11    1
    11    11    12    1
    12    12    13   ar
    13    13    14   ar
    14    14    15   ar
    15    15    16   ar
    16    16    17    1
    17    17    18    1
    18    18    19   ar
    19    19    20   ar
    20    20    21   ar
    21    21    22    1
    22    22    23   am
    23    23    24    2
    24    23    25   am
    25    25    26    1
    26    26    27   ar
    27    27    28   ar
    28    28    29    1
    29    29    30    1
    30    29    31    1
    31    28    32   ar
    32    32    33   ar
    33    33    34    1
    34    34    35   ar
    35    35    36   ar
    36    36    37   ar
    37    37    38    1
    38    37    39   ar
    39    39    40   ar
    40    21    41   ar
    41    41    42   ar
    42    42    43   ar
    43    43    44   ar
    44    44    45   ar
    45    45    46   ar
    46    16    47   ar
    47    10    48   ar
    48    48    49   ar
    49    49    50    1
    50    50    51    1
    51    49    52   ar
    52    52     8   ar
    53    47    12   ar
    54    46    18   ar
    55    33    26   ar
    56    40    34   ar
    57    46    41   ar
    58     1    53    1
    59     1    54    1
    60     1    55    1
    61     3    56    1
    62     3    57    1
    63     4    58    1
    64     4    59    1
    65     5    60    1
    66     9    61    1
    67    11    62    1
    68    14    63    1
    69    15    64    1
    70    19    65    1
    71    20    66    1
    72    22    67    1
    73    25    68    1
    74    27    69    1
    75    29    70    1
    76    30    71    1
    77    30    72    1
    78    30    73    1
    79    31    74    1
    80    31    75    1
    81    31    76    1
    82    35    77    1
    83    36    78    1
    84    38    79    1
    85    38    80    1
    86    38    81    1
    87    39    82    1
    88    40    83    1
    89    42    84    1
    90    43    85    1
    91    44    86    1
    92    45    87    1
    93    48    88    1
    94    51    89    1
    95    51    90    1
    96    51    91    1
    97    52    92    1
