
     RDKit          3D

 92 97  0  0  0  0  0  0  0  0999 V2000
   11.2620   -0.1031    3.4220 C   0  0  0  0  0  0  0  0  0  0  0  0
   11.3595    0.0678    2.0454 O   0  0  0  0  0  0  0  0  0  0  0  0
   11.3395   -1.1722    1.4053 C   0  0  0  0  0  0  0  0  0  0  0  0
   11.4476   -0.9344   -0.0814 C   0  0  0  0  0  0  0  0  0  0  0  0
   10.3320   -0.1289   -0.5061 N   0  0  0  0  0  0  0  0  0  0  0  0
    8.9854   -0.5208   -0.3992 C   0  0  0  0  0  0  0  0  0  0  0  0
    8.7224   -1.6480    0.0907 O   0  0  0  0  0  0  0  0  0  0  0  0
    7.8808    0.3363   -0.8380 C   0  0  0  0  0  0  0  0  0  0  0  0
    6.5709   -0.1643   -0.7584 C   0  0  0  0  0  0  0  0  0  0  0  0
    5.4920    0.5550   -1.1323 C   0  0  0  0  0  0  0  0  0  0  0  0
    4.1678    0.0837   -1.0923 N   0  0  0  0  0  0  0  0  0  0  0  0
    3.7373   -1.2556   -0.9699 C   0  0  0  0  0  0  0  0  0  0  0  0
    4.5841   -2.2740   -0.9404 N   0  0  0  0  0  0  0  0  0  0  0  0
    4.1897   -3.5369   -0.8302 C   0  0  0  0  0  0  0  0  0  0  0  0
    2.8211   -3.7972   -0.7418 C   0  0  0  0  0  0  0  0  0  0  0  0
    1.9331   -2.7385   -0.7717 C   0  0  0  0  0  0  0  0  0  0  0  0
    0.5814   -3.0557   -0.6795 O   0  0  0  0  0  0  0  0  0  0  0  0
   -0.4424   -2.1292   -0.6499 C   0  0  0  0  0  0  0  0  0  0  0  0
   -1.3782   -2.0425   -1.6648 C   0  0  0  0  0  0  0  0  0  0  0  0
   -2.3897   -1.1121   -1.6182 C   0  0  0  0  0  0  0  0  0  0  0  0
   -2.5153   -0.2361   -0.5723 C   0  0  0  0  0  0  0  0  0  0  0  0
   -3.5362    0.7469   -0.4725 N   0  0  0  0  0  0  0  0  0  0  0  0
   -4.7671    0.4183    0.1601 C   0  0  0  0  0  0  0  0  0  0  0  0
   -4.9031   -0.7512    0.6076 O   0  0  0  0  0  0  0  0  0  0  0  0
   -5.8279    1.3533    0.2996 N   0  0  0  0  0  0  0  0  0  0  0  0
   -7.0489    1.0181    0.9256 C   0  0  0  0  0  0  0  0  0  0  0  0
   -7.4061    1.1020    2.2544 C   0  0  0  0  0  0  0  0  0  0  0  0
   -8.7046    0.6642    2.3710 C   0  0  0  0  0  0  0  0  0  0  0  0
   -9.5336    0.5652    3.6169 C   0  0  0  0  0  0  0  0  0  0  0  0
   -8.9159   -0.4508    4.5550 C   0  0  0  0  0  0  0  0  0  0  0  0
   -9.5979    1.9352    4.2545 C   0  0  0  0  0  0  0  0  0  0  0  0
   -9.0966    0.3296    1.1223 N   0  0  0  0  0  0  0  0  0  0  0  0
   -8.1198    0.5359    0.2544 N   0  0  0  0  0  0  0  0  0  0  0  0
   -8.1825    0.2918   -1.1542 C   0  0  0  0  0  0  0  0  0  0  0  0
   -7.9655    1.3014   -2.0677 C   0  0  0  0  0  0  0  0  0  0  0  0
   -8.0301    1.0523   -3.4316 C   0  0  0  0  0  0  0  0  0  0  0  0
   -8.3113   -0.2027   -3.9304 C   0  0  0  0  0  0  0  0  0  0  0  0
   -8.3740   -0.4387   -5.4029 C   0  0  0  0  0  0  0  0  0  0  0  0
   -8.5289   -1.2155   -3.0197 C   0  0  0  0  0  0  0  0  0  0  0  0
   -8.4633   -0.9619   -1.6545 C   0  0  0  0  0  0  0  0  0  0  0  0
   -1.5867   -0.3074    0.4581 C   0  0  0  0  0  0  0  0  0  0  0  0
   -1.6954    0.5595    1.5435 C   0  0  0  0  0  0  0  0  0  0  0  0
   -0.7825    0.4705    2.5634 C   0  0  0  0  0  0  0  0  0  0  0  0
    0.2306   -0.4584    2.5264 C   0  0  0  0  0  0  0  0  0  0  0  0
    0.3483   -1.3211    1.4576 C   0  0  0  0  0  0  0  0  0  0  0  0
   -0.5724   -1.2425    0.4094 C   0  0  0  0  0  0  0  0  0  0  0  0
    2.4280   -1.5210   -0.8839 N   0  0  0  0  0  0  0  0  0  0  0  0
    5.6972    1.8540   -1.6178 C   0  0  0  0  0  0  0  0  0  0  0  0
    6.9669    2.3728   -1.7079 C   0  0  0  0  0  0  0  0  0  0  0  0
    7.1110    3.6584   -2.1935 O   0  0  0  0  0  0  0  0  0  0  0  0
    8.3127    4.3488   -2.3561 C   0  0  0  0  0  0  0  0  0  0  0  0
    8.0480    1.5940   -1.3113 C   0  0  0  0  0  0  0  0  0  0  0  0
   12.1257   -0.7151    3.7634 H   0  0  0  0  0  0  0  0  0  0  0  0
   11.1964    0.8627    3.9316 H   0  0  0  0  0  0  0  0  0  0  0  0
   10.3562   -0.7122    3.6503 H   0  0  0  0  0  0  0  0  0  0  0  0
   12.2283   -1.7261    1.7841 H   0  0  0  0  0  0  0  0  0  0  0  0
   10.3958   -1.6665    1.6264 H   0  0  0  0  0  0  0  0  0  0  0  0
   11.4720   -1.9013   -0.6363 H   0  0  0  0  0  0  0  0  0  0  0  0
   12.4172   -0.4070   -0.3008 H   0  0  0  0  0  0  0  0  0  0  0  0
   10.5501    0.8062   -0.9199 H   0  0  0  0  0  0  0  0  0  0  0  0
    6.4470   -1.1643   -0.3700 H   0  0  0  0  0  0  0  0  0  0  0  0
    3.3958    0.8410   -1.1601 H   0  0  0  0  0  0  0  0  0  0  0  0
    4.9116   -4.3368   -0.8101 H   0  0  0  0  0  0  0  0  0  0  0  0
    2.5259   -4.8321   -0.6531 H   0  0  0  0  0  0  0  0  0  0  0  0
   -1.3090   -2.7199   -2.5066 H   0  0  0  0  0  0  0  0  0  0  0  0
   -3.1347   -1.0431   -2.4268 H   0  0  0  0  0  0  0  0  0  0  0  0
   -3.3928    1.7200   -0.8624 H   0  0  0  0  0  0  0  0  0  0  0  0
   -5.6695    2.3213   -0.0893 H   0  0  0  0  0  0  0  0  0  0  0  0
   -6.7603    1.4545    3.0498 H   0  0  0  0  0  0  0  0  0  0  0  0
  -10.5726    0.2632    3.3712 H   0  0  0  0  0  0  0  0  0  0  0  0
   -9.2315   -1.4570    4.1640 H   0  0  0  0  0  0  0  0  0  0  0  0
   -7.8287   -0.3945    4.5645 H   0  0  0  0  0  0  0  0  0  0  0  0
   -9.3873   -0.3425    5.5555 H   0  0  0  0  0  0  0  0  0  0  0  0
  -10.0228    1.8980    5.2770 H   0  0  0  0  0  0  0  0  0  0  0  0
   -8.6025    2.4239    4.3279 H   0  0  0  0  0  0  0  0  0  0  0  0
  -10.2597    2.5869    3.6515 H   0  0  0  0  0  0  0  0  0  0  0  0
   -7.7448    2.2849   -1.6644 H   0  0  0  0  0  0  0  0  0  0  0  0
   -7.8566    1.8582   -4.1471 H   0  0  0  0  0  0  0  0  0  0  0  0
   -8.7539    0.4365   -5.9572 H   0  0  0  0  0  0  0  0  0  0  0  0
   -7.3909   -0.7087   -5.8301 H   0  0  0  0  0  0  0  0  0  0  0  0
   -9.0673   -1.2814   -5.6542 H   0  0  0  0  0  0  0  0  0  0  0  0
   -8.7483   -2.1955   -3.4220 H   0  0  0  0  0  0  0  0  0  0  0  0
   -8.6369   -1.7699   -0.9588 H   0  0  0  0  0  0  0  0  0  0  0  0
   -2.5076    1.2767    1.5361 H   0  0  0  0  0  0  0  0  0  0  0  0
   -0.8523    1.1337    3.4102 H   0  0  0  0  0  0  0  0  0  0  0  0
    0.9661   -0.5416    3.3329 H   0  0  0  0  0  0  0  0  0  0  0  0
    1.1374   -2.0767    1.4258 H   0  0  0  0  0  0  0  0  0  0  0  0
    4.8601    2.4813   -1.9343 H   0  0  0  0  0  0  0  0  0  0  0  0
    9.2021    3.7364   -2.5081 H   0  0  0  0  0  0  0  0  0  0  0  0
    8.4127    5.0491   -1.4762 H   0  0  0  0  0  0  0  0  0  0  0  0
    8.2317    5.0214   -3.2358 H   0  0  0  0  0  0  0  0  0  0  0  0
    9.0244    2.0419   -1.3992 H   0  0  0  0  0  0  0  0  0  0  0  0
  1  2  1  0
  2  3  1  0
  3  4  1  0
  4  5  1  0
  5  6  1  0
  6  7  2  0
  6  8  1  0
  8  9  2  0
  9 10  1  0
 10 11  1  0
 11 12  1  0
 12 13  2  0
 13 14  1  0
 14 15  2  0
 15 16  1  0
 16 17  1  0
 17 18  1  0
 18 19  2  0
 19 20  1  0
 20 21  2  0
 21 22  1  0
 22 23  1  0
 23 24  2  0
 23 25  1  0
 25 26  1  0
 26 27  2  0
 27 28  1  0
 28 29  1  0
 29 30  1  0
 29 31  1  0
 28 32  2  0
 32 33  1  0
 33 34  1  0
 34 35  2  0
 35 36  1  0
 36 37  2  0
 37 38  1  0
 37 39  1  0
 39 40  2  0
 21 41  1  0
 41 42  2  0
 42 43  1  0
 43 44  2  0
 44 45  1  0
 45 46  2  0
 16 47  2  0
 10 48  2  0
 48 49  1  0
 49 50  1  0
 50 51  1  0
 49 52  2  0
 52  8  1  0
 47 12  1  0
 46 18  1  0
 33 26  1  0
 40 34  1  0
 46 41  1  0
  1 53  1  0
  1 54  1  0
  1 55  1  0
  3 56  1  0
  3 57  1  0
  4 58  1  0
  4 59  1  0
  5 60  1  0
  9 61  1  0
 11 62  1  0
 14 63  1  0
 15 64  1  0
 19 65  1  0
 20 66  1  0
 22 67  1  0
 25 68  1  0
 27 69  1  0
 29 70  1  0
 30 71  1  0
 30 72  1  0
 30 73  1  0
 31 74  1  0
 31 75  1  0
 31 76  1  0
 35 77  1  0
 36 78  1  0
 38 79  1  0
 38 80  1  0
 38 81  1  0
 39 82  1  0
 40 83  1  0
 42 84  1  0
 43 85  1  0
 44 86  1  0
 45 87  1  0
 48 88  1  0
 51 89  1  0
 51 90  1  0
 51 91  1  0
 52 92  1  0
M  END
$$$$
