
     RDKit          3D

 52 54  0  0  0  0  0  0  0  0999 V2000
    6.0667   -0.2040    2.9756 C   0  0  0  0  0  0  0  0  0  0  0  0
    5.7693   -1.4854    2.2651 C   0  0  0  0  0  0  0  0  0  0  0  0
    4.7103   -1.3346    1.3092 O   0  0  0  0  0  0  0  0  0  0  0  0
    3.4335   -0.9416    1.7730 C   0  0  0  0  0  0  0  0  0  0  0  0
    3.3378   -0.7681    3.0145 O   0  0  0  0  0  0  0  0  0  0  0  0
    2.3619   -0.7629    0.8645 N   0  0  0  0  0  0  0  0  0  0  0  0
    2.4279   -0.9284   -0.5432 C   0  0  0  0  0  0  0  0  0  0  0  0
    1.1068   -1.6144   -0.8373 C   0  0  0  0  0  0  0  0  0  0  0  0
    0.1437   -0.8517    0.0501 C   0  0  2  0  0  0  0  0  0  0  0  0
   -0.5239    0.2397   -0.6101 N   0  0  0  0  0  0  0  0  0  0  0  0
   -0.9168    0.1086   -1.9972 C   0  0  0  0  0  0  0  0  0  0  0  0
   -2.0541   -0.8005   -2.2410 C   0  0  0  0  0  0  0  0  0  0  0  0
   -1.7948   -2.1058   -2.6884 C   0  0  0  0  0  0  0  0  0  0  0  0
   -2.8737   -2.9617   -2.9129 C   0  0  0  0  0  0  0  0  0  0  0  0
   -2.6120   -4.2419   -3.3531 F   0  0  0  0  0  0  0  0  0  0  0  0
   -4.1409   -2.6119   -2.7266 C   0  0  0  0  0  0  0  0  0  0  0  0
   -4.4385   -1.3323   -2.2865 C   0  0  0  0  0  0  0  0  0  0  0  0
   -3.3497   -0.4684   -2.0599 C   0  0  0  0  0  0  0  0  0  0  0  0
   -3.7482    0.9088   -1.6294 C   0  0  0  0  0  0  0  0  0  0  0  0
   -0.9927    1.3514    0.1547 C   0  0  0  0  0  0  0  0  0  0  0  0
   -1.2539    1.2690    1.5084 C   0  0  0  0  0  0  0  0  0  0  0  0
   -1.6750    2.3391    2.2717 C   0  0  0  0  0  0  0  0  0  0  0  0
   -1.8370    3.5600    1.6121 C   0  0  0  0  0  0  0  0  0  0  0  0
   -2.3698    4.6529    2.3845 C   0  0  0  0  0  0  0  0  0  0  0  0
   -2.7804    5.5299    3.0153 N   0  0  0  0  0  0  0  0  0  0  0  0
   -1.5870    3.6900    0.2770 C   0  0  0  0  0  0  0  0  0  0  0  0
   -1.7928    5.2570   -0.5268 Cl  0  0  0  0  0  0  0  0  0  0  0  0
   -1.1671    2.5765   -0.4338 C   0  0  0  0  0  0  0  0  0  0  0  0
    1.0252   -0.3722    1.2087 C   0  0  0  0  0  0  0  0  0  0  0  0
    6.2614   -0.3227    4.0693 H   0  0  0  0  0  0  0  0  0  0  0  0
    7.0226    0.2034    2.5479 H   0  0  0  0  0  0  0  0  0  0  0  0
    5.3254    0.6098    2.7929 H   0  0  0  0  0  0  0  0  0  0  0  0
    6.6419   -1.8327    1.7249 H   0  0  0  0  0  0  0  0  0  0  0  0
    5.4577   -2.2419    3.0120 H   0  0  0  0  0  0  0  0  0  0  0  0
    2.4629    0.0622   -1.0784 H   0  0  0  0  0  0  0  0  0  0  0  0
    3.3003   -1.5195   -0.9113 H   0  0  0  0  0  0  0  0  0  0  0  0
    1.2060   -2.6604   -0.4212 H   0  0  0  0  0  0  0  0  0  0  0  0
    0.8932   -1.6125   -1.8938 H   0  0  0  0  0  0  0  0  0  0  0  0
   -0.6176   -1.5024    0.4947 H   0  0  0  0  0  0  0  0  0  0  0  0
   -1.1937    1.1439   -2.3672 H   0  0  0  0  0  0  0  0  0  0  0  0
   -0.0281   -0.1324   -2.6450 H   0  0  0  0  0  0  0  0  0  0  0  0
   -0.8414   -2.5165   -2.8933 H   0  0  0  0  0  0  0  0  0  0  0  0
   -4.9968   -3.2634   -2.8991 H   0  0  0  0  0  0  0  0  0  0  0  0
   -5.4306   -0.9895   -2.1186 H   0  0  0  0  0  0  0  0  0  0  0  0
   -3.6301    0.9813   -0.5512 H   0  0  0  0  0  0  0  0  0  0  0  0
   -3.1300    1.6156   -2.2113 H   0  0  0  0  0  0  0  0  0  0  0  0
   -4.8351    1.0732   -1.8730 H   0  0  0  0  0  0  0  0  0  0  0  0
   -1.1773    0.3160    2.0319 H   0  0  0  0  0  0  0  0  0  0  0  0
   -1.8729    2.2352    3.3377 H   0  0  0  0  0  0  0  0  0  0  0  0
   -0.9811    2.7883   -1.4958 H   0  0  0  0  0  0  0  0  0  0  0  0
    0.9739    0.7398    1.3367 H   0  0  0  0  0  0  0  0  0  0  0  0
    0.7147   -0.8718    2.1730 H   0  0  0  0  0  0  0  0  0  0  0  0
  1  2  1  0
  2  3  1  0
  3  4  1  0
  4  5  2  0
  4  6  1  0
  6  7  1  0
  7  8  1  0
  8  9  1  0
  9 10  1  0
 10 11  1  0
 11 12  1  0
 12 13  2  0
 13 14  1  0
 14 15  1  0
 14 16  2  0
 16 17  1  0
 17 18  2  0
 18 19  1  0
 10 20  1  0
 20 21  2  0
 21 22  1  0
 22 23  2  0
 23 24  1  0
 24 25  3  0
 23 26  1  0
 26 27  1  0
 26 28  2  0
  9 29  1  0
 29  6  1  0
 18 12  1  0
 28 20  1  0
  1 30  1  0
  1 31  1  0
  1 32  1  0
  2 33  1  0
  2 34  1  0
  7 35  1  0
  7 36  1  0
  8 37  1  0
  8 38  1  0
  9 39  1  1
 11 40  1  0
 11 41  1  0
 13 42  1  0
 16 43  1  0
 17 44  1  0
 19 45  1  0
 19 46  1  0
 19 47  1  0
 21 48  1  0
 22 49  1  0
 28 50  1  0
 29 51  1  0
 29 52  1  0
M  END
$$$$
