@<TRIPOS>MOLECULE
*****
 52 54 0 0 0
SMALL
GASTEIGER

@<TRIPOS>ATOM
      1 C           6.0667   -0.2040    2.9756 C.3     1  UNL1       -0.0305
      2 C           5.7693   -1.4854    2.2651 C.3     1  UNL1        0.0913
      3 O           4.7103   -1.3346    1.3092 O.3     1  UNL1       -0.4505
      4 C           3.4335   -0.9416    1.7730 C.2     1  UNL1        0.4029
      5 O           3.3378   -0.7681    3.0145 O.2     1  UNL1       -0.2263
      6 N           2.3619   -0.7629    0.8645 N.am    1  UNL1       -0.2656
      7 C           2.4279   -0.9284   -0.5432 C.3     1  UNL1        0.0196
      8 C           1.1068   -1.6144   -0.8373 C.3     1  UNL1       -0.0169
      9 C           0.1437   -0.8517    0.0501 C.3     1  UNL1        0.0411
     10 N          -0.5239    0.2397   -0.6101 N.pl3   1  UNL1       -0.3209
     11 C          -0.9168    0.1086   -1.9972 C.3     1  UNL1        0.0379
     12 C          -2.0541   -0.8005   -2.2410 C.ar    1  UNL1       -0.0246
     13 C          -1.7948   -2.1058   -2.6884 C.ar    1  UNL1       -0.0215
     14 C          -2.8737   -2.9617   -2.9129 C.ar    1  UNL1        0.1237
     15 F          -2.6120   -4.2419   -3.3531 F       1  UNL1       -0.2055
     16 C          -4.1409   -2.6119   -2.7266 C.ar    1  UNL1       -0.0262
     17 C          -4.4385   -1.3323   -2.2865 C.ar    1  UNL1       -0.0558
     18 C          -3.3497   -0.4684   -2.0599 C.ar    1  UNL1       -0.0456
     19 C          -3.7482    0.9088   -1.6294 C.3     1  UNL1       -0.0394
     20 C          -0.9927    1.3514    0.1547 C.ar    1  UNL1        0.0317
     21 C          -1.2539    1.2690    1.5084 C.ar    1  UNL1       -0.0393
     22 C          -1.6750    2.3391    2.2717 C.ar    1  UNL1       -0.0412
     23 C          -1.8370    3.5600    1.6121 C.ar    1  UNL1        0.0701
     24 C          -2.3698    4.6529    2.3845 C.1     1  UNL1        0.1006
     25 N          -2.7804    5.5299    3.0153 N.1     1  UNL1       -0.1908
     26 C          -1.5870    3.6900    0.2770 C.ar    1  UNL1        0.0600
     27 CL         -1.7928    5.2570   -0.5268 Cl      1  UNL1       -0.0822
     28 C          -1.1671    2.5765   -0.4338 C.ar    1  UNL1       -0.0210
     29 C           1.0252   -0.3722    1.2087 C.3     1  UNL1        0.0364
     30 H           6.2614   -0.3227    4.0693 H       1  UNL1        0.0262
     31 H           7.0226    0.2034    2.5479 H       1  UNL1        0.0262
     32 H           5.3254    0.6098    2.7929 H       1  UNL1        0.0262
     33 H           6.6419   -1.8327    1.7249 H       1  UNL1        0.0695
     34 H           5.4577   -2.2419    3.0120 H       1  UNL1        0.0695
     35 H           2.4629    0.0622   -1.0784 H       1  UNL1        0.0466
     36 H           3.3003   -1.5195   -0.9113 H       1  UNL1        0.0466
     37 H           1.2060   -2.6604   -0.4212 H       1  UNL1        0.0299
     38 H           0.8932   -1.6125   -1.8938 H       1  UNL1        0.0299
     39 H          -0.6176   -1.5024    0.4947 H       1  UNL1        0.0516
     40 H          -1.1937    1.1439   -2.3672 H       1  UNL1        0.0513
     41 H          -0.0281   -0.1324   -2.6450 H       1  UNL1        0.0513
     42 H          -0.8414   -2.5165   -2.8933 H       1  UNL1        0.0649
     43 H          -4.9968   -3.2634   -2.8991 H       1  UNL1        0.0646
     44 H          -5.4306   -0.9895   -2.1186 H       1  UNL1        0.0621
     45 H          -3.6301    0.9813   -0.5512 H       1  UNL1        0.0278
     46 H          -3.1300    1.6156   -2.2113 H       1  UNL1        0.0278
     47 H          -4.8351    1.0732   -1.8730 H       1  UNL1        0.0278
     48 H          -1.1773    0.3160    2.0319 H       1  UNL1        0.0636
     49 H          -1.8729    2.2352    3.3377 H       1  UNL1        0.0631
     50 H          -0.9811    2.7883   -1.4958 H       1  UNL1        0.0651
     51 H           0.9739    0.7398    1.3367 H       1  UNL1        0.0484
     52 H           0.7147   -0.8718    2.1730 H       1  UNL1        0.0484
@<TRIPOS>BOND
     1     1     2    1
     2     2     3    1
     3     3     4    1
     4     4     5    2
     5     4     6   am
     6     6     7    1
     7     7     8    1
     8     8     9    1
     9     9    10    1
    10    10    11    1
    11    11    12    1
    12    12    13   ar
    13    13    14   ar
    14    14    15    1
    15    14    16   ar
    16    16    17   ar
    17    17    18   ar
    18    18    19    1
    19    10    20    1
    20    20    21   ar
    21    21    22   ar
    22    22    23   ar
    23    23    24    1
    24    24    25    3
    25    23    26   ar
    26    26    27    1
    27    26    28   ar
    28     9    29    1
    29    29     6    1
    30    18    12   ar
    31    28    20   ar
    32     1    30    1
    33     1    31    1
    34     1    32    1
    35     2    33    1
    36     2    34    1
    37     7    35    1
    38     7    36    1
    39     8    37    1
    40     8    38    1
    41     9    39    1
    42    11    40    1
    43    11    41    1
    44    13    42    1
    45    16    43    1
    46    17    44    1
    47    19    45    1
    48    19    46    1
    49    19    47    1
    50    21    48    1
    51    22    49    1
    52    28    50    1
    53    29    51    1
    54    29    52    1
