
     RDKit          3D

 34 36  0  0  0  0  0  0  0  0999 V2000
   -1.7795   -2.2465    0.0395 C   0  0  0  0  0  0  0  0  0  0  0  0
   -0.9026   -1.0199   -0.0916 C   0  0  0  0  0  0  0  0  0  0  0  0
   -0.8267   -0.6227   -1.5379 C   0  0  0  0  0  0  0  0  0  0  0  0
   -0.0777    0.6857   -1.6743 C   0  0  0  0  0  0  0  0  0  0  0  0
    1.3552    0.3929   -1.2478 C   0  0  0  0  0  0  0  0  0  0  0  0
    1.3822   -0.1241    0.1577 C   0  0  0  0  0  0  0  0  0  0  0  0
    2.8042   -0.5442    0.4729 C   0  0  0  0  0  0  0  0  0  0  0  0
    0.4964   -1.3235    0.3691 C   0  0  0  0  0  0  0  0  0  0  0  0
    0.8900    0.9734    1.0570 C   0  0  0  0  0  0  0  0  0  0  0  0
   -0.5364    1.2749    0.6890 C   0  0  0  0  0  0  0  0  0  0  0  0
   -0.9926    2.3368    1.5684 N   0  0  0  0  0  0  0  0  0  0  0  0
   -0.6301    1.7419   -0.7415 C   0  0  0  0  0  0  0  0  0  0  0  0
   -1.4414    0.0779    0.8001 C   0  0  0  0  0  0  0  0  0  0  0  0
   -1.7434   -2.8329   -0.9128 H   0  0  0  0  0  0  0  0  0  0  0  0
   -2.8570   -1.9887    0.1827 H   0  0  0  0  0  0  0  0  0  0  0  0
   -1.4362   -2.9109    0.8683 H   0  0  0  0  0  0  0  0  0  0  0  0
   -1.7961   -0.6271   -2.0578 H   0  0  0  0  0  0  0  0  0  0  0  0
   -0.1857   -1.3954   -2.0380 H   0  0  0  0  0  0  0  0  0  0  0  0
   -0.1063    1.0691   -2.6979 H   0  0  0  0  0  0  0  0  0  0  0  0
    1.8307   -0.2650   -1.9885 H   0  0  0  0  0  0  0  0  0  0  0  0
    1.8671    1.3864   -1.2403 H   0  0  0  0  0  0  0  0  0  0  0  0
    3.5405    0.2566    0.2088 H   0  0  0  0  0  0  0  0  0  0  0  0
    3.0342   -1.3898   -0.2226 H   0  0  0  0  0  0  0  0  0  0  0  0
    2.9208   -0.9011    1.5058 H   0  0  0  0  0  0  0  0  0  0  0  0
    0.4524   -1.5112    1.4675 H   0  0  0  0  0  0  0  0  0  0  0  0
    0.9224   -2.2345   -0.0760 H   0  0  0  0  0  0  0  0  0  0  0  0
    1.4786    1.8888    0.8300 H   0  0  0  0  0  0  0  0  0  0  0  0
    0.9907    0.7671    2.1254 H   0  0  0  0  0  0  0  0  0  0  0  0
   -1.0012    1.9720    2.5496 H   0  0  0  0  0  0  0  0  0  0  0  0
   -1.9767    2.5588    1.3201 H   0  0  0  0  0  0  0  0  0  0  0  0
   -0.0324    2.6529   -0.8652 H   0  0  0  0  0  0  0  0  0  0  0  0
   -1.7000    1.8668   -1.0125 H   0  0  0  0  0  0  0  0  0  0  0  0
   -1.5191   -0.3315    1.8174 H   0  0  0  0  0  0  0  0  0  0  0  0
   -2.4245    0.3671    0.3754 H   0  0  0  0  0  0  0  0  0  0  0  0
  1  2  1  0
  2  3  1  0
  3  4  1  0
  4  5  1  0
  5  6  1  0
  6  7  1  0
  6  8  1  0
  6  9  1  0
  9 10  1  0
 10 11  1  0
 10 12  1  0
 10 13  1  0
  8  2  1  0
 13  2  1  0
 12  4  1  0
  1 14  1  0
  1 15  1  0
  1 16  1  0
  3 17  1  0
  3 18  1  0
  4 19  1  0
  5 20  1  0
  5 21  1  0
  7 22  1  0
  7 23  1  0
  7 24  1  0
  8 25  1  0
  8 26  1  0
  9 27  1  0
  9 28  1  0
 11 29  1  0
 11 30  1  0
 12 31  1  0
 12 32  1  0
 13 33  1  0
 13 34  1  0
M  END
$$$$
