@<TRIPOS>MOLECULE
*****
 34 36 0 0 0
SMALL
GASTEIGER

@<TRIPOS>ATOM
      1 C          -1.7795   -2.2465    0.0395 C.3     1  UNL1       -0.0595
      2 C          -0.9026   -1.0199   -0.0916 C.3     1  UNL1       -0.0296
      3 C          -0.8267   -0.6227   -1.5379 C.3     1  UNL1       -0.0446
      4 C          -0.0777    0.6857   -1.6743 C.3     1  UNL1       -0.0384
      5 C           1.3552    0.3929   -1.2478 C.3     1  UNL1       -0.0446
      6 C           1.3822   -0.1241    0.1577 C.3     1  UNL1       -0.0296
      7 C           2.8042   -0.5442    0.4729 C.3     1  UNL1       -0.0595
      8 C           0.4964   -1.3235    0.3691 C.3     1  UNL1       -0.0421
      9 C           0.8900    0.9734    1.0570 C.3     1  UNL1       -0.0294
     10 C          -0.5364    1.2749    0.6890 C.3     1  UNL1        0.0177
     11 N          -0.9926    2.3368    1.5684 N.3     1  UNL1       -0.3246
     12 C          -0.6301    1.7419   -0.7415 C.3     1  UNL1       -0.0319
     13 C          -1.4414    0.0779    0.8001 C.3     1  UNL1       -0.0294
     14 H          -1.7434   -2.8329   -0.9128 H       1  UNL1        0.0235
     15 H          -2.8570   -1.9887    0.1827 H       1  UNL1        0.0235
     16 H          -1.4362   -2.9109    0.8683 H       1  UNL1        0.0235
     17 H          -1.7961   -0.6271   -2.0578 H       1  UNL1        0.0273
     18 H          -0.1857   -1.3954   -2.0380 H       1  UNL1        0.0273
     19 H          -0.1063    1.0691   -2.6979 H       1  UNL1        0.0302
     20 H           1.8307   -0.2650   -1.9885 H       1  UNL1        0.0273
     21 H           1.8671    1.3864   -1.2403 H       1  UNL1        0.0273
     22 H           3.5405    0.2566    0.2088 H       1  UNL1        0.0235
     23 H           3.0342   -1.3898   -0.2226 H       1  UNL1        0.0235
     24 H           2.9208   -0.9011    1.5058 H       1  UNL1        0.0235
     25 H           0.4524   -1.5112    1.4675 H       1  UNL1        0.0276
     26 H           0.9224   -2.2345   -0.0760 H       1  UNL1        0.0276
     27 H           1.4786    1.8888    0.8300 H       1  UNL1        0.0288
     28 H           0.9907    0.7671    2.1254 H       1  UNL1        0.0288
     29 H          -1.0012    1.9720    2.5496 H       1  UNL1        0.1187
     30 H          -1.9767    2.5588    1.3201 H       1  UNL1        0.1187
     31 H          -0.0324    2.6529   -0.8652 H       1  UNL1        0.0286
     32 H          -1.7000    1.8668   -1.0125 H       1  UNL1        0.0286
     33 H          -1.5191   -0.3315    1.8174 H       1  UNL1        0.0288
     34 H          -2.4245    0.3671    0.3754 H       1  UNL1        0.0288
@<TRIPOS>BOND
     1     1     2    1
     2     2     3    1
     3     3     4    1
     4     4     5    1
     5     5     6    1
     6     6     7    1
     7     6     8    1
     8     6     9    1
     9     9    10    1
    10    10    11    1
    11    10    12    1
    12    10    13    1
    13     8     2    1
    14    13     2    1
    15    12     4    1
    16     1    14    1
    17     1    15    1
    18     1    16    1
    19     3    17    1
    20     3    18    1
    21     4    19    1
    22     5    20    1
    23     5    21    1
    24     7    22    1
    25     7    23    1
    26     7    24    1
    27     8    25    1
    28     8    26    1
    29     9    27    1
    30     9    28    1
    31    11    29    1
    32    11    30    1
    33    12    31    1
    34    12    32    1
    35    13    33    1
    36    13    34    1
