
     RDKit          3D

 30 30  0  0  0  0  0  0  0  0999 V2000
   -3.7396    1.1583    0.4423 C   0  0  0  0  0  0  0  0  0  0  0  0
   -3.1756    0.4581   -0.7380 C   0  0  0  0  0  0  0  0  0  0  0  0
   -3.8583   -0.8604   -1.0004 C   0  0  0  0  0  0  0  0  0  0  0  0
   -1.6991    0.3472   -0.7523 C   0  0  0  0  0  0  0  0  0  0  0  0
   -0.8825    0.7918   -1.6061 O   0  0  0  0  0  0  0  0  0  0  0  0
   -1.0445   -0.3499    0.3246 N   0  0  0  0  0  0  0  0  0  0  0  0
    0.3683   -0.3797    0.1831 C   0  0  0  0  0  0  0  0  0  0  0  0
    1.2136    0.5764    0.6860 C   0  0  0  0  0  0  0  0  0  0  0  0
    2.5763    0.4721    0.5040 C   0  0  0  0  0  0  0  0  0  0  0  0
    3.0114   -0.6317   -0.1999 C   0  0  0  0  0  0  0  0  0  0  0  0
    2.1888   -1.6183   -0.7230 C   0  0  0  0  0  0  0  0  0  0  0  0
    0.8322   -1.4730   -0.5172 C   0  0  0  0  0  0  0  0  0  0  0  0
    4.4049   -0.8231   -0.4371 N   0  0  0  0  0  4  0  0  0  0  0  0
    4.8877   -2.1127   -0.5126 O   0  0  0  0  0  1  0  0  0  0  0  0
    5.4225   -0.1325   -0.6148 O   0  0  0  0  0  0  0  0  0  0  0  0
    3.5315    1.4843    1.0306 C   0  0  0  0  0  0  0  0  0  0  0  0
    4.4385    0.9330    1.9171 F   0  0  0  0  0  0  0  0  0  0  0  0
    2.7861    2.4676    1.6535 F   0  0  0  0  0  0  0  0  0  0  0  0
    4.1948    2.1340   -0.0148 F   0  0  0  0  0  0  0  0  0  0  0  0
   -4.2556    2.1280    0.1960 H   0  0  0  0  0  0  0  0  0  0  0  0
   -3.0053    1.4150    1.2272 H   0  0  0  0  0  0  0  0  0  0  0  0
   -4.5048    0.5238    0.9441 H   0  0  0  0  0  0  0  0  0  0  0  0
   -3.4242    1.0987   -1.6342 H   0  0  0  0  0  0  0  0  0  0  0  0
   -3.8671   -1.1236   -2.0805 H   0  0  0  0  0  0  0  0  0  0  0  0
   -3.3894   -1.6782   -0.4074 H   0  0  0  0  0  0  0  0  0  0  0  0
   -4.9312   -0.7502   -0.7011 H   0  0  0  0  0  0  0  0  0  0  0  0
   -1.6314   -0.7565    1.0831 H   0  0  0  0  0  0  0  0  0  0  0  0
    0.7920    1.4227    1.2340 H   0  0  0  0  0  0  0  0  0  0  0  0
    2.5847   -2.4651   -1.2676 H   0  0  0  0  0  0  0  0  0  0  0  0
    0.1753   -2.2558   -0.9329 H   0  0  0  0  0  0  0  0  0  0  0  0
  1  2  1  0
  2  3  1  0
  2  4  1  0
  4  5  2  0
  4  6  1  0
  6  7  1  0
  7  8  2  0
  8  9  1  0
  9 10  2  0
 10 11  1  0
 11 12  2  0
 10 13  1  0
 13 14  1  0
 13 15  2  0
  9 16  1  0
 16 17  1  0
 16 18  1  0
 16 19  1  0
 12  7  1  0
  1 20  1  0
  1 21  1  0
  1 22  1  0
  2 23  1  0
  3 24  1  0
  3 25  1  0
  3 26  1  0
  6 27  1  0
  8 28  1  0
 11 29  1  0
 12 30  1  0
M  CHG  2  13   1  14  -1
M  END
$$$$
