@<TRIPOS>MOLECULE
*****
 55 58 0 0 0
SMALL
GASTEIGER

@<TRIPOS>ATOM
      1 C          -6.6479   -0.8302   -0.2218 C.3     1  UNL1       -0.0004
      2 C          -7.0244   -0.8442    1.2590 C.3     1  UNL1       -0.0569
      3 C          -7.9357   -0.9077   -1.0051 C.3     1  UNL1        0.0186
      4 N          -8.6673    0.3462   -0.9015 N.am    1  UNL1       -0.3096
      5 C          -7.9797    1.5586   -1.1817 C.2     1  UNL1        0.2607
      6 O          -8.6027    2.5551   -1.5930 O.2     1  UNL1       -0.2686
      7 C          -6.5371    1.5935   -0.9730 C.ar    1  UNL1        0.1063
      8 C          -5.9418    0.4365   -0.5149 C.ar    1  UNL1       -0.0056
      9 C          -4.5938    0.7644   -0.4122 C.ar    1  UNL1        0.0046
     10 C          -3.4718    0.0437   -0.0116 C.ar    1  UNL1       -0.0402
     11 C          -2.2173    0.6113    0.0007 C.ar    1  UNL1        0.0378
     12 C          -2.0740    1.9231   -0.3933 C.ar    1  UNL1       -0.0476
     13 C          -3.1685    2.6841   -0.8025 C.ar    1  UNL1       -0.0371
     14 C          -4.4175    2.0767   -0.8014 C.ar    1  UNL1        0.0473
     15 N          -5.6123    2.5599   -1.1378 N.ar    1  UNL1       -0.3503
     16 C          -1.1092   -0.2243    0.4369 C.2     1  UNL1        0.2497
     17 O          -1.3557   -1.4079    0.7762 O.2     1  UNL1       -0.2698
     18 N           0.1950    0.2815    0.4759 N.am    1  UNL1       -0.2607
     19 C           1.2583   -0.5791    0.9133 C.ar    1  UNL1        0.1653
     20 N           2.6558   -0.2090    1.0101 N.ar    1  UNL1       -0.2200
     21 C           3.3231   -1.2727    1.4524 C.ar    1  UNL1        0.1346
     22 C           2.8816   -2.5956    1.8070 C.ar    1  UNL1        0.0094
     23 S           1.0529   -2.2689    1.4213 S.2     1  UNL1       -0.0597
     24 C           4.7695   -1.0242    1.5959 C.2     1  UNL1        0.2630
     25 O           5.6012   -1.9010    2.0090 O.2     1  UNL1       -0.2685
     26 N           5.4955    0.1612    1.3242 N.am    1  UNL1       -0.3089
     27 C           6.9171    0.3219    1.4922 C.3     1  UNL1        0.0247
     28 C           7.7576   -0.5982    0.6745 C.3     1  UNL1        0.0139
     29 N           7.5473   -0.4589   -0.7462 N.3     1  UNL1       -0.3069
     30 C           8.0235    0.8117   -1.2518 C.3     1  UNL1       -0.0130
     31 C           8.0763   -1.5845   -1.4894 C.3     1  UNL1       -0.0130
     32 H          -6.0502   -1.7267   -0.4896 H       1  UNL1        0.0362
     33 H          -7.7623   -1.6542    1.3887 H       1  UNL1        0.0236
     34 H          -7.5387    0.1093    1.4700 H       1  UNL1        0.0236
     35 H          -6.1287   -0.9516    1.9062 H       1  UNL1        0.0236
     36 H          -7.7295   -1.0942   -2.0926 H       1  UNL1        0.0468
     37 H          -8.5454   -1.7602   -0.6424 H       1  UNL1        0.0468
     38 H          -9.6806    0.3608   -0.6265 H       1  UNL1        0.1491
     39 H          -3.6627   -0.9751    0.2824 H       1  UNL1        0.0632
     40 H          -1.0963    2.3806   -0.3884 H       1  UNL1        0.0626
     41 H          -3.0652    3.7253   -1.1170 H       1  UNL1        0.0638
     42 H          -5.8504    3.5253   -1.4802 H       1  UNL1        0.1660
     43 H           0.4697    1.2296    0.2161 H       1  UNL1        0.1571
     44 H           3.3772   -3.3854    2.1356 H       1  UNL1        0.0717
     45 H           4.9004    0.9720    0.9695 H       1  UNL1        0.1491
     46 H           7.1800    1.3781    1.3144 H       1  UNL1        0.0475
     47 H           7.2174    0.1409    2.5670 H       1  UNL1        0.0475
     48 H           8.8434   -0.3412    0.8528 H       1  UNL1        0.0442
     49 H           7.6602   -1.6501    0.9685 H       1  UNL1        0.0442
     50 H           7.2534    1.4081   -1.7699 H       1  UNL1        0.0391
     51 H           8.5144    1.3556   -0.4209 H       1  UNL1        0.0391
     52 H           8.8149    0.5830   -1.9960 H       1  UNL1        0.0391
     53 H           9.0467   -1.8639   -0.9857 H       1  UNL1        0.0391
     54 H           8.2412   -1.3497   -2.5443 H       1  UNL1        0.0391
     55 H           7.3936   -2.4394   -1.3414 H       1  UNL1        0.0391
@<TRIPOS>BOND
     1     1     2    1
     2     1     3    1
     3     3     4    1
     4     4     5   am
     5     5     6    2
     6     5     7    1
     7     7     8   ar
     8     8     9   ar
     9     9    10   ar
    10    10    11   ar
    11    11    12   ar
    12    12    13   ar
    13    13    14   ar
    14    14    15   ar
    15    11    16    1
    16    16    17    2
    17    16    18   am
    18    18    19    1
    19    19    20   ar
    20    20    21   ar
    21    21    22   ar
    22    22    23   ar
    23    21    24    1
    24    24    25    2
    25    24    26   am
    26    26    27    1
    27    27    28    1
    28    28    29    1
    29    29    30    1
    30    29    31    1
    31     8     1    1
    32    14     9   ar
    33    23    19   ar
    34    15     7   ar
    35     1    32    1
    36     2    33    1
    37     2    34    1
    38     2    35    1
    39     3    36    1
    40     3    37    1
    41     4    38    1
    42    10    39    1
    43    12    40    1
    44    13    41    1
    45    15    42    1
    46    18    43    1
    47    22    44    1
    48    26    45    1
    49    27    46    1
    50    27    47    1
    51    28    48    1
    52    28    49    1
    53    30    50    1
    54    30    51    1
    55    30    52    1
    56    31    53    1
    57    31    54    1
    58    31    55    1
