@<TRIPOS>MOLECULE
*****
 26 26 0 0 0
SMALL
GASTEIGER

@<TRIPOS>ATOM
      1 C           3.3603   -0.5314   -0.0096 C.3     1  UNL1       -0.0472
      2 C           2.0321    0.1565   -0.2477 C.3     1  UNL1        0.0324
      3 N           1.9466    1.2346    0.7321 N.3     1  UNL1       -0.3251
      4 C           0.9611   -0.8682   -0.0554 C.3     1  UNL1        0.0951
      5 O           1.1267   -1.8538   -1.0367 O.3     1  UNL1       -0.3856
      6 C          -0.4175   -0.3095   -0.0749 C.ar    1  UNL1       -0.0140
      7 C          -1.0955   -0.1308    1.1129 C.ar    1  UNL1       -0.0109
      8 C          -2.3722    0.3913    1.0369 C.ar    1  UNL1        0.1586
      9 O          -3.1275    0.6041    2.1894 O.3     1  UNL1       -0.5033
     10 C          -2.9149    0.7102   -0.2061 C.ar    1  UNL1        0.1582
     11 O          -4.2004    1.2372   -0.2999 O.3     1  UNL1       -0.5033
     12 C          -2.2071    0.5197   -1.3973 C.ar    1  UNL1       -0.0162
     13 C          -0.9162   -0.0076   -1.3272 C.ar    1  UNL1       -0.0524
     14 H           3.2020   -1.3495    0.7222 H       1  UNL1        0.0246
     15 H           4.1382    0.1654    0.3419 H       1  UNL1        0.0246
     16 H           3.6459   -1.0166   -0.9698 H       1  UNL1        0.0246
     17 H           2.0254    0.6255   -1.2493 H       1  UNL1        0.0484
     18 H           1.9760    0.8577    1.7013 H       1  UNL1        0.1185
     19 H           2.7967    1.8342    0.5997 H       1  UNL1        0.1185
     20 H           1.1764   -1.3572    0.9365 H       1  UNL1        0.0659
     21 H           1.5010   -1.4012   -1.8341 H       1  UNL1        0.2103
     22 H          -0.6433   -0.3890    2.0549 H       1  UNL1        0.0659
     23 H          -3.9250   -0.0035    2.3182 H       1  UNL1        0.2923
     24 H          -4.9937    0.6477   -0.4664 H       1  UNL1        0.2923
     25 H          -2.6877    0.7888   -2.3312 H       1  UNL1        0.0655
     26 H          -0.3876   -0.1480   -2.2403 H       1  UNL1        0.0622
@<TRIPOS>BOND
     1     1     2    1
     2     2     3    1
     3     2     4    1
     4     4     5    1
     5     4     6    1
     6     6     7   ar
     7     7     8   ar
     8     8     9    1
     9     8    10   ar
    10    10    11    1
    11    10    12   ar
    12    12    13   ar
    13    13     6   ar
    14     1    14    1
    15     1    15    1
    16     1    16    1
    17     2    17    1
    18     3    18    1
    19     3    19    1
    20     4    20    1
    21     5    21    1
    22     7    22    1
    23     9    23    1
    24    11    24    1
    25    12    25    1
    26    13    26    1
