
     RDKit          3D

 31 32  0  0  0  0  0  0  0  0999 V2000
   -5.6723   -0.1906    0.7018 C   0  0  0  0  0  0  0  0  0  0  0  0
   -4.2818   -0.5583    1.0206 C   0  0  0  0  0  0  0  0  0  0  0  0
   -4.0188   -1.3745    1.9382 O   0  0  0  0  0  0  0  0  0  0  0  0
   -3.1592    0.0103    0.2844 C   0  0  0  0  0  0  0  0  0  0  0  0
   -3.4332    0.9096   -0.7277 C   0  0  0  0  0  0  0  0  0  0  0  0
   -2.3761    1.4413   -1.4168 C   0  0  0  0  0  0  0  0  0  0  0  0
   -1.0762    1.0950   -1.1159 C   0  0  0  0  0  0  0  0  0  0  0  0
   -0.7796    0.1927   -0.1021 C   0  0  0  0  0  0  0  0  0  0  0  0
    0.5266   -0.1612    0.2070 O   0  0  0  0  0  0  0  0  0  0  0  0
    1.5688    0.4344   -0.5544 C   0  0  0  0  0  0  0  0  0  0  0  0
    2.9018   -0.0356   -0.1139 C   0  0  0  0  0  0  0  0  0  0  0  0
    3.6152    0.6107    0.8675 C   0  0  0  0  0  0  0  0  0  0  0  0
    4.8520    0.1685    1.2712 C   0  0  0  0  0  0  0  0  0  0  0  0
    5.3961   -0.9643    0.6695 C   0  0  0  0  0  0  0  0  0  0  0  0
    7.1049   -1.6091    1.1992 Br  0  0  0  0  0  0  0  0  0  0  0  0
    4.7128   -1.6425   -0.3195 C   0  0  0  0  0  0  0  0  0  0  0  0
    3.4752   -1.1529   -0.6843 C   0  0  0  0  0  0  0  0  0  0  0  0
   -1.8596   -0.3294    0.5776 C   0  0  0  0  0  0  0  0  0  0  0  0
   -5.9187    0.8303    1.0851 H   0  0  0  0  0  0  0  0  0  0  0  0
   -6.3662   -0.8924    1.2244 H   0  0  0  0  0  0  0  0  0  0  0  0
   -5.8387   -0.2613   -0.3893 H   0  0  0  0  0  0  0  0  0  0  0  0
   -4.4740    1.1598   -0.9375 H   0  0  0  0  0  0  0  0  0  0  0  0
   -2.5678    2.1457   -2.2111 H   0  0  0  0  0  0  0  0  0  0  0  0
   -0.2171    1.5091   -1.6553 H   0  0  0  0  0  0  0  0  0  0  0  0
    1.4042    0.1865   -1.6249 H   0  0  0  0  0  0  0  0  0  0  0  0
    1.5012    1.5382   -0.4541 H   0  0  0  0  0  0  0  0  0  0  0  0
    3.1889    1.4878    1.3301 H   0  0  0  0  0  0  0  0  0  0  0  0
    5.4106    0.6814    2.0452 H   0  0  0  0  0  0  0  0  0  0  0  0
    5.1232   -2.5225   -0.7944 H   0  0  0  0  0  0  0  0  0  0  0  0
    2.9120   -1.6618   -1.4580 H   0  0  0  0  0  0  0  0  0  0  0  0
   -1.6540   -1.0449    1.3838 H   0  0  0  0  0  0  0  0  0  0  0  0
  1  2  1  0
  2  3  2  0
  2  4  1  0
  4  5  2  0
  5  6  1  0
  6  7  2  0
  7  8  1  0
  8  9  1  0
  9 10  1  0
 10 11  1  0
 11 12  2  0
 12 13  1  0
 13 14  2  0
 14 15  1  0
 14 16  1  0
 16 17  2  0
  8 18  2  0
 18  4  1  0
 17 11  1  0
  1 19  1  0
  1 20  1  0
  1 21  1  0
  5 22  1  0
  6 23  1  0
  7 24  1  0
 10 25  1  0
 10 26  1  0
 12 27  1  0
 13 28  1  0
 16 29  1  0
 17 30  1  0
 18 31  1  0
M  END
$$$$
