@<TRIPOS>MOLECULE
*****
 31 32 0 0 0
SMALL
GASTEIGER

@<TRIPOS>ATOM
      1 C          -5.6723   -0.1906    0.7018 C.3     1  UNL1       -0.0014
      2 C          -4.2818   -0.5583    1.0206 C.2     1  UNL1        0.1602
      3 O          -4.0188   -1.3745    1.9382 O.2     1  UNL1       -0.2924
      4 C          -3.1592    0.0103    0.2844 C.ar    1  UNL1        0.0206
      5 C          -3.4332    0.9096   -0.7277 C.ar    1  UNL1       -0.0510
      6 C          -2.3761    1.4413   -1.4168 C.ar    1  UNL1       -0.0576
      7 C          -1.0762    1.0950   -1.1159 C.ar    1  UNL1       -0.0199
      8 C          -0.7796    0.1927   -0.1021 C.ar    1  UNL1        0.1217
      9 O           0.5266   -0.1612    0.2070 O.3     1  UNL1       -0.4874
     10 C           1.5688    0.4344   -0.5544 C.3     1  UNL1        0.1146
     11 C           2.9018   -0.0356   -0.1139 C.ar    1  UNL1       -0.0103
     12 C           3.6152    0.6107    0.8675 C.ar    1  UNL1       -0.0543
     13 C           4.8520    0.1685    1.2712 C.ar    1  UNL1       -0.0474
     14 C           5.3961   -0.9643    0.6695 C.ar    1  UNL1        0.0179
     15 BR          7.1049   -1.6091    1.1992 Br      1  UNL1       -0.0503
     16 C           4.7128   -1.6425   -0.3195 C.ar    1  UNL1       -0.0474
     17 C           3.4752   -1.1529   -0.6843 C.ar    1  UNL1       -0.0543
     18 C          -1.8596   -0.3294    0.5776 C.ar    1  UNL1       -0.0095
     19 H          -5.9187    0.8303    1.0851 H       1  UNL1        0.0309
     20 H          -6.3662   -0.8924    1.2244 H       1  UNL1        0.0309
     21 H          -5.8387   -0.2613   -0.3893 H       1  UNL1        0.0309
     22 H          -4.4740    1.1598   -0.9375 H       1  UNL1        0.0625
     23 H          -2.5678    2.1457   -2.2111 H       1  UNL1        0.0619
     24 H          -0.2171    1.5091   -1.6553 H       1  UNL1        0.0654
     25 H           1.4042    0.1865   -1.6249 H       1  UNL1        0.0748
     26 H           1.5012    1.5382   -0.4541 H       1  UNL1        0.0748
     27 H           3.1889    1.4878    1.3301 H       1  UNL1        0.0622
     28 H           5.4106    0.6814    2.0452 H       1  UNL1        0.0629
     29 H           5.1232   -2.5225   -0.7944 H       1  UNL1        0.0629
     30 H           2.9120   -1.6618   -1.4580 H       1  UNL1        0.0622
     31 H          -1.6540   -1.0449    1.3838 H       1  UNL1        0.0661
@<TRIPOS>BOND
     1     1     2    1
     2     2     3    2
     3     2     4    1
     4     4     5   ar
     5     5     6   ar
     6     6     7   ar
     7     7     8   ar
     8     8     9    1
     9     9    10    1
    10    10    11    1
    11    11    12   ar
    12    12    13   ar
    13    13    14   ar
    14    14    15    1
    15    14    16   ar
    16    16    17   ar
    17     8    18   ar
    18    18     4   ar
    19    17    11   ar
    20     1    19    1
    21     1    20    1
    22     1    21    1
    23     5    22    1
    24     6    23    1
    25     7    24    1
    26    10    25    1
    27    10    26    1
    28    12    27    1
    29    13    28    1
    30    16    29    1
    31    17    30    1
    32    18    31    1
