
     RDKit          3D

 50 53  0  0  0  0  0  0  0  0999 V2000
   -3.6508    2.2081    1.2728 O   0  0  0  0  0  0  0  0  0  0  0  0
   -3.4972    1.0055    0.9814 C   0  0  0  0  0  0  0  0  0  0  0  0
   -2.3630    0.2605    1.4745 C   0  0  2  0  0  0  0  0  0  0  0  0
   -1.0266    0.8172    0.9343 C   0  0  0  0  0  0  0  0  0  0  0  0
   -0.1247   -0.2580    1.4305 C   0  0  2  0  0  0  0  0  0  0  0  0
    1.2150   -0.2213    0.9853 N   0  0  0  0  0  0  0  0  0  0  0  0
    1.4551   -0.3035   -0.3951 C   0  0  0  0  0  0  0  0  0  0  0  0
    2.5210    0.6744   -0.8990 C   0  0  0  0  0  0  0  0  0  0  0  0
    3.6533    0.5392   -0.0089 N   0  0  0  0  0  0  0  0  0  0  0  0
    4.9482    0.1867   -0.4337 C   0  0  0  0  0  0  0  0  0  0  0  0
    5.9605    0.0748    0.4366 N   0  0  0  0  0  0  0  0  0  0  0  0
    7.2171   -0.2675    0.0224 C   0  0  0  0  0  0  0  0  0  0  0  0
    7.4682   -0.5068   -1.3158 C   0  0  0  0  0  0  0  0  0  0  0  0
    6.4115   -0.3854   -2.1903 C   0  0  0  0  0  0  0  0  0  0  0  0
    5.1937   -0.0441   -1.7190 N   0  0  0  0  0  0  0  0  0  0  0  0
    3.4174    0.7854    1.3950 C   0  0  0  0  0  0  0  0  0  0  0  0
    1.9467    0.7642    1.7123 C   0  0  0  0  0  0  0  0  0  0  0  0
   -0.8950   -1.4941    0.9536 C   0  0  0  0  0  0  0  0  0  0  0  0
   -2.2778   -1.1198    1.1312 N   0  0  0  0  0  0  0  0  0  0  0  0
   -4.4846    0.3715    0.1364 N   0  0  0  0  0  0  0  0  0  0  0  0
   -4.4337   -0.9888   -0.3016 C   0  0  0  0  0  0  0  0  0  0  0  0
   -5.6213   -1.1813   -1.2112 C   0  0  0  0  0  0  0  0  0  0  0  0
   -5.9922    0.2451   -1.6293 C   0  0  0  0  0  0  0  0  0  0  0  0
   -5.2329    0.6871   -2.6711 F   0  0  0  0  0  0  0  0  0  0  0  0
   -7.3518    0.2616   -1.9190 F   0  0  0  0  0  0  0  0  0  0  0  0
   -5.6727    1.0134   -0.3752 C   0  0  0  0  0  0  0  0  0  0  0  0
   -2.2489    0.4131    2.5957 H   0  0  0  0  0  0  0  0  0  0  0  0
   -1.1627    0.8147   -0.1667 H   0  0  0  0  0  0  0  0  0  0  0  0
   -0.8271    1.8114    1.3475 H   0  0  0  0  0  0  0  0  0  0  0  0
   -0.1769   -0.2794    2.5377 H   0  0  0  0  0  0  0  0  0  0  0  0
    0.5794   -0.1472   -1.0511 H   0  0  0  0  0  0  0  0  0  0  0  0
    1.8511   -1.3223   -0.6428 H   0  0  0  0  0  0  0  0  0  0  0  0
    2.0729    1.6859   -0.8163 H   0  0  0  0  0  0  0  0  0  0  0  0
    2.7508    0.4229   -1.9414 H   0  0  0  0  0  0  0  0  0  0  0  0
    8.0302   -0.3575    0.7204 H   0  0  0  0  0  0  0  0  0  0  0  0
    8.4716   -0.7816   -1.6575 H   0  0  0  0  0  0  0  0  0  0  0  0
    6.5975   -0.5701   -3.2355 H   0  0  0  0  0  0  0  0  0  0  0  0
    3.9826    0.0534    2.0138 H   0  0  0  0  0  0  0  0  0  0  0  0
    3.8033    1.7907    1.6316 H   0  0  0  0  0  0  0  0  0  0  0  0
    1.8455    0.5359    2.7942 H   0  0  0  0  0  0  0  0  0  0  0  0
    1.5295    1.7968    1.5842 H   0  0  0  0  0  0  0  0  0  0  0  0
   -0.6917   -1.5435   -0.1508 H   0  0  0  0  0  0  0  0  0  0  0  0
   -0.5986   -2.3968    1.4929 H   0  0  0  0  0  0  0  0  0  0  0  0
   -2.6271   -1.6990    1.9465 H   0  0  0  0  0  0  0  0  0  0  0  0
   -3.4834   -1.2336   -0.8384 H   0  0  0  0  0  0  0  0  0  0  0  0
   -4.5919   -1.6441    0.5808 H   0  0  0  0  0  0  0  0  0  0  0  0
   -6.4741   -1.6410   -0.6664 H   0  0  0  0  0  0  0  0  0  0  0  0
   -5.3608   -1.8026   -2.0751 H   0  0  0  0  0  0  0  0  0  0  0  0
   -6.5439    0.8763    0.3241 H   0  0  0  0  0  0  0  0  0  0  0  0
   -5.5106    2.0939   -0.5681 H   0  0  0  0  0  0  0  0  0  0  0  0
  1  2  2  0
  2  3  1  0
  3  4  1  0
  4  5  1  0
  5  6  1  0
  6  7  1  0
  7  8  1  0
  8  9  1  0
  9 10  1  0
 10 11  2  0
 11 12  1  0
 12 13  2  0
 13 14  1  0
 14 15  2  0
  9 16  1  0
 16 17  1  0
  5 18  1  0
 18 19  1  0
  2 20  1  0
 20 21  1  0
 21 22  1  0
 22 23  1  0
 23 24  1  0
 23 25  1  0
 23 26  1  0
 19  3  1  0
 26 20  1  0
 17  6  1  0
 15 10  1  0
  3 27  1  1
  4 28  1  0
  4 29  1  0
  5 30  1  1
  7 31  1  0
  7 32  1  0
  8 33  1  0
  8 34  1  0
 12 35  1  0
 13 36  1  0
 14 37  1  0
 16 38  1  0
 16 39  1  0
 17 40  1  0
 17 41  1  0
 18 42  1  0
 18 43  1  0
 19 44  1  0
 21 45  1  0
 21 46  1  0
 22 47  1  0
 22 48  1  0
 26 49  1  0
 26 50  1  0
M  END
$$$$
