@<TRIPOS>MOLECULE
*****
 50 53 0 0 0
SMALL
GASTEIGER

@<TRIPOS>ATOM
      1 O          -3.6508    2.2081    1.2728 O.2     1  UNL1       -0.2739
      2 C          -3.4972    1.0055    0.9814 C.2     1  UNL1        0.2328
      3 C          -2.3630    0.2605    1.4745 C.3     1  UNL1        0.0865
      4 C          -1.0266    0.8172    0.9343 C.3     1  UNL1       -0.0122
      5 C          -0.1247   -0.2580    1.4305 C.3     1  UNL1        0.0249
      6 N           1.2150   -0.2213    0.9853 N.3     1  UNL1       -0.2952
      7 C           1.4551   -0.3035   -0.3951 C.3     1  UNL1        0.0151
      8 C           2.5210    0.6744   -0.8990 C.3     1  UNL1        0.0277
      9 N           3.6533    0.5392   -0.0089 N.pl3   1  UNL1       -0.2972
     10 C           4.9482    0.1867   -0.4337 C.ar    1  UNL1        0.2178
     11 N           5.9605    0.0748    0.4366 N.ar    1  UNL1       -0.2228
     12 C           7.2171   -0.2675    0.0224 C.ar    1  UNL1        0.0326
     13 C           7.4682   -0.5068   -1.3158 C.ar    1  UNL1       -0.0253
     14 C           6.4115   -0.3854   -2.1903 C.ar    1  UNL1        0.0326
     15 N           5.1937   -0.0441   -1.7190 N.ar    1  UNL1       -0.2228
     16 C           3.4174    0.7854    1.3950 C.3     1  UNL1        0.0277
     17 C           1.9467    0.7642    1.7123 C.3     1  UNL1        0.0151
     18 C          -0.8950   -1.4941    0.9536 C.3     1  UNL1        0.0123
     19 N          -2.2778   -1.1198    1.1312 N.3     1  UNL1       -0.3041
     20 N          -4.4846    0.3715    0.1364 N.am    1  UNL1       -0.2943
     21 C          -4.4337   -0.9888   -0.3016 C.3     1  UNL1        0.0204
     22 C          -5.6213   -1.1813   -1.2112 C.3     1  UNL1        0.0281
     23 C          -5.9922    0.2451   -1.6293 C.3     1  UNL1        0.2657
     24 F          -5.2329    0.6871   -2.6711 F       1  UNL1       -0.2039
     25 F          -7.3518    0.2616   -1.9190 F       1  UNL1       -0.2039
     26 C          -5.6727    1.0134   -0.3752 C.3     1  UNL1        0.0781
     27 H          -2.2489    0.4131    2.5957 H       1  UNL1        0.0557
     28 H          -1.1627    0.8147   -0.1667 H       1  UNL1        0.0300
     29 H          -0.8271    1.8114    1.3475 H       1  UNL1        0.0300
     30 H          -0.1769   -0.2794    2.5377 H       1  UNL1        0.0476
     31 H           0.5794   -0.1472   -1.0511 H       1  UNL1        0.0442
     32 H           1.8511   -1.3223   -0.6428 H       1  UNL1        0.0442
     33 H           2.0729    1.6859   -0.8163 H       1  UNL1        0.0477
     34 H           2.7508    0.4229   -1.9414 H       1  UNL1        0.0477
     35 H           8.0302   -0.3575    0.7204 H       1  UNL1        0.0831
     36 H           8.4716   -0.7816   -1.6575 H       1  UNL1        0.0648
     37 H           6.5975   -0.5701   -3.2355 H       1  UNL1        0.0831
     38 H           3.9826    0.0534    2.0138 H       1  UNL1        0.0477
     39 H           3.8033    1.7907    1.6316 H       1  UNL1        0.0477
     40 H           1.8455    0.5359    2.7942 H       1  UNL1        0.0442
     41 H           1.5295    1.7968    1.5842 H       1  UNL1        0.0442
     42 H          -0.6917   -1.5435   -0.1508 H       1  UNL1        0.0440
     43 H          -0.5986   -2.3968    1.4929 H       1  UNL1        0.0440
     44 H          -2.6271   -1.6990    1.9465 H       1  UNL1        0.1227
     45 H          -3.4834   -1.2336   -0.8384 H       1  UNL1        0.0466
     46 H          -4.5919   -1.6441    0.5808 H       1  UNL1        0.0466
     47 H          -6.4741   -1.6410   -0.6664 H       1  UNL1        0.0338
     48 H          -5.3608   -1.8026   -2.0751 H       1  UNL1        0.0338
     49 H          -6.5439    0.8763    0.3241 H       1  UNL1        0.0523
     50 H          -5.5106    2.0939   -0.5681 H       1  UNL1        0.0523
@<TRIPOS>BOND
     1     1     2    2
     2     2     3    1
     3     3     4    1
     4     4     5    1
     5     5     6    1
     6     6     7    1
     7     7     8    1
     8     8     9    1
     9     9    10    1
    10    10    11   ar
    11    11    12   ar
    12    12    13   ar
    13    13    14   ar
    14    14    15   ar
    15     9    16    1
    16    16    17    1
    17     5    18    1
    18    18    19    1
    19     2    20   am
    20    20    21    1
    21    21    22    1
    22    22    23    1
    23    23    24    1
    24    23    25    1
    25    23    26    1
    26    19     3    1
    27    26    20    1
    28    17     6    1
    29    15    10   ar
    30     3    27    1
    31     4    28    1
    32     4    29    1
    33     5    30    1
    34     7    31    1
    35     7    32    1
    36     8    33    1
    37     8    34    1
    38    12    35    1
    39    13    36    1
    40    14    37    1
    41    16    38    1
    42    16    39    1
    43    17    40    1
    44    17    41    1
    45    18    42    1
    46    18    43    1
    47    19    44    1
    48    21    45    1
    49    21    46    1
    50    22    47    1
    51    22    48    1
    52    26    49    1
    53    26    50    1
