
     RDKit          3D

 57 62  0  0  0  0  0  0  0  0999 V2000
    6.1798   -0.4994   -1.8703 C   0  0  0  0  0  0  0  0  0  0  0  0
    5.0577   -0.5911   -1.0390 O   0  0  0  0  0  0  0  0  0  0  0  0
    4.5300   -1.8200   -0.6196 C   0  0  0  0  0  0  0  0  0  0  0  0
    5.0964   -2.9672   -1.0106 N   0  0  0  0  0  0  0  0  0  0  0  0
    4.6633   -4.1825   -0.6615 C   0  0  0  0  0  0  0  0  0  0  0  0
    3.5582   -4.2886    0.1576 C   0  0  0  0  0  0  0  0  0  0  0  0
    2.9477   -3.1235    0.5806 C   0  0  0  0  0  0  0  0  0  0  0  0
    3.4264   -1.8899    0.1974 C   0  0  0  0  0  0  0  0  0  0  0  0
    2.8117   -0.6805    0.6224 N   0  0  0  0  0  0  0  0  0  0  0  0
    3.3709    0.4008    1.1365 N   0  0  0  0  0  0  0  0  0  0  0  0
    2.4385    1.3272    1.4061 C   0  0  0  0  0  0  0  0  0  0  0  0
    2.6703    2.6755    1.9909 C   0  0  0  0  0  0  0  0  0  0  0  0
    1.2385    0.8041    1.0448 C   0  0  0  0  0  0  0  0  0  0  0  0
    1.4792   -0.4541    0.5549 C   0  0  0  0  0  0  0  0  0  0  0  0
    0.1936   -1.0118    0.1776 C   0  0  0  0  0  0  0  0  0  0  0  0
    0.0674   -2.1795   -0.3185 O   0  0  0  0  0  0  0  0  0  0  0  0
   -0.8364   -0.0704    0.4480 N   0  0  0  0  0  0  0  0  0  0  0  0
   -2.2177   -0.2976    0.2131 C   0  0  0  0  0  0  0  0  0  0  0  0
   -3.1753    0.6478    0.5167 C   0  0  0  0  0  0  0  0  0  0  0  0
   -4.5129    0.4051    0.2765 C   0  0  0  0  0  0  0  0  0  0  0  0
   -5.5405    1.4246    0.6042 C   0  0  0  0  0  0  0  0  0  0  0  0
   -4.8495   -0.8121   -0.2752 C   0  0  0  0  0  0  0  0  0  0  0  0
   -6.0422   -1.3534   -0.6274 N   0  0  0  0  0  0  0  0  0  0  0  0
   -5.8500   -2.5632   -1.1217 N   0  0  0  0  0  0  0  0  0  0  0  0
   -4.5344   -2.8364   -1.1029 C   0  0  0  0  0  0  0  0  0  0  0  0
   -3.8589   -4.0853   -1.5643 C   0  0  0  0  0  0  0  0  0  0  0  0
   -3.9209   -1.7377   -0.5733 N   0  0  0  0  0  0  0  0  0  0  0  0
   -2.6557   -1.4638   -0.3272 N   0  0  0  0  0  0  0  0  0  0  0  0
   -0.2073    1.0887    0.9784 C   0  0  0  0  0  0  0  0  0  0  0  0
   -0.4397    2.3328    0.1986 C   0  0  0  0  0  0  0  0  0  0  0  0
   -0.7180    3.5229    0.8360 C   0  0  0  0  0  0  0  0  0  0  0  0
   -0.9380    4.6970    0.1166 C   0  0  0  0  0  0  0  0  0  0  0  0
   -0.8785    4.6800   -1.2622 C   0  0  0  0  0  0  0  0  0  0  0  0
   -1.1485    6.1351   -2.2166 Cl  0  0  0  0  0  0  0  0  0  0  0  0
   -0.5996    3.4890   -1.9076 C   0  0  0  0  0  0  0  0  0  0  0  0
   -0.3856    2.3409   -1.1766 C   0  0  0  0  0  0  0  0  0  0  0  0
    6.1817    0.4742   -2.4092 H   0  0  0  0  0  0  0  0  0  0  0  0
    6.2856   -1.3600   -2.5529 H   0  0  0  0  0  0  0  0  0  0  0  0
    7.0781   -0.4681   -1.1868 H   0  0  0  0  0  0  0  0  0  0  0  0
    5.1291   -5.1050   -0.9835 H   0  0  0  0  0  0  0  0  0  0  0  0
    3.2043   -5.2724    0.4426 H   0  0  0  0  0  0  0  0  0  0  0  0
    2.0822   -3.2408    1.2229 H   0  0  0  0  0  0  0  0  0  0  0  0
    2.3069    2.7479    3.0245 H   0  0  0  0  0  0  0  0  0  0  0  0
    2.1459    3.4652    1.3960 H   0  0  0  0  0  0  0  0  0  0  0  0
    3.7357    2.9266    1.9918 H   0  0  0  0  0  0  0  0  0  0  0  0
   -2.8365    1.5919    0.9553 H   0  0  0  0  0  0  0  0  0  0  0  0
   -5.0690    2.2037    1.2235 H   0  0  0  0  0  0  0  0  0  0  0  0
   -6.3709    0.9904    1.2060 H   0  0  0  0  0  0  0  0  0  0  0  0
   -5.9219    1.9327   -0.3145 H   0  0  0  0  0  0  0  0  0  0  0  0
   -3.5163   -4.6626   -0.6800 H   0  0  0  0  0  0  0  0  0  0  0  0
   -2.9914   -3.8651   -2.2022 H   0  0  0  0  0  0  0  0  0  0  0  0
   -4.6061   -4.7045   -2.0851 H   0  0  0  0  0  0  0  0  0  0  0  0
   -0.6240    1.2588    2.0126 H   0  0  0  0  0  0  0  0  0  0  0  0
   -0.7665    3.5475    1.9023 H   0  0  0  0  0  0  0  0  0  0  0  0
   -1.1575    5.6404    0.5942 H   0  0  0  0  0  0  0  0  0  0  0  0
   -0.5447    3.4384   -2.9968 H   0  0  0  0  0  0  0  0  0  0  0  0
   -0.1646    1.3970   -1.6894 H   0  0  0  0  0  0  0  0  0  0  0  0
  1  2  1  0
  2  3  1  0
  3  4  2  0
  4  5  1  0
  5  6  2  0
  6  7  1  0
  7  8  2  0
  8  9  1  0
  9 10  1  0
 10 11  2  0
 11 12  1  0
 11 13  1  0
 13 14  2  0
 14 15  1  0
 15 16  2  0
 15 17  1  0
 17 18  1  0
 18 19  1  0
 19 20  2  0
 20 21  1  0
 20 22  1  0
 22 23  2  0
 23 24  1  0
 24 25  2  0
 25 26  1  0
 25 27  1  0
 27 28  1  0
 17 29  1  0
 29 30  1  0
 30 31  2  0
 31 32  1  0
 32 33  2  0
 33 34  1  0
 33 35  1  0
 35 36  2  0
  8  3  1  0
 14  9  1  0
 28 18  2  0
 36 30  1  0
 29 13  1  0
 27 22  1  0
  1 37  1  0
  1 38  1  0
  1 39  1  0
  5 40  1  0
  6 41  1  0
  7 42  1  0
 12 43  1  0
 12 44  1  0
 12 45  1  0
 19 46  1  0
 21 47  1  0
 21 48  1  0
 21 49  1  0
 26 50  1  0
 26 51  1  0
 26 52  1  0
 29 53  1  0
 31 54  1  0
 32 55  1  0
 35 56  1  0
 36 57  1  0
M  END
$$$$
