@<TRIPOS>MOLECULE
*****
 57 62 0 0 0
SMALL
GASTEIGER

@<TRIPOS>ATOM
      1 C           6.1798   -0.4994   -1.8703 C.3     1  UNL1        0.0805
      2 O           5.0577   -0.5911   -1.0390 O.3     1  UNL1       -0.4782
      3 C           4.5300   -1.8200   -0.6196 C.ar    1  UNL1        0.2408
      4 N           5.0964   -2.9672   -1.0106 N.ar    1  UNL1       -0.2195
      5 C           4.6633   -4.1825   -0.6615 C.ar    1  UNL1        0.0315
      6 C           3.5582   -4.2886    0.1576 C.ar    1  UNL1       -0.0413
      7 C           2.9477   -3.1235    0.5806 C.ar    1  UNL1       -0.0296
      8 C           3.4264   -1.8899    0.1974 C.ar    1  UNL1        0.1275
      9 N           2.8117   -0.6805    0.6224 N.ar    1  UNL1       -0.2219
     10 N           3.3709    0.4008    1.1365 N.ar    1  UNL1       -0.1704
     11 C           2.4385    1.3272    1.4061 C.ar    1  UNL1        0.0664
     12 C           2.6703    2.6755    1.9909 C.3     1  UNL1       -0.0202
     13 C           1.2385    0.8041    1.0448 C.ar    1  UNL1        0.0309
     14 C           1.4792   -0.4541    0.5549 C.ar    1  UNL1        0.1353
     15 C           0.1936   -1.0118    0.1776 C.2     1  UNL1        0.2715
     16 O           0.0674   -2.1795   -0.3185 O.2     1  UNL1       -0.2679
     17 N          -0.8364   -0.0704    0.4480 N.am    1  UNL1       -0.2376
     18 C          -2.2177   -0.2976    0.2131 C.ar    1  UNL1        0.1499
     19 C          -3.1753    0.6478    0.5167 C.ar    1  UNL1       -0.0131
     20 C          -4.5129    0.4051    0.2765 C.ar    1  UNL1       -0.0012
     21 C          -5.5405    1.4246    0.6042 C.3     1  UNL1       -0.0360
     22 C          -4.8495   -0.8121   -0.2752 C.ar    1  UNL1        0.1809
     23 N          -6.0422   -1.3534   -0.6274 N.ar    1  UNL1       -0.1277
     24 N          -5.8500   -2.5632   -1.1217 N.ar    1  UNL1       -0.1325
     25 C          -4.5344   -2.8364   -1.1029 C.ar    1  UNL1        0.1521
     26 C          -3.8589   -4.0853   -1.5643 C.3     1  UNL1       -0.0027
     27 N          -3.9209   -1.7377   -0.5733 N.ar    1  UNL1       -0.1953
     28 N          -2.6557   -1.4638   -0.3272 N.ar    1  UNL1       -0.1478
     29 C          -0.2073    1.0887    0.9784 C.3     1  UNL1        0.0868
     30 C          -0.4397    2.3328    0.1986 C.ar    1  UNL1       -0.0220
     31 C          -0.7180    3.5229    0.8360 C.ar    1  UNL1       -0.0551
     32 C          -0.9380    4.6970    0.1166 C.ar    1  UNL1       -0.0431
     33 C          -0.8785    4.6800   -1.2622 C.ar    1  UNL1        0.0410
     34 CL         -1.1485    6.1351   -2.2166 Cl      1  UNL1       -0.0835
     35 C          -0.5996    3.4890   -1.9076 C.ar    1  UNL1       -0.0431
     36 C          -0.3856    2.3409   -1.1766 C.ar    1  UNL1       -0.0551
     37 H           6.1817    0.4742   -2.4092 H       1  UNL1        0.0660
     38 H           6.2856   -1.3600   -2.5529 H       1  UNL1        0.0660
     39 H           7.0781   -0.4681   -1.1868 H       1  UNL1        0.0660
     40 H           5.1291   -5.1050   -0.9835 H       1  UNL1        0.0831
     41 H           3.2043   -5.2724    0.4426 H       1  UNL1        0.0633
     42 H           2.0822   -3.2408    1.2229 H       1  UNL1        0.0641
     43 H           2.3069    2.7479    3.0245 H       1  UNL1        0.0293
     44 H           2.1459    3.4652    1.3960 H       1  UNL1        0.0293
     45 H           3.7357    2.9266    1.9918 H       1  UNL1        0.0293
     46 H          -2.8365    1.5919    0.9553 H       1  UNL1        0.0656
     47 H          -5.0690    2.2037    1.2235 H       1  UNL1        0.0279
     48 H          -6.3709    0.9904    1.2060 H       1  UNL1        0.0279
     49 H          -5.9219    1.9327   -0.3145 H       1  UNL1        0.0279
     50 H          -3.5163   -4.6626   -0.6800 H       1  UNL1        0.0309
     51 H          -2.9914   -3.8651   -2.2022 H       1  UNL1        0.0309
     52 H          -4.6061   -4.7045   -2.0851 H       1  UNL1        0.0309
     53 H          -0.6240    1.2588    2.0126 H       1  UNL1        0.0606
     54 H          -0.7665    3.5475    1.9023 H       1  UNL1        0.0621
     55 H          -1.1575    5.6404    0.5942 H       1  UNL1        0.0632
     56 H          -0.5447    3.4384   -2.9968 H       1  UNL1        0.0632
     57 H          -0.1646    1.3970   -1.6894 H       1  UNL1        0.0621
@<TRIPOS>BOND
     1     1     2    1
     2     2     3    1
     3     3     4   ar
     4     4     5   ar
     5     5     6   ar
     6     6     7   ar
     7     7     8   ar
     8     8     9    1
     9     9    10   ar
    10    10    11   ar
    11    11    12    1
    12    11    13   ar
    13    13    14   ar
    14    14    15    1
    15    15    16    2
    16    15    17   am
    17    17    18    1
    18    18    19   ar
    19    19    20   ar
    20    20    21    1
    21    20    22   ar
    22    22    23   ar
    23    23    24   ar
    24    24    25   ar
    25    25    26    1
    26    25    27   ar
    27    27    28   ar
    28    17    29    1
    29    29    30    1
    30    30    31   ar
    31    31    32   ar
    32    32    33   ar
    33    33    34    1
    34    33    35   ar
    35    35    36   ar
    36     8     3   ar
    37    14     9   ar
    38    28    18   ar
    39    36    30   ar
    40    29    13    1
    41    27    22   ar
    42     1    37    1
    43     1    38    1
    44     1    39    1
    45     5    40    1
    46     6    41    1
    47     7    42    1
    48    12    43    1
    49    12    44    1
    50    12    45    1
    51    19    46    1
    52    21    47    1
    53    21    48    1
    54    21    49    1
    55    26    50    1
    56    26    51    1
    57    26    52    1
    58    29    53    1
    59    31    54    1
    60    32    55    1
    61    35    56    1
    62    36    57    1
