@<TRIPOS>MOLECULE
*****
 42 45 0 0 0
SMALL
GASTEIGER

@<TRIPOS>ATOM
      1 C           2.7911    0.9362   -1.4678 C.3     1  UNL1       -0.0275
      2 C           2.0286    0.4556   -0.2305 C.3     1  UNL1        0.1021
      3 O           0.7412    0.3643   -0.3187 O.3     1  UNL1       -0.4880
      4 C          -0.5439    0.3122   -0.3669 C.ar    1  UNL1        0.1322
      5 C          -1.2365   -0.5432   -1.2391 C.ar    1  UNL1       -0.0100
      6 C          -2.6022   -0.6227   -1.3150 C.ar    1  UNL1        0.0064
      7 C          -3.2931   -1.5479   -2.2601 C.ar    1  UNL1        0.0783
      8 C          -4.6474   -1.6000   -2.3066 C.ar    1  UNL1        0.0031
      9 S          -4.9705   -2.8648   -3.6013 S.2     1  UNL1       -0.0833
     10 C          -3.0861   -3.1060   -3.8582 C.ar    1  UNL1        0.0654
     11 N          -2.6809   -2.3629   -3.0987 N.ar    1  UNL1       -0.2474
     12 C          -3.3115    0.1968   -0.4739 C.ar    1  UNL1       -0.0246
     13 C          -2.6732    1.0591    0.4054 C.ar    1  UNL1        0.0968
     14 N          -3.1371    1.9499    1.3186 N.ar    1  UNL1       -0.1713
     15 N          -2.1287    2.5432    1.9216 N.ar    1  UNL1       -0.2732
     16 C          -2.2209    3.5744    2.9770 C.3     1  UNL1        0.0302
     17 C          -0.9803    2.0645    1.4274 C.ar    1  UNL1        0.0364
     18 C          -1.3082    1.1312    0.4737 C.ar    1  UNL1        0.0614
     19 C           2.7979   -0.7856    0.2187 C.3     1  UNL1        0.0195
     20 C           4.2245   -0.4063    0.5415 C.3     1  UNL1        0.0182
     21 N           4.6435   -1.4779    1.4217 N.am    1  UNL1       -0.3149
     22 C           3.4914   -1.8603    2.1530 C.2     1  UNL1        0.2135
     23 O           3.5168   -2.5768    3.1781 O.2     1  UNL1       -0.2758
     24 C           2.2688   -1.2979    1.5387 C.3     1  UNL1        0.0315
     25 H           3.8040    1.2139   -1.1143 H       1  UNL1        0.0265
     26 H           2.9146    0.1314   -2.2107 H       1  UNL1        0.0265
     27 H           2.3458    1.8611   -1.8782 H       1  UNL1        0.0265
     28 H           2.3226    1.2315    0.5569 H       1  UNL1        0.0733
     29 H          -0.6708   -1.1937   -1.9068 H       1  UNL1        0.0661
     30 H          -5.4577   -1.0802   -1.7695 H       1  UNL1        0.0715
     31 H          -2.8002   -3.8383   -4.6104 H       1  UNL1        0.0907
     32 H          -4.3857    0.1600   -0.5077 H       1  UNL1        0.0646
     33 H          -1.7081    4.4787    2.6130 H       1  UNL1        0.0473
     34 H          -1.6887    3.1785    3.8534 H       1  UNL1        0.0473
     35 H          -3.2582    3.7634    3.2512 H       1  UNL1        0.0473
     36 H           0.0290    2.3447    1.7103 H       1  UNL1        0.0833
     37 H           2.8084   -1.5497   -0.5730 H       1  UNL1        0.0356
     38 H           4.8419   -0.3671   -0.3822 H       1  UNL1        0.0466
     39 H           4.2505    0.5540    1.0882 H       1  UNL1        0.0466
     40 H           5.6183   -1.8355    1.4478 H       1  UNL1        0.1487
     41 H           1.5300   -2.1030    1.2776 H       1  UNL1        0.0363
     42 H           1.8211   -0.4847    2.1158 H       1  UNL1        0.0363
@<TRIPOS>BOND
     1     1     2    1
     2     2     3    1
     3     3     4    1
     4     4     5   ar
     5     5     6   ar
     6     6     7    1
     7     7     8   ar
     8     8     9   ar
     9     9    10   ar
    10    10    11   ar
    11     6    12   ar
    12    12    13   ar
    13    13    14   ar
    14    14    15   ar
    15    15    16    1
    16    15    17   ar
    17    17    18   ar
    18     2    19    1
    19    19    20    1
    20    20    21    1
    21    21    22   am
    22    22    23    2
    23    22    24    1
    24    18     4   ar
    25    24    19    1
    26    11     7   ar
    27    18    13   ar
    28     1    25    1
    29     1    26    1
    30     1    27    1
    31     2    28    1
    32     5    29    1
    33     8    30    1
    34    10    31    1
    35    12    32    1
    36    16    33    1
    37    16    34    1
    38    16    35    1
    39    17    36    1
    40    19    37    1
    41    20    38    1
    42    20    39    1
    43    21    40    1
    44    24    41    1
    45    24    42    1
