@<TRIPOS>MOLECULE
*****
 49 53 0 0 0
SMALL
GASTEIGER

@<TRIPOS>ATOM
      1 C          -4.0345    3.4127   -0.0132 C.3     1  UNL1       -0.0652
      2 C          -2.7871    3.5587   -0.8609 C.3     1  UNL1       -0.0543
      3 C          -2.2685    2.1353   -1.0987 C.3     1  UNL1       -0.0352
      4 C          -1.9800    1.5627    0.2708 C.3     1  UNL1        0.0238
      5 N          -1.4832    0.2273    0.2304 N.ar    1  UNL1       -0.3397
      6 C          -2.2532   -0.8749    0.2650 C.ar    1  UNL1        0.0503
      7 C          -3.6458   -1.0051    0.3442 C.ar    1  UNL1       -0.0341
      8 C          -4.2201   -2.2504    0.3663 C.ar    1  UNL1       -0.0182
      9 C          -3.4566   -3.3813    0.3123 C.ar    1  UNL1        0.1176
     10 O          -4.0212   -4.6707    0.3334 O.3     1  UNL1       -0.5067
     11 C          -2.0721   -3.2287    0.2338 C.ar    1  UNL1       -0.0104
     12 C          -1.4635   -2.0091    0.2095 C.ar    1  UNL1        0.0118
     13 C          -0.1435   -1.5533    0.1374 C.ar    1  UNL1        0.0206
     14 C           1.0366   -2.2320    0.0633 C.ar    1  UNL1        0.0595
     15 C           2.2180   -1.4776    0.0019 C.ar    1  UNL1        0.0576
     16 C           2.1642   -0.0971    0.0172 C.ar    1  UNL1       -0.0017
     17 C           3.4156    0.6635   -0.0482 C.ar    1  UNL1        0.0012
     18 C           4.1145    1.0374    1.0775 C.ar    1  UNL1       -0.0526
     19 C           5.3014    1.7592    1.0045 C.ar    1  UNL1       -0.0611
     20 C           5.7693    2.0981   -0.2647 C.ar    1  UNL1       -0.0603
     21 C           5.1003    1.7430   -1.4066 C.ar    1  UNL1       -0.0428
     22 C           3.9330    1.0310   -1.2878 C.ar    1  UNL1        0.0487
     23 CL          3.0454    0.5556   -2.7061 Cl      1  UNL1       -0.0829
     24 C           0.9675    0.5821    0.0922 C.ar    1  UNL1       -0.0290
     25 C          -0.2086   -0.1739    0.1534 C.ar    1  UNL1        0.0514
     26 C           3.3769   -2.3609   -0.0727 C.2     1  UNL1        0.2518
     27 O           4.5937   -2.0191   -0.1399 O.2     1  UNL1       -0.2697
     28 N           2.8765   -3.6737   -0.0555 N.am    1  UNL1       -0.2483
     29 C           1.4364   -3.6230    0.0280 C.2     1  UNL1        0.2519
     30 O           0.7732   -4.6703    0.0569 O.2     1  UNL1       -0.2697
     31 H          -3.7936    3.4262    1.0810 H       1  UNL1        0.0230
     32 H          -4.5810    2.4743   -0.2104 H       1  UNL1        0.0230
     33 H          -4.6726    4.2929   -0.2203 H       1  UNL1        0.0230
     34 H          -3.0728    4.0417   -1.8119 H       1  UNL1        0.0263
     35 H          -2.0580    4.1422   -0.2680 H       1  UNL1        0.0263
     36 H          -3.1148    1.5939   -1.5674 H       1  UNL1        0.0282
     37 H          -1.4225    2.1070   -1.7812 H       1  UNL1        0.0282
     38 H          -1.3257    2.2262    0.8681 H       1  UNL1        0.0492
     39 H          -2.9704    1.5740    0.8145 H       1  UNL1        0.0492
     40 H          -4.2470   -0.0926    0.3869 H       1  UNL1        0.0639
     41 H          -5.2957   -2.3071    0.4278 H       1  UNL1        0.0655
     42 H          -4.2604   -5.0627   -0.5657 H       1  UNL1        0.2921
     43 H          -1.4983   -4.1266    0.1927 H       1  UNL1        0.0661
     44 H           3.7506    0.7741    2.0585 H       1  UNL1        0.0624
     45 H           5.8338    2.0424    1.9009 H       1  UNL1        0.0618
     46 H           6.6927    2.6580   -0.2816 H       1  UNL1        0.0618
     47 H           5.5130    2.0345   -2.3569 H       1  UNL1        0.0632
     48 H           0.9544    1.6646    0.1026 H       1  UNL1        0.0645
     49 H           3.4837   -4.5286   -0.0981 H       1  UNL1        0.1581
@<TRIPOS>BOND
     1     1     2    1
     2     2     3    1
     3     3     4    1
     4     4     5    1
     5     5     6   ar
     6     6     7   ar
     7     7     8   ar
     8     8     9   ar
     9     9    10    1
    10     9    11   ar
    11    11    12   ar
    12    12    13   ar
    13    13    14   ar
    14    14    15   ar
    15    15    16   ar
    16    16    17    1
    17    17    18   ar
    18    18    19   ar
    19    19    20   ar
    20    20    21   ar
    21    21    22   ar
    22    22    23    1
    23    16    24   ar
    24    24    25   ar
    25    15    26    1
    26    26    27    2
    27    26    28   am
    28    28    29   am
    29    29    30    2
    30    25     5   ar
    31    12     6   ar
    32    25    13   ar
    33    29    14    1
    34    22    17   ar
    35     1    31    1
    36     1    32    1
    37     1    33    1
    38     2    34    1
    39     2    35    1
    40     3    36    1
    41     3    37    1
    42     4    38    1
    43     4    39    1
    44     7    40    1
    45     8    41    1
    46    10    42    1
    47    11    43    1
    48    18    44    1
    49    19    45    1
    50    20    46    1
    51    21    47    1
    52    24    48    1
    53    28    49    1
