@<TRIPOS>MOLECULE
*****
 31 33 0 0 0
SMALL
GASTEIGER

@<TRIPOS>ATOM
      1 O           6.2888   -0.0160    1.1532 O.3     1  UNL1       -0.5068
      2 C           5.1073   -0.2819    0.4445 C.ar    1  UNL1        0.1170
      3 C           5.1068   -0.9914   -0.7229 C.ar    1  UNL1       -0.0184
      4 C           3.9151   -1.2193   -1.3682 C.ar    1  UNL1       -0.0370
      5 C           2.7215   -0.7747   -0.9085 C.ar    1  UNL1        0.0330
      6 N           1.4746   -1.0335   -1.5857 N.pl3   1  UNL1       -0.2937
      7 C           0.3516   -0.2578   -1.2027 C.ar    1  UNL1        0.1629
      8 N          -0.8164   -0.3399   -0.8845 N.ar    1  UNL1       -0.2247
      9 C          -1.6323    0.6155   -0.5847 C.ar    1  UNL1        0.0802
     10 C          -3.0360    0.3946   -0.1971 C.ar    1  UNL1        0.0010
     11 C          -3.5648   -0.8771   -0.1252 C.ar    1  UNL1       -0.0512
     12 C          -4.8803   -1.1008    0.2359 C.ar    1  UNL1       -0.0428
     13 C          -5.7242   -0.0580    0.5427 C.ar    1  UNL1        0.0410
     14 CL         -7.3991   -0.3404    1.0021 Cl      1  UNL1       -0.0835
     15 C          -5.2156    1.2197    0.4778 C.ar    1  UNL1       -0.0428
     16 C          -3.8897    1.4274    0.1115 C.ar    1  UNL1       -0.0512
     17 C          -1.1250    1.8889   -0.6281 C.ar    1  UNL1        0.0049
     18 S           0.5454    1.6229   -1.1117 S.2     1  UNL1       -0.0599
     19 C           2.7362   -0.0530    0.2826 C.ar    1  UNL1       -0.0370
     20 C           3.9144    0.1888    0.9481 C.ar    1  UNL1       -0.0184
     21 H           7.0873    0.2932    0.6154 H       1  UNL1        0.2921
     22 H           6.0593   -1.3536   -1.1086 H       1  UNL1        0.0655
     23 H           3.9550   -1.7956   -2.3102 H       1  UNL1        0.0637
     24 H           1.4743   -1.7746   -2.3133 H       1  UNL1        0.1541
     25 H          -2.8987   -1.7164   -0.3675 H       1  UNL1        0.0625
     26 H          -5.2778   -2.1137    0.2869 H       1  UNL1        0.0632
     27 H          -5.8359    2.0716    0.7107 H       1  UNL1        0.0632
     28 H          -3.5139    2.4467    0.0672 H       1  UNL1        0.0625
     29 H          -1.5983    2.8600   -0.4214 H       1  UNL1        0.0716
     30 H           1.7753    0.3111    0.6748 H       1  UNL1        0.0637
     31 H           3.8950    0.7573    1.8893 H       1  UNL1        0.0655
@<TRIPOS>BOND
     1     1     2    1
     2     2     3   ar
     3     3     4   ar
     4     4     5   ar
     5     5     6    1
     6     6     7    1
     7     7     8   ar
     8     8     9   ar
     9     9    10    1
    10    10    11   ar
    11    11    12   ar
    12    12    13   ar
    13    13    14    1
    14    13    15   ar
    15    15    16   ar
    16     9    17   ar
    17    17    18   ar
    18     5    19   ar
    19    19    20   ar
    20    20     2   ar
    21    18     7   ar
    22    16    10   ar
    23     1    21    1
    24     3    22    1
    25     4    23    1
    26     6    24    1
    27    11    25    1
    28    12    26    1
    29    15    27    1
    30    16    28    1
    31    17    29    1
    32    19    30    1
    33    20    31    1
