@<TRIPOS>MOLECULE
*****
 46 46 0 0 0
SMALL
GASTEIGER

@<TRIPOS>ATOM
      1 C           7.9376    1.3451   -0.3428 C.3     1  UNL1       -0.0397
      2 C           6.6503    0.5610   -0.2460 C.ar    1  UNL1       -0.0503
      3 C           5.5149    1.1430    0.2628 C.ar    1  UNL1       -0.0570
      4 C           4.3121    0.4475    0.3539 C.ar    1  UNL1       -0.0391
      5 C           4.2565   -0.8559   -0.0757 C.ar    1  UNL1        0.0444
      6 N           3.0732   -1.6472   -0.0613 N.pl3   1  UNL1       -0.2644
      7 N           1.9299   -1.0600   -0.6013 N.am    1  UNL1       -0.2343
      8 C           1.0028   -0.4436    0.2714 C.2     1  UNL1        0.2592
      9 O           1.2434   -0.4523    1.5167 O.2     1  UNL1       -0.2714
     10 C          -0.2231    0.2075   -0.1770 C.3     1  UNL1        0.1473
     11 O          -0.3596    0.2618   -1.5403 O.3     1  UNL1       -0.3810
     12 C          -1.3989   -0.4157    0.5238 C.3     1  UNL1        0.0405
     13 N          -1.7277   -1.7426    0.1193 N.3     1  UNL1       -0.3247
     14 C          -2.6326    0.4325    0.5791 C.3     1  UNL1       -0.0258
     15 C          -3.6780   -0.4095    1.3352 C.3     1  UNL1       -0.0046
     16 S          -5.2044    0.4956    1.5474 S.3     1  UNL1       -0.1579
     17 C          -5.9775    0.7813   -0.0507 C.3     1  UNL1       -0.0004
     18 C          -6.4194   -0.5511   -0.6199 C.3     1  UNL1       -0.0536
     19 C          -7.1653    1.7026    0.1718 C.3     1  UNL1       -0.0536
     20 C           5.4022   -1.4434   -0.5896 C.ar    1  UNL1       -0.0391
     21 C           6.6032   -0.7418   -0.6778 C.ar    1  UNL1       -0.0570
     22 H           8.6970    0.7044   -0.8424 H       1  UNL1        0.0278
     23 H           7.6878    2.2357   -0.9846 H       1  UNL1        0.0278
     24 H           8.2079    1.6641    0.6641 H       1  UNL1        0.0278
     25 H           5.5698    2.1635    0.6038 H       1  UNL1        0.0621
     26 H           3.4463    0.9444    0.7596 H       1  UNL1        0.0637
     27 H           3.0289   -2.6086    0.3285 H       1  UNL1        0.1700
     28 H           1.7873   -1.0917   -1.6515 H       1  UNL1        0.1728
     29 H          -0.1715    1.2707    0.1867 H       1  UNL1        0.0706
     30 H          -0.6080    1.1672   -1.8614 H       1  UNL1        0.2105
     31 H          -1.0674   -0.5169    1.6197 H       1  UNL1        0.0489
     32 H          -1.8424   -1.8582   -0.9127 H       1  UNL1        0.1186
     33 H          -1.1457   -2.4872    0.5656 H       1  UNL1        0.1186
     34 H          -2.4502    1.3652    1.1542 H       1  UNL1        0.0289
     35 H          -2.9958    0.6281   -0.4453 H       1  UNL1        0.0289
     36 H          -3.1926   -0.7022    2.2927 H       1  UNL1        0.0377
     37 H          -3.8208   -1.3465    0.7278 H       1  UNL1        0.0377
     38 H          -5.2214    1.2461   -0.7509 H       1  UNL1        0.0407
     39 H          -6.7489   -1.1791    0.2285 H       1  UNL1        0.0240
     40 H          -7.2322   -0.3431   -1.3410 H       1  UNL1        0.0240
     41 H          -5.6054   -1.0176   -1.1631 H       1  UNL1        0.0240
     42 H          -7.3691    1.7910    1.2496 H       1  UNL1        0.0240
     43 H          -8.0408    1.3207   -0.3761 H       1  UNL1        0.0240
     44 H          -6.8962    2.7045   -0.1831 H       1  UNL1        0.0240
     45 H           5.3440   -2.4779   -0.9318 H       1  UNL1        0.0637
     46 H           7.4997   -1.1915   -1.0813 H       1  UNL1        0.0621
@<TRIPOS>BOND
     1     1     2    1
     2     2     3   ar
     3     3     4   ar
     4     4     5   ar
     5     5     6    1
     6     6     7    1
     7     7     8   am
     8     8     9    2
     9     8    10    1
    10    10    11    1
    11    10    12    1
    12    12    13    1
    13    12    14    1
    14    14    15    1
    15    15    16    1
    16    16    17    1
    17    17    18    1
    18    17    19    1
    19     5    20   ar
    20    20    21   ar
    21    21     2   ar
    22     1    22    1
    23     1    23    1
    24     1    24    1
    25     3    25    1
    26     4    26    1
    27     6    27    1
    28     7    28    1
    29    10    29    1
    30    11    30    1
    31    12    31    1
    32    13    32    1
    33    13    33    1
    34    14    34    1
    35    14    35    1
    36    15    36    1
    37    15    37    1
    38    17    38    1
    39    18    39    1
    40    18    40    1
    41    18    41    1
    42    19    42    1
    43    19    43    1
    44    19    44    1
    45    20    45    1
    46    21    46    1
