
     RDKit          3D

 46 46  0  0  0  0  0  0  0  0999 V2000
    7.9376    1.3451   -0.3428 C   0  0  0  0  0  0  0  0  0  0  0  0
    6.6503    0.5610   -0.2460 C   0  0  0  0  0  0  0  0  0  0  0  0
    5.5149    1.1430    0.2628 C   0  0  0  0  0  0  0  0  0  0  0  0
    4.3121    0.4475    0.3539 C   0  0  0  0  0  0  0  0  0  0  0  0
    4.2565   -0.8559   -0.0757 C   0  0  0  0  0  0  0  0  0  0  0  0
    3.0732   -1.6472   -0.0613 N   0  0  0  0  0  0  0  0  0  0  0  0
    1.9299   -1.0600   -0.6013 N   0  0  0  0  0  0  0  0  0  0  0  0
    1.0028   -0.4436    0.2714 C   0  0  0  0  0  0  0  0  0  0  0  0
    1.2434   -0.4523    1.5167 O   0  0  0  0  0  0  0  0  0  0  0  0
   -0.2231    0.2075   -0.1770 C   0  0  1  0  0  0  0  0  0  0  0  0
   -0.3596    0.2618   -1.5403 O   0  0  0  0  0  0  0  0  0  0  0  0
   -1.3989   -0.4157    0.5238 C   0  0  2  0  0  0  0  0  0  0  0  0
   -1.7277   -1.7426    0.1193 N   0  0  0  0  0  0  0  0  0  0  0  0
   -2.6326    0.4325    0.5791 C   0  0  0  0  0  0  0  0  0  0  0  0
   -3.6780   -0.4095    1.3352 C   0  0  0  0  0  0  0  0  0  0  0  0
   -5.2044    0.4956    1.5474 S   0  0  0  0  0  0  0  0  0  0  0  0
   -5.9775    0.7813   -0.0507 C   0  0  0  0  0  0  0  0  0  0  0  0
   -6.4194   -0.5511   -0.6199 C   0  0  0  0  0  0  0  0  0  0  0  0
   -7.1653    1.7026    0.1718 C   0  0  0  0  0  0  0  0  0  0  0  0
    5.4022   -1.4434   -0.5896 C   0  0  0  0  0  0  0  0  0  0  0  0
    6.6032   -0.7418   -0.6778 C   0  0  0  0  0  0  0  0  0  0  0  0
    8.6970    0.7044   -0.8424 H   0  0  0  0  0  0  0  0  0  0  0  0
    7.6878    2.2357   -0.9846 H   0  0  0  0  0  0  0  0  0  0  0  0
    8.2079    1.6641    0.6641 H   0  0  0  0  0  0  0  0  0  0  0  0
    5.5698    2.1635    0.6038 H   0  0  0  0  0  0  0  0  0  0  0  0
    3.4463    0.9444    0.7596 H   0  0  0  0  0  0  0  0  0  0  0  0
    3.0289   -2.6086    0.3285 H   0  0  0  0  0  0  0  0  0  0  0  0
    1.7873   -1.0917   -1.6515 H   0  0  0  0  0  0  0  0  0  0  0  0
   -0.1715    1.2707    0.1867 H   0  0  0  0  0  0  0  0  0  0  0  0
   -0.6080    1.1672   -1.8614 H   0  0  0  0  0  0  0  0  0  0  0  0
   -1.0674   -0.5169    1.6197 H   0  0  0  0  0  0  0  0  0  0  0  0
   -1.8424   -1.8582   -0.9127 H   0  0  0  0  0  0  0  0  0  0  0  0
   -1.1457   -2.4872    0.5656 H   0  0  0  0  0  0  0  0  0  0  0  0
   -2.4502    1.3652    1.1542 H   0  0  0  0  0  0  0  0  0  0  0  0
   -2.9958    0.6281   -0.4453 H   0  0  0  0  0  0  0  0  0  0  0  0
   -3.1926   -0.7022    2.2927 H   0  0  0  0  0  0  0  0  0  0  0  0
   -3.8208   -1.3465    0.7278 H   0  0  0  0  0  0  0  0  0  0  0  0
   -5.2214    1.2461   -0.7509 H   0  0  0  0  0  0  0  0  0  0  0  0
   -6.7489   -1.1791    0.2285 H   0  0  0  0  0  0  0  0  0  0  0  0
   -7.2322   -0.3431   -1.3410 H   0  0  0  0  0  0  0  0  0  0  0  0
   -5.6054   -1.0176   -1.1631 H   0  0  0  0  0  0  0  0  0  0  0  0
   -7.3691    1.7910    1.2496 H   0  0  0  0  0  0  0  0  0  0  0  0
   -8.0408    1.3207   -0.3761 H   0  0  0  0  0  0  0  0  0  0  0  0
   -6.8962    2.7045   -0.1831 H   0  0  0  0  0  0  0  0  0  0  0  0
    5.3440   -2.4779   -0.9318 H   0  0  0  0  0  0  0  0  0  0  0  0
    7.4997   -1.1915   -1.0813 H   0  0  0  0  0  0  0  0  0  0  0  0
  1  2  1  0
  2  3  2  0
  3  4  1  0
  4  5  2  0
  5  6  1  0
  6  7  1  0
  7  8  1  0
  8  9  2  0
  8 10  1  0
 10 11  1  0
 10 12  1  0
 12 13  1  0
 12 14  1  0
 14 15  1  0
 15 16  1  0
 16 17  1  0
 17 18  1  0
 17 19  1  0
  5 20  1  0
 20 21  2  0
 21  2  1  0
  1 22  1  0
  1 23  1  0
  1 24  1  0
  3 25  1  0
  4 26  1  0
  6 27  1  0
  7 28  1  0
 10 29  1  1
 11 30  1  0
 12 31  1  1
 13 32  1  0
 13 33  1  0
 14 34  1  0
 14 35  1  0
 15 36  1  0
 15 37  1  0
 17 38  1  0
 18 39  1  0
 18 40  1  0
 18 41  1  0
 19 42  1  0
 19 43  1  0
 19 44  1  0
 20 45  1  0
 21 46  1  0
M  END
$$$$
