@<TRIPOS>MOLECULE
*****
 27 28 0 0 0
SMALL
GASTEIGER

@<TRIPOS>ATOM
      1 C          -0.9473   -0.4452   -0.1533 C.3     1  UNL1        0.0343
      2 C          -0.6540   -1.7290   -0.9274 C.3     1  UNL1       -0.0294
      3 C           0.4424   -1.3250   -1.9150 C.3     1  UNL1       -0.0257
      4 C           1.2756   -0.4561   -1.0146 C.ar    1  UNL1       -0.0424
      5 C           2.6228   -0.2145   -1.1809 C.ar    1  UNL1       -0.0548
      6 C           3.2645    0.5878   -0.2669 C.ar    1  UNL1       -0.0199
      7 C           2.5365    1.1145    0.7728 C.ar    1  UNL1        0.1172
      8 O           3.2083    1.9138    1.6686 O.3     1  UNL1       -0.5068
      9 C           1.1932    0.8333    0.8805 C.ar    1  UNL1       -0.0153
     10 C           0.4669    0.0461    0.0196 C.ar    1  UNL1       -0.0238
     11 N          -1.6330   -0.6863    1.0618 N.3     1  UNL1       -0.2989
     12 C          -2.2255    0.5330    1.5506 C.3     1  UNL1        0.0586
     13 C          -3.3498    0.9487    0.6724 C.1     1  UNL1       -0.0902
     14 C          -4.2494    1.2767   -0.0543 C.1     1  UNL1       -0.1179
     15 H          -1.4416    0.2669   -0.8449 H       1  UNL1        0.0510
     16 H          -1.5239   -2.0089   -1.5259 H       1  UNL1        0.0287
     17 H          -0.3454   -2.5482   -0.2816 H       1  UNL1        0.0287
     18 H           0.0607   -0.7882   -2.7776 H       1  UNL1        0.0314
     19 H           1.0290   -2.2391   -2.1226 H       1  UNL1        0.0314
     20 H           3.1989   -0.6187   -1.9828 H       1  UNL1        0.0622
     21 H           4.2994    0.7830   -0.3781 H       1  UNL1        0.0654
     22 H           3.5288    1.6206    2.5804 H       1  UNL1        0.2921
     23 H           0.7413    1.2952    1.7369 H       1  UNL1        0.0657
     24 H          -2.2940   -1.4640    1.0855 H       1  UNL1        0.1234
     25 H          -1.5344    1.3877    1.5217 H       1  UNL1        0.0561
     26 H          -2.6360    0.3601    2.5827 H       1  UNL1        0.0561
     27 H          -5.0340    1.5560   -0.7077 H       1  UNL1        0.1228
@<TRIPOS>BOND
     1     1     2    1
     2     2     3    1
     3     3     4    1
     4     4     5   ar
     5     5     6   ar
     6     6     7   ar
     7     7     8    1
     8     7     9   ar
     9     9    10   ar
    10     1    11    1
    11    11    12    1
    12    12    13    1
    13    13    14    3
    14    10     1    1
    15    10     4   ar
    16     1    15    1
    17     2    16    1
    18     2    17    1
    19     3    18    1
    20     3    19    1
    21     5    20    1
    22     6    21    1
    23     8    22    1
    24     9    23    1
    25    11    24    1
    26    12    25    1
    27    12    26    1
    28    14    27    1
