@<TRIPOS>MOLECULE
*****
 49 52 0 0 0
SMALL
GASTEIGER

@<TRIPOS>ATOM
      1 CL         -7.7044    2.8848    1.4960 Cl      1  UNL1       -0.0835
      2 C          -6.8000    1.4688    1.0118 C.ar    1  UNL1        0.0427
      3 C          -7.4498    0.2945    0.6808 C.ar    1  UNL1       -0.0433
      4 C          -6.7045   -0.8075    0.3019 C.ar    1  UNL1       -0.0586
      5 C          -5.3150   -0.6929    0.2673 C.ar    1  UNL1       -0.0402
      6 C          -4.6711    0.4988    0.6040 C.ar    1  UNL1        0.0377
      7 C          -5.4262    1.5952    0.9817 C.ar    1  UNL1       -0.0219
      8 N          -3.2517    0.3736    0.4937 N.am    1  UNL1       -0.2691
      9 C          -2.4089    0.6389   -0.6900 C.3     1  UNL1        0.0326
     10 C          -1.4871   -0.5836   -0.7363 C.3     1  UNL1        0.0160
     11 N          -0.4797   -0.3941    0.2747 N.3     1  UNL1       -0.2868
     12 C           0.5486    0.4764   -0.2313 C.3     1  UNL1        0.0414
     13 C           1.2018   -0.1255   -1.4170 C.ar    1  UNL1        0.0524
     14 C           0.9725   -0.0051   -2.7731 C.ar    1  UNL1        0.0499
     15 N           1.8518   -0.7837   -3.4317 N.ar    1  UNL1       -0.2437
     16 C           2.5994   -1.3628   -2.4651 C.ar    1  UNL1        0.0964
     17 N           2.2351   -0.9877   -1.2249 N.ar    1  UNL1       -0.3285
     18 C           2.9666   -1.5334   -0.0895 C.3     1  UNL1        0.0494
     19 C           4.1218   -0.6852    0.2163 C.ar    1  UNL1       -0.0277
     20 C           5.2158   -1.0312   -0.5490 C.ar    1  UNL1       -0.0557
     21 C           6.4456   -0.3724   -0.4416 C.ar    1  UNL1       -0.0440
     22 C           6.5716    0.6705    0.4702 C.ar    1  UNL1        0.0518
     23 C           5.4641    1.0182    1.2427 C.ar    1  UNL1       -0.0440
     24 C           4.2637    0.3429    1.1082 C.ar    1  UNL1       -0.0557
     25 C           7.7873    1.4074    0.6554 C.1     1  UNL1        0.0992
     26 N           8.7675    2.0015    0.8215 N.1     1  UNL1       -0.1909
     27 C          -1.0154    0.0310    1.5311 C.3     1  UNL1        0.0766
     28 C          -2.4979   -0.0548    1.6262 C.2     1  UNL1        0.2339
     29 O          -3.0836   -0.4837    2.6523 O.2     1  UNL1       -0.2738
     30 H          -8.5278    0.2214    0.7124 H       1  UNL1        0.0632
     31 H          -7.2177   -1.7277    0.0427 H       1  UNL1        0.0619
     32 H          -4.8173   -1.6188   -0.0446 H       1  UNL1        0.0636
     33 H          -4.8379    2.4451    1.2153 H       1  UNL1        0.0651
     34 H          -3.0290    0.7348   -1.5980 H       1  UNL1        0.0481
     35 H          -1.8937    1.5676   -0.4505 H       1  UNL1        0.0481
     36 H          -2.0691   -1.4967   -0.3875 H       1  UNL1        0.0442
     37 H          -1.1219   -0.7062   -1.7482 H       1  UNL1        0.0442
     38 H           1.2926    0.7142    0.5687 H       1  UNL1        0.0491
     39 H           0.1214    1.4432   -0.6117 H       1  UNL1        0.0491
     40 H           0.2182    0.6139   -3.1945 H       1  UNL1        0.0848
     41 H           3.3856   -2.0451   -2.7978 H       1  UNL1        0.1029
     42 H           2.2733   -1.4816    0.8062 H       1  UNL1        0.0542
     43 H           3.2104   -2.5761   -0.2764 H       1  UNL1        0.0542
     44 H           5.2801   -1.8125   -1.2969 H       1  UNL1        0.0621
     45 H           7.3281   -0.5971   -1.0088 H       1  UNL1        0.0630
     46 H           5.5200    1.8133    1.9543 H       1  UNL1        0.0630
     47 H           3.3896    0.5635    1.6728 H       1  UNL1        0.0621
     48 H          -0.5248   -0.4744    2.4013 H       1  UNL1        0.0522
     49 H          -0.6976    1.0999    1.6545 H       1  UNL1        0.0522
@<TRIPOS>BOND
     1     1     2    1
     2     2     3   ar
     3     3     4   ar
     4     4     5   ar
     5     5     6   ar
     6     6     7   ar
     7     6     8    1
     8     8     9    1
     9     9    10    1
    10    10    11    1
    11    11    12    1
    12    12    13    1
    13    13    14   ar
    14    14    15   ar
    15    15    16   ar
    16    16    17   ar
    17    17    18    1
    18    18    19    1
    19    19    20   ar
    20    20    21   ar
    21    21    22   ar
    22    22    23   ar
    23    23    24   ar
    24    22    25    1
    25    25    26    3
    26    11    27    1
    27    27    28    1
    28    28    29    2
    29     7     2   ar
    30    28     8   am
    31    17    13   ar
    32    24    19   ar
    33     3    30    1
    34     4    31    1
    35     5    32    1
    36     7    33    1
    37     9    34    1
    38     9    35    1
    39    10    36    1
    40    10    37    1
    41    12    38    1
    42    12    39    1
    43    14    40    1
    44    16    41    1
    45    18    42    1
    46    18    43    1
    47    20    44    1
    48    21    45    1
    49    23    46    1
    50    24    47    1
    51    27    48    1
    52    27    49    1
