@<TRIPOS>MOLECULE
*****
 63 67 0 0 0
SMALL
GASTEIGER

@<TRIPOS>ATOM
      1 C           7.5289   -3.6840   -0.2027 C.3     1  UNL1       -0.0223
      2 C           6.4778   -2.6345   -0.1427 C.ar    1  UNL1        0.0403
      3 C           5.2340   -2.8677    0.4065 C.ar    1  UNL1       -0.0194
      4 C           4.2463   -1.9275    0.4778 C.ar    1  UNL1        0.0370
      5 N           2.9688   -2.1773    1.0452 N.pl3   1  UNL1       -0.2835
      6 C           1.9543   -1.1751    1.1069 C.ar    1  UNL1        0.2212
      7 N           1.8616   -0.3745    2.1491 N.ar    1  UNL1       -0.2219
      8 C           0.8944    0.5582    2.1658 C.ar    1  UNL1        0.0437
      9 C          -0.0307    0.7147    1.1064 C.ar    1  UNL1        0.0583
     10 C          -0.8891    1.8875    1.1087 C.ar    1  UNL1        0.0764
     11 C          -0.9995    2.6206    2.2801 C.ar    1  UNL1       -0.0349
     12 C          -1.8525    3.7354    2.3159 C.ar    1  UNL1       -0.0505
     13 C          -2.5647    4.0953    1.2143 C.ar    1  UNL1        0.0004
     14 C          -3.4076    5.1902    1.2239 C.ar    1  UNL1       -0.0526
     15 C          -4.1188    5.5516    0.1146 C.ar    1  UNL1       -0.0611
     16 C          -4.0138    4.8289   -1.0514 C.ar    1  UNL1       -0.0597
     17 C          -3.1711    3.7360   -1.0569 C.ar    1  UNL1       -0.0357
     18 C          -2.4442    3.3518    0.0488 C.ar    1  UNL1        0.0717
     19 N          -1.6139    2.3022    0.0854 N.ar    1  UNL1       -0.2465
     20 C           0.0654   -0.1195    0.0378 C.ar    1  UNL1        0.1334
     21 N          -0.8441   -0.3165   -1.0187 N.pl3   1  UNL1       -0.3230
     22 C          -2.1865    0.0169   -1.3004 C.3     1  UNL1        0.0507
     23 C          -3.1767   -0.3687   -0.2061 C.3     1  UNL1       -0.0247
     24 C          -3.6588   -1.7625   -0.4897 C.3     1  UNL1        0.0124
     25 C          -3.6386   -2.6345    0.7486 C.3     1  UNL1        0.0495
     26 O          -4.0873   -3.9139    0.4607 O.3     1  UNL1       -0.3946
     27 C          -2.6601   -2.2516   -1.5118 C.3     1  UNL1        0.0877
     28 O          -3.0855   -3.4025   -2.1587 O.3     1  UNL1       -0.3888
     29 C          -2.5996   -1.0552   -2.4247 C.3     1  UNL1        0.0996
     30 O          -3.8423   -0.6685   -2.8457 O.3     1  UNL1       -0.3874
     31 N           1.0978   -1.0449    0.1127 N.ar    1  UNL1       -0.1988
     32 C           4.5388   -0.6622   -0.0438 C.ar    1  UNL1       -0.0194
     33 C           5.7816   -0.4263   -0.5935 C.ar    1  UNL1        0.0403
     34 C           6.1590    0.8928   -1.1648 C.3     1  UNL1       -0.0223
     35 N           6.7201   -1.4071   -0.6329 N.ar    1  UNL1       -0.2569
     36 H           7.2823   -4.4944    0.5133 H       1  UNL1        0.0292
     37 H           7.4463   -4.1475   -1.2230 H       1  UNL1        0.0292
     38 H           8.5405   -3.2700   -0.0361 H       1  UNL1        0.0292
     39 H           5.0521   -3.8562    0.7962 H       1  UNL1        0.0654
     40 H           2.7913   -3.1302    1.4214 H       1  UNL1        0.1550
     41 H           0.8064    1.2261    3.0117 H       1  UNL1        0.0838
     42 H          -0.4928    2.4097    3.1864 H       1  UNL1        0.0639
     43 H          -1.9211    4.2871    3.2390 H       1  UNL1        0.0625
     44 H          -3.5005    5.7611    2.1192 H       1  UNL1        0.0624
     45 H          -4.7808    6.4298    0.1587 H       1  UNL1        0.0618
     46 H          -4.5702    5.0918   -1.9594 H       1  UNL1        0.0618
     47 H          -3.0990    3.1887   -1.9770 H       1  UNL1        0.0639
     48 H          -0.3212   -0.8431   -1.8566 H       1  UNL1        0.1479
     49 H          -2.4114    0.9709   -1.7824 H       1  UNL1        0.0524
     50 H          -2.6504   -0.3732    0.7843 H       1  UNL1        0.0288
     51 H          -4.0220    0.3473   -0.1588 H       1  UNL1        0.0288
     52 H          -4.6612   -1.7240   -0.9524 H       1  UNL1        0.0349
     53 H          -4.3979   -2.1875    1.4469 H       1  UNL1        0.0561
     54 H          -2.6732   -2.6069    1.2511 H       1  UNL1        0.0561
     55 H          -3.7520   -4.5960    1.0721 H       1  UNL1        0.2094
     56 H          -1.6831   -2.3494   -1.0240 H       1  UNL1        0.0623
     57 H          -4.0701   -3.4388   -2.2142 H       1  UNL1        0.2099
     58 H          -1.8127   -1.0785   -3.1776 H       1  UNL1        0.0638
     59 H          -4.2724    0.0053   -2.2604 H       1  UNL1        0.2100
     60 H           3.7881    0.1237   -0.0127 H       1  UNL1        0.0654
     61 H           7.0780    1.3061   -0.7276 H       1  UNL1        0.0292
     62 H           6.3314    0.7231   -2.2537 H       1  UNL1        0.0292
     63 H           5.3319    1.6175   -1.0869 H       1  UNL1        0.0292
@<TRIPOS>BOND
     1     1     2    1
     2     2     3   ar
     3     3     4   ar
     4     4     5    1
     5     5     6    1
     6     6     7   ar
     7     7     8   ar
     8     8     9   ar
     9     9    10    1
    10    10    11   ar
    11    11    12   ar
    12    12    13   ar
    13    13    14   ar
    14    14    15   ar
    15    15    16   ar
    16    16    17   ar
    17    17    18   ar
    18    18    19   ar
    19     9    20   ar
    20    20    21    1
    21    21    22    1
    22    22    23    1
    23    23    24    1
    24    24    25    1
    25    25    26    1
    26    24    27    1
    27    27    28    1
    28    27    29    1
    29    29    30    1
    30    20    31   ar
    31     4    32   ar
    32    32    33   ar
    33    33    34    1
    34    33    35   ar
    35    35     2   ar
    36    31     6   ar
    37    19    10   ar
    38    29    22    1
    39    18    13   ar
    40     1    36    1
    41     1    37    1
    42     1    38    1
    43     3    39    1
    44     5    40    1
    45     8    41    1
    46    11    42    1
    47    12    43    1
    48    14    44    1
    49    15    45    1
    50    16    46    1
    51    17    47    1
    52    21    48    1
    53    22    49    1
    54    23    50    1
    55    23    51    1
    56    24    52    1
    57    25    53    1
    58    25    54    1
    59    26    55    1
    60    27    56    1
    61    28    57    1
    62    29    58    1
    63    30    59    1
    64    32    60    1
    65    34    61    1
    66    34    62    1
    67    34    63    1
