
     RDKit          3D

 63 67  0  0  0  0  0  0  0  0999 V2000
    7.5289   -3.6840   -0.2027 C   0  0  0  0  0  0  0  0  0  0  0  0
    6.4778   -2.6345   -0.1427 C   0  0  0  0  0  0  0  0  0  0  0  0
    5.2340   -2.8677    0.4065 C   0  0  0  0  0  0  0  0  0  0  0  0
    4.2463   -1.9275    0.4778 C   0  0  0  0  0  0  0  0  0  0  0  0
    2.9688   -2.1773    1.0452 N   0  0  0  0  0  0  0  0  0  0  0  0
    1.9543   -1.1751    1.1069 C   0  0  0  0  0  0  0  0  0  0  0  0
    1.8616   -0.3745    2.1491 N   0  0  0  0  0  0  0  0  0  0  0  0
    0.8944    0.5582    2.1658 C   0  0  0  0  0  0  0  0  0  0  0  0
   -0.0307    0.7147    1.1064 C   0  0  0  0  0  0  0  0  0  0  0  0
   -0.8891    1.8875    1.1087 C   0  0  0  0  0  0  0  0  0  0  0  0
   -0.9995    2.6206    2.2801 C   0  0  0  0  0  0  0  0  0  0  0  0
   -1.8525    3.7354    2.3159 C   0  0  0  0  0  0  0  0  0  0  0  0
   -2.5647    4.0953    1.2143 C   0  0  0  0  0  0  0  0  0  0  0  0
   -3.4076    5.1902    1.2239 C   0  0  0  0  0  0  0  0  0  0  0  0
   -4.1188    5.5516    0.1146 C   0  0  0  0  0  0  0  0  0  0  0  0
   -4.0138    4.8289   -1.0514 C   0  0  0  0  0  0  0  0  0  0  0  0
   -3.1711    3.7360   -1.0569 C   0  0  0  0  0  0  0  0  0  0  0  0
   -2.4442    3.3518    0.0488 C   0  0  0  0  0  0  0  0  0  0  0  0
   -1.6139    2.3022    0.0854 N   0  0  0  0  0  0  0  0  0  0  0  0
    0.0654   -0.1195    0.0378 C   0  0  0  0  0  0  0  0  0  0  0  0
   -0.8441   -0.3165   -1.0187 N   0  0  0  0  0  0  0  0  0  0  0  0
   -2.1865    0.0169   -1.3004 C   0  0  2  0  0  0  0  0  0  0  0  0
   -3.1767   -0.3687   -0.2061 C   0  0  0  0  0  0  0  0  0  0  0  0
   -3.6588   -1.7625   -0.4897 C   0  0  2  0  0  0  0  0  0  0  0  0
   -3.6386   -2.6345    0.7486 C   0  0  0  0  0  0  0  0  0  0  0  0
   -4.0873   -3.9139    0.4607 O   0  0  0  0  0  0  0  0  0  0  0  0
   -2.6601   -2.2516   -1.5118 C   0  0  1  0  0  0  0  0  0  0  0  0
   -3.0855   -3.4025   -2.1587 O   0  0  0  0  0  0  0  0  0  0  0  0
   -2.5996   -1.0552   -2.4247 C   0  0  1  0  0  0  0  0  0  0  0  0
   -3.8423   -0.6685   -2.8457 O   0  0  0  0  0  0  0  0  0  0  0  0
    1.0978   -1.0449    0.1127 N   0  0  0  0  0  0  0  0  0  0  0  0
    4.5388   -0.6622   -0.0438 C   0  0  0  0  0  0  0  0  0  0  0  0
    5.7816   -0.4263   -0.5935 C   0  0  0  0  0  0  0  0  0  0  0  0
    6.1590    0.8928   -1.1648 C   0  0  0  0  0  0  0  0  0  0  0  0
    6.7201   -1.4071   -0.6329 N   0  0  0  0  0  0  0  0  0  0  0  0
    7.2823   -4.4944    0.5133 H   0  0  0  0  0  0  0  0  0  0  0  0
    7.4463   -4.1475   -1.2230 H   0  0  0  0  0  0  0  0  0  0  0  0
    8.5405   -3.2700   -0.0361 H   0  0  0  0  0  0  0  0  0  0  0  0
    5.0521   -3.8562    0.7962 H   0  0  0  0  0  0  0  0  0  0  0  0
    2.7913   -3.1302    1.4214 H   0  0  0  0  0  0  0  0  0  0  0  0
    0.8064    1.2261    3.0117 H   0  0  0  0  0  0  0  0  0  0  0  0
   -0.4928    2.4097    3.1864 H   0  0  0  0  0  0  0  0  0  0  0  0
   -1.9211    4.2871    3.2390 H   0  0  0  0  0  0  0  0  0  0  0  0
   -3.5005    5.7611    2.1192 H   0  0  0  0  0  0  0  0  0  0  0  0
   -4.7808    6.4298    0.1587 H   0  0  0  0  0  0  0  0  0  0  0  0
   -4.5702    5.0918   -1.9594 H   0  0  0  0  0  0  0  0  0  0  0  0
   -3.0990    3.1887   -1.9770 H   0  0  0  0  0  0  0  0  0  0  0  0
   -0.3212   -0.8431   -1.8566 H   0  0  0  0  0  0  0  0  0  0  0  0
   -2.4114    0.9709   -1.7824 H   0  0  0  0  0  0  0  0  0  0  0  0
   -2.6504   -0.3732    0.7843 H   0  0  0  0  0  0  0  0  0  0  0  0
   -4.0220    0.3473   -0.1588 H   0  0  0  0  0  0  0  0  0  0  0  0
   -4.6612   -1.7240   -0.9524 H   0  0  0  0  0  0  0  0  0  0  0  0
   -4.3979   -2.1875    1.4469 H   0  0  0  0  0  0  0  0  0  0  0  0
   -2.6732   -2.6069    1.2511 H   0  0  0  0  0  0  0  0  0  0  0  0
   -3.7520   -4.5960    1.0721 H   0  0  0  0  0  0  0  0  0  0  0  0
   -1.6831   -2.3494   -1.0240 H   0  0  0  0  0  0  0  0  0  0  0  0
   -4.0701   -3.4388   -2.2142 H   0  0  0  0  0  0  0  0  0  0  0  0
   -1.8127   -1.0785   -3.1776 H   0  0  0  0  0  0  0  0  0  0  0  0
   -4.2724    0.0053   -2.2604 H   0  0  0  0  0  0  0  0  0  0  0  0
    3.7881    0.1237   -0.0127 H   0  0  0  0  0  0  0  0  0  0  0  0
    7.0780    1.3061   -0.7276 H   0  0  0  0  0  0  0  0  0  0  0  0
    6.3314    0.7231   -2.2537 H   0  0  0  0  0  0  0  0  0  0  0  0
    5.3319    1.6175   -1.0869 H   0  0  0  0  0  0  0  0  0  0  0  0
  1  2  1  0
  2  3  2  0
  3  4  1  0
  4  5  1  0
  5  6  1  0
  6  7  2  0
  7  8  1  0
  8  9  2  0
  9 10  1  0
 10 11  2  0
 11 12  1  0
 12 13  2  0
 13 14  1  0
 14 15  2  0
 15 16  1  0
 16 17  2  0
 17 18  1  0
 18 19  2  0
  9 20  1  0
 20 21  1  0
 21 22  1  0
 22 23  1  0
 23 24  1  0
 24 25  1  0
 25 26  1  0
 24 27  1  0
 27 28  1  0
 27 29  1  0
 29 30  1  0
 20 31  2  0
  4 32  2  0
 32 33  1  0
 33 34  1  0
 33 35  2  0
 35  2  1  0
 31  6  1  0
 19 10  1  0
 29 22  1  0
 18 13  1  0
  1 36  1  0
  1 37  1  0
  1 38  1  0
  3 39  1  0
  5 40  1  0
  8 41  1  0
 11 42  1  0
 12 43  1  0
 14 44  1  0
 15 45  1  0
 16 46  1  0
 17 47  1  0
 21 48  1  0
 22 49  1  6
 23 50  1  0
 23 51  1  0
 24 52  1  6
 25 53  1  0
 25 54  1  0
 26 55  1  0
 27 56  1  1
 28 57  1  0
 29 58  1  6
 30 59  1  0
 32 60  1  0
 34 61  1  0
 34 62  1  0
 34 63  1  0
M  END
$$$$
