@<TRIPOS>MOLECULE
*****
 50 53 0 0 0
SMALL
GASTEIGER

@<TRIPOS>ATOM
      1 C          -0.7296   -3.0348   -0.4702 C.3     1  UNL1       -0.0391
      2 C          -1.7408   -1.9812   -0.2898 C.ar    1  UNL1       -0.0427
      3 C          -3.0954   -2.3292   -0.3602 C.ar    1  UNL1       -0.0575
      4 C          -4.0455   -1.3403   -0.1995 C.ar    1  UNL1       -0.0494
      5 C          -3.7272   -0.0200    0.0280 C.ar    1  UNL1        0.0373
      6 C          -4.7344    1.0242    0.1974 C.2     1  UNL1        0.2443
      7 O          -4.3615    2.2176    0.4038 O.2     1  UNL1       -0.2702
      8 N          -6.1160    0.7973    0.1473 N.am    1  UNL1       -0.3085
      9 C          -7.1258    1.8159    0.3124 C.3     1  UNL1        0.0235
     10 C          -8.4512    1.5228    0.8772 C.3     1  UNL1       -0.0328
     11 C          -8.2948    1.7880   -0.6376 C.3     1  UNL1       -0.0328
     12 C          -2.3884    0.2996    0.0935 C.ar    1  UNL1       -0.0417
     13 C          -1.3929   -0.6713   -0.0635 C.ar    1  UNL1       -0.0143
     14 C           0.0156   -0.3121    0.0182 C.ar    1  UNL1       -0.0176
     15 C           0.9241   -1.0027    0.7848 C.ar    1  UNL1       -0.0533
     16 C           2.2598   -0.6552    0.8507 C.ar    1  UNL1       -0.0491
     17 C           2.7393    0.4172    0.1366 C.ar    1  UNL1        0.0367
     18 C           4.1394    0.7921    0.1974 C.2     1  UNL1        0.2441
     19 O           4.5159    1.7787   -0.4762 O.2     1  UNL1       -0.2702
     20 N           5.0838    0.0976    0.9765 N.am    1  UNL1       -0.3111
     21 C           6.4785    0.5129    0.9991 C.3     1  UNL1        0.0147
     22 C           7.0148    0.4006   -0.4021 C.3     1  UNL1       -0.0254
     23 C           8.4246    0.7620   -0.6976 C.3     1  UNL1       -0.0485
     24 C           8.1082   -0.6627   -0.5620 C.3     1  UNL1       -0.0485
     25 C           1.8335    1.1288   -0.6454 C.ar    1  UNL1       -0.0491
     26 C           0.5087    0.7674   -0.6978 C.ar    1  UNL1       -0.0533
     27 H          -0.6245   -3.7033    0.4102 H       1  UNL1        0.0278
     28 H           0.2407   -2.6759   -0.8715 H       1  UNL1        0.0278
     29 H          -1.1033   -3.7335   -1.2832 H       1  UNL1        0.0278
     30 H          -3.3537   -3.3724   -0.5400 H       1  UNL1        0.0621
     31 H          -5.0795   -1.6314   -0.2576 H       1  UNL1        0.0625
     32 H          -6.4627   -0.1714   -0.0206 H       1  UNL1        0.1493
     33 H          -6.7158    2.8305    0.4887 H       1  UNL1        0.0498
     34 H          -8.7644    0.5167    1.1888 H       1  UNL1        0.0284
     35 H          -8.9678    2.3343    1.4251 H       1  UNL1        0.0284
     36 H          -8.4830    0.8859   -1.2542 H       1  UNL1        0.0284
     37 H          -8.7293    2.7068   -1.0332 H       1  UNL1        0.0284
     38 H          -2.0503    1.3232    0.2706 H       1  UNL1        0.0631
     39 H           0.5410   -1.8542    1.3564 H       1  UNL1        0.0624
     40 H           2.8757   -1.2708    1.4849 H       1  UNL1        0.0625
     41 H           4.8099   -0.7225    1.5502 H       1  UNL1        0.1490
     42 H           7.0659   -0.1608    1.6540 H       1  UNL1        0.0465
     43 H           6.5748    1.5544    1.3938 H       1  UNL1        0.0465
     44 H           6.2719    0.4907   -1.2049 H       1  UNL1        0.0316
     45 H           9.0635    1.2459    0.0585 H       1  UNL1        0.0269
     46 H           8.6212    1.1147   -1.7447 H       1  UNL1        0.0269
     47 H           8.4815   -1.1612    0.3568 H       1  UNL1        0.0269
     48 H           7.9262   -1.3371   -1.4209 H       1  UNL1        0.0269
     49 H           2.1964    1.9818   -1.2180 H       1  UNL1        0.0625
     50 H          -0.1769    1.3323   -1.3103 H       1  UNL1        0.0624
@<TRIPOS>BOND
     1     1     2    1
     2     2     3   ar
     3     3     4   ar
     4     4     5   ar
     5     5     6    1
     6     6     7    2
     7     6     8   am
     8     8     9    1
     9     9    10    1
    10    10    11    1
    11     5    12   ar
    12    12    13   ar
    13    13    14    1
    14    14    15   ar
    15    15    16   ar
    16    16    17   ar
    17    17    18    1
    18    18    19    2
    19    18    20   am
    20    20    21    1
    21    21    22    1
    22    22    23    1
    23    23    24    1
    24    17    25   ar
    25    25    26   ar
    26    13     2   ar
    27    26    14   ar
    28    11     9    1
    29    24    22    1
    30     1    27    1
    31     1    28    1
    32     1    29    1
    33     3    30    1
    34     4    31    1
    35     8    32    1
    36     9    33    1
    37    10    34    1
    38    10    35    1
    39    11    36    1
    40    11    37    1
    41    12    38    1
    42    15    39    1
    43    16    40    1
    44    20    41    1
    45    21    42    1
    46    21    43    1
    47    22    44    1
    48    23    45    1
    49    23    46    1
    50    24    47    1
    51    24    48    1
    52    25    49    1
    53    26    50    1
