
     RDKit          3D

 50 53  0  0  0  0  0  0  0  0999 V2000
   -0.7296   -3.0348   -0.4702 C   0  0  0  0  0  0  0  0  0  0  0  0
   -1.7408   -1.9812   -0.2898 C   0  0  0  0  0  0  0  0  0  0  0  0
   -3.0954   -2.3292   -0.3602 C   0  0  0  0  0  0  0  0  0  0  0  0
   -4.0455   -1.3403   -0.1995 C   0  0  0  0  0  0  0  0  0  0  0  0
   -3.7272   -0.0200    0.0280 C   0  0  0  0  0  0  0  0  0  0  0  0
   -4.7344    1.0242    0.1974 C   0  0  0  0  0  0  0  0  0  0  0  0
   -4.3615    2.2176    0.4038 O   0  0  0  0  0  0  0  0  0  0  0  0
   -6.1160    0.7973    0.1473 N   0  0  0  0  0  0  0  0  0  0  0  0
   -7.1258    1.8159    0.3124 C   0  0  0  0  0  0  0  0  0  0  0  0
   -8.4512    1.5228    0.8772 C   0  0  0  0  0  0  0  0  0  0  0  0
   -8.2948    1.7880   -0.6376 C   0  0  0  0  0  0  0  0  0  0  0  0
   -2.3884    0.2996    0.0935 C   0  0  0  0  0  0  0  0  0  0  0  0
   -1.3929   -0.6713   -0.0635 C   0  0  0  0  0  0  0  0  0  0  0  0
    0.0156   -0.3121    0.0182 C   0  0  0  0  0  0  0  0  0  0  0  0
    0.9241   -1.0027    0.7848 C   0  0  0  0  0  0  0  0  0  0  0  0
    2.2598   -0.6552    0.8507 C   0  0  0  0  0  0  0  0  0  0  0  0
    2.7393    0.4172    0.1366 C   0  0  0  0  0  0  0  0  0  0  0  0
    4.1394    0.7921    0.1974 C   0  0  0  0  0  0  0  0  0  0  0  0
    4.5159    1.7787   -0.4762 O   0  0  0  0  0  0  0  0  0  0  0  0
    5.0838    0.0976    0.9765 N   0  0  0  0  0  0  0  0  0  0  0  0
    6.4785    0.5129    0.9991 C   0  0  0  0  0  0  0  0  0  0  0  0
    7.0148    0.4006   -0.4021 C   0  0  0  0  0  0  0  0  0  0  0  0
    8.4246    0.7620   -0.6976 C   0  0  0  0  0  0  0  0  0  0  0  0
    8.1082   -0.6627   -0.5620 C   0  0  0  0  0  0  0  0  0  0  0  0
    1.8335    1.1288   -0.6454 C   0  0  0  0  0  0  0  0  0  0  0  0
    0.5087    0.7674   -0.6978 C   0  0  0  0  0  0  0  0  0  0  0  0
   -0.6245   -3.7033    0.4102 H   0  0  0  0  0  0  0  0  0  0  0  0
    0.2407   -2.6759   -0.8715 H   0  0  0  0  0  0  0  0  0  0  0  0
   -1.1033   -3.7335   -1.2832 H   0  0  0  0  0  0  0  0  0  0  0  0
   -3.3537   -3.3724   -0.5400 H   0  0  0  0  0  0  0  0  0  0  0  0
   -5.0795   -1.6314   -0.2576 H   0  0  0  0  0  0  0  0  0  0  0  0
   -6.4627   -0.1714   -0.0206 H   0  0  0  0  0  0  0  0  0  0  0  0
   -6.7158    2.8305    0.4887 H   0  0  0  0  0  0  0  0  0  0  0  0
   -8.7644    0.5167    1.1888 H   0  0  0  0  0  0  0  0  0  0  0  0
   -8.9678    2.3343    1.4251 H   0  0  0  0  0  0  0  0  0  0  0  0
   -8.4830    0.8859   -1.2542 H   0  0  0  0  0  0  0  0  0  0  0  0
   -8.7293    2.7068   -1.0332 H   0  0  0  0  0  0  0  0  0  0  0  0
   -2.0503    1.3232    0.2706 H   0  0  0  0  0  0  0  0  0  0  0  0
    0.5410   -1.8542    1.3564 H   0  0  0  0  0  0  0  0  0  0  0  0
    2.8757   -1.2708    1.4849 H   0  0  0  0  0  0  0  0  0  0  0  0
    4.8099   -0.7225    1.5502 H   0  0  0  0  0  0  0  0  0  0  0  0
    7.0659   -0.1608    1.6540 H   0  0  0  0  0  0  0  0  0  0  0  0
    6.5748    1.5544    1.3938 H   0  0  0  0  0  0  0  0  0  0  0  0
    6.2719    0.4907   -1.2049 H   0  0  0  0  0  0  0  0  0  0  0  0
    9.0635    1.2459    0.0585 H   0  0  0  0  0  0  0  0  0  0  0  0
    8.6212    1.1147   -1.7447 H   0  0  0  0  0  0  0  0  0  0  0  0
    8.4815   -1.1612    0.3568 H   0  0  0  0  0  0  0  0  0  0  0  0
    7.9262   -1.3371   -1.4209 H   0  0  0  0  0  0  0  0  0  0  0  0
    2.1964    1.9818   -1.2180 H   0  0  0  0  0  0  0  0  0  0  0  0
   -0.1769    1.3323   -1.3103 H   0  0  0  0  0  0  0  0  0  0  0  0
  1  2  1  0
  2  3  2  0
  3  4  1  0
  4  5  2  0
  5  6  1  0
  6  7  2  0
  6  8  1  0
  8  9  1  0
  9 10  1  0
 10 11  1  0
  5 12  1  0
 12 13  2  0
 13 14  1  0
 14 15  2  0
 15 16  1  0
 16 17  2  0
 17 18  1  0
 18 19  2  0
 18 20  1  0
 20 21  1  0
 21 22  1  0
 22 23  1  0
 23 24  1  0
 17 25  1  0
 25 26  2  0
 13  2  1  0
 26 14  1  0
 11  9  1  0
 24 22  1  0
  1 27  1  0
  1 28  1  0
  1 29  1  0
  3 30  1  0
  4 31  1  0
  8 32  1  0
  9 33  1  0
 10 34  1  0
 10 35  1  0
 11 36  1  0
 11 37  1  0
 12 38  1  0
 15 39  1  0
 16 40  1  0
 20 41  1  0
 21 42  1  0
 21 43  1  0
 22 44  1  0
 23 45  1  0
 23 46  1  0
 24 47  1  0
 24 48  1  0
 25 49  1  0
 26 50  1  0
M  END
$$$$
