@<TRIPOS>MOLECULE
*****
 42 43 0 0 0
SMALL
GASTEIGER

@<TRIPOS>ATOM
      1 C          -1.7421   -0.0830    1.3075 C.3     1  UNL1        0.0940
      2 O          -2.5086    0.1449    2.4421 O.3     1  UNL1       -0.3880
      3 C          -1.3555    1.1880    0.5801 C.3     1  UNL1        0.0274
      4 N          -1.0193    0.7741   -0.7500 N.3     1  UNL1       -0.2994
      5 C           0.0181    1.4988   -1.3837 C.3     1  UNL1       -0.0007
      6 C           1.3442    1.2654   -0.7487 C.3     1  UNL1       -0.0362
      7 C           1.7690   -0.1851   -0.7806 C.3     1  UNL1       -0.0265
      8 C           3.1156   -0.3551   -0.1262 C.ar    1  UNL1       -0.0473
      9 C           4.2692   -0.2578   -0.8574 C.ar    1  UNL1       -0.0586
     10 C           5.5312   -0.4031   -0.3186 C.ar    1  UNL1       -0.0615
     11 C           5.5703   -0.6562    1.0203 C.ar    1  UNL1       -0.0617
     12 C           4.4666   -0.7720    1.8404 C.ar    1  UNL1       -0.0615
     13 C           3.2326   -0.6143    1.2306 C.ar    1  UNL1       -0.0586
     14 C          -2.2407    0.6636   -1.4941 C.3     1  UNL1        0.0063
     15 C          -3.0998   -0.3734   -0.8074 C.3     1  UNL1        0.0234
     16 C          -4.4416    0.1481   -0.3560 C.3     1  UNL1        0.0506
     17 O          -5.1476   -0.9083    0.2672 O.3     1  UNL1       -0.3946
     18 C          -2.3779   -1.0469    0.3374 C.3     1  UNL1        0.0883
     19 O          -1.4584   -1.9359   -0.2350 O.3     1  UNL1       -0.3888
     20 H          -0.7550   -0.5617    1.5827 H       1  UNL1        0.0632
     21 H          -3.3915   -0.2951    2.2881 H       1  UNL1        0.2099
     22 H          -2.1839    1.9246    0.5112 H       1  UNL1        0.0453
     23 H          -0.5436    1.7352    1.0968 H       1  UNL1        0.0453
     24 H           0.0998    1.0704   -2.4264 H       1  UNL1        0.0427
     25 H          -0.2397    2.5515   -1.5227 H       1  UNL1        0.0427
     26 H           2.0894    1.8496   -1.3387 H       1  UNL1        0.0281
     27 H           1.4217    1.5973    0.2933 H       1  UNL1        0.0281
     28 H           1.7400   -0.6250   -1.7903 H       1  UNL1        0.0314
     29 H           1.0914   -0.8189   -0.1473 H       1  UNL1        0.0314
     30 H           4.1910   -0.0531   -1.9272 H       1  UNL1        0.0620
     31 H           6.4558   -0.3289   -0.8809 H       1  UNL1        0.0618
     32 H           6.5327   -0.7791    1.4936 H       1  UNL1        0.0618
     33 H           4.5098   -0.9733    2.9033 H       1  UNL1        0.0618
     34 H           2.3060   -0.6911    1.8072 H       1  UNL1        0.0620
     35 H          -1.9563    0.3282   -2.5144 H       1  UNL1        0.0431
     36 H          -2.7806    1.6296   -1.5880 H       1  UNL1        0.0431
     37 H          -3.2944   -1.2062   -1.5458 H       1  UNL1        0.0361
     38 H          -5.0761    0.4763   -1.1860 H       1  UNL1        0.0561
     39 H          -4.3572    0.9134    0.4402 H       1  UNL1        0.0561
     40 H          -5.4561   -1.4685   -0.5147 H       1  UNL1        0.2094
     41 H          -3.1107   -1.6956    0.8631 H       1  UNL1        0.0623
     42 H          -1.2177   -2.6716    0.3854 H       1  UNL1        0.2099
@<TRIPOS>BOND
     1     1     2    1
     2     1     3    1
     3     3     4    1
     4     4     5    1
     5     5     6    1
     6     6     7    1
     7     7     8    1
     8     8     9   ar
     9     9    10   ar
    10    10    11   ar
    11    11    12   ar
    12    12    13   ar
    13     4    14    1
    14    14    15    1
    15    15    16    1
    16    16    17    1
    17    15    18    1
    18    18    19    1
    19    18     1    1
    20    13     8   ar
    21     1    20    1
    22     2    21    1
    23     3    22    1
    24     3    23    1
    25     5    24    1
    26     5    25    1
    27     6    26    1
    28     6    27    1
    29     7    28    1
    30     7    29    1
    31     9    30    1
    32    10    31    1
    33    11    32    1
    34    12    33    1
    35    13    34    1
    36    14    35    1
    37    14    36    1
    38    15    37    1
    39    16    38    1
    40    16    39    1
    41    17    40    1
    42    18    41    1
    43    19    42    1
