@<TRIPOS>MOLECULE
*****
 34 35 0 0 0
SMALL
GASTEIGER

@<TRIPOS>ATOM
      1 C          -2.0785   -0.3953   -2.2640 C.3     1  UNL1        0.0122
      2 N          -1.9025   -0.3331   -0.8309 N.ar    1  UNL1       -0.3438
      3 C          -2.9451   -0.3039    0.0510 C.ar    1  UNL1        0.0297
      4 C          -4.3938   -0.3319   -0.3528 C.3     1  UNL1        0.0851
      5 C          -4.9042    1.0486   -0.5447 C.2     1  UNL1        0.3105
      6 O          -6.2391    1.1597   -0.9217 O.3     1  UNL1       -0.4804
      7 O          -4.1903    2.0595   -0.3812 O.2     1  UNL1       -0.2506
      8 C          -2.5229   -0.2446    1.3692 C.ar    1  UNL1       -0.0397
      9 C          -1.1491   -0.2390    1.2456 C.ar    1  UNL1       -0.0328
     10 C          -0.7972   -0.2923   -0.0799 C.ar    1  UNL1        0.0897
     11 C           0.5230   -0.3193   -0.6813 C.2     1  UNL1        0.2093
     12 O           0.5943   -0.4856   -1.9472 O.2     1  UNL1       -0.2851
     13 C           1.8459   -0.1884   -0.0980 C.ar    1  UNL1        0.0238
     14 C           2.9153   -0.8124   -0.7078 C.ar    1  UNL1       -0.0506
     15 C           4.2130   -0.7094   -0.1886 C.ar    1  UNL1       -0.0582
     16 C           4.4691    0.0207    0.9524 C.ar    1  UNL1       -0.0504
     17 C           5.8614    0.0978    1.4607 C.3     1  UNL1       -0.0397
     18 C           3.4196    0.6558    1.5835 C.ar    1  UNL1       -0.0582
     19 C           2.1618    0.5265    1.0370 C.ar    1  UNL1       -0.0506
     20 H          -1.4224    0.3077   -2.8122 H       1  UNL1        0.0456
     21 H          -1.9667   -1.4445   -2.5961 H       1  UNL1        0.0456
     22 H          -3.1119   -0.0930   -2.5228 H       1  UNL1        0.0456
     23 H          -4.5275   -0.9336   -1.2756 H       1  UNL1        0.0441
     24 H          -4.9334   -0.8828    0.4423 H       1  UNL1        0.0441
     25 H          -6.6791    2.0798   -0.8183 H       1  UNL1        0.2951
     26 H          -3.1853   -0.2136    2.2206 H       1  UNL1        0.0636
     27 H          -0.5172   -0.2023    2.1114 H       1  UNL1        0.0640
     28 H           2.7743   -1.3908   -1.5944 H       1  UNL1        0.0625
     29 H           5.0315   -1.2060   -0.6829 H       1  UNL1        0.0620
     30 H           6.2018   -0.9186    1.7041 H       1  UNL1        0.0278
     31 H           6.5428    0.5784    0.7148 H       1  UNL1        0.0278
     32 H           5.9275    0.7061    2.3696 H       1  UNL1        0.0278
     33 H           3.5963    1.2338    2.4793 H       1  UNL1        0.0620
     34 H           1.3886    1.0440    1.5588 H       1  UNL1        0.0625
@<TRIPOS>BOND
     1     1     2    1
     2     2     3   ar
     3     3     4    1
     4     4     5    1
     5     5     6    1
     6     5     7    2
     7     3     8   ar
     8     8     9   ar
     9     9    10   ar
    10    10    11    1
    11    11    12    2
    12    11    13    1
    13    13    14   ar
    14    14    15   ar
    15    15    16   ar
    16    16    17    1
    17    16    18   ar
    18    18    19   ar
    19    10     2   ar
    20    19    13   ar
    21     1    20    1
    22     1    21    1
    23     1    22    1
    24     4    23    1
    25     4    24    1
    26     6    25    1
    27     8    26    1
    28     9    27    1
    29    14    28    1
    30    15    29    1
    31    17    30    1
    32    17    31    1
    33    17    32    1
    34    18    33    1
    35    19    34    1
