
     RDKit          3D

 44 47  0  0  0  0  0  0  0  0999 V2000
   -1.3569   -2.8292    1.6265 C   0  0  0  0  0  0  0  0  0  0  0  0
   -0.6690   -1.9872    0.7092 N   0  0  0  0  0  0  0  0  0  0  0  0
   -0.3829   -2.6518   -0.5712 C   0  0  0  0  0  0  0  0  0  0  0  0
   -1.6215   -2.6069   -1.3863 C   0  0  0  0  0  0  0  0  0  0  0  0
   -2.5403   -1.7367   -0.5814 C   0  0  0  0  0  0  0  0  0  0  0  0
   -1.5511   -0.9527    0.2629 C   0  0  0  0  0  0  0  0  0  0  0  0
   -0.8217    0.1185   -0.5690 C   0  0  1  0  0  0  0  0  0  0  0  0
   -0.9068    1.3353    0.1976 C   0  0  0  0  0  0  0  0  0  0  0  0
   -1.4137    2.4705   -0.4208 C   0  0  0  0  0  0  0  0  0  0  0  0
   -1.5389    3.6932    0.2466 C   0  0  0  0  0  0  0  0  0  0  0  0
   -1.1539    3.8068    1.5657 C   0  0  0  0  0  0  0  0  0  0  0  0
   -0.6410    2.6690    2.2016 C   0  0  0  0  0  0  0  0  0  0  0  0
   -0.5337    1.4878    1.5139 C   0  0  0  0  0  0  0  0  0  0  0  0
    0.4296   -0.3271   -1.1833 C   0  0  1  0  0  0  0  0  0  0  0  0
    1.6929    0.3009   -0.7550 C   0  0  0  0  0  0  0  0  0  0  0  0
    2.4340    1.1852   -1.5575 C   0  0  0  0  0  0  0  0  0  0  0  0
    3.6044    1.7427   -1.1362 C   0  0  0  0  0  0  0  0  0  0  0  0
    4.1163    1.4612    0.1054 C   0  0  0  0  0  0  0  0  0  0  0  0
    3.4315    0.6052    0.9249 C   0  0  0  0  0  0  0  0  0  0  0  0
    2.2572    0.0572    0.4792 C   0  0  0  0  0  0  0  0  0  0  0  0
    0.6973   -1.8166   -1.1924 C   0  0  0  0  0  0  0  0  0  0  0  0
   -1.6612   -3.7920    1.1217 H   0  0  0  0  0  0  0  0  0  0  0  0
   -2.1928   -2.3580    2.1633 H   0  0  0  0  0  0  0  0  0  0  0  0
   -0.6315   -3.1563    2.4177 H   0  0  0  0  0  0  0  0  0  0  0  0
    0.0216   -3.6526   -0.3952 H   0  0  0  0  0  0  0  0  0  0  0  0
   -1.4333   -2.0745   -2.3605 H   0  0  0  0  0  0  0  0  0  0  0  0
   -2.0359   -3.6035   -1.6121 H   0  0  0  0  0  0  0  0  0  0  0  0
   -3.0961   -1.0140   -1.2454 H   0  0  0  0  0  0  0  0  0  0  0  0
   -3.2209   -2.2769    0.0648 H   0  0  0  0  0  0  0  0  0  0  0  0
   -2.1018   -0.5380    1.1004 H   0  0  0  0  0  0  0  0  0  0  0  0
   -1.5521    0.2724   -1.4039 H   0  0  0  0  0  0  0  0  0  0  0  0
   -1.7423    2.4803   -1.4537 H   0  0  0  0  0  0  0  0  0  0  0  0
   -1.9296    4.5713   -0.2272 H   0  0  0  0  0  0  0  0  0  0  0  0
   -1.2254    4.7172    2.1312 H   0  0  0  0  0  0  0  0  0  0  0  0
   -0.3218    2.6868    3.2289 H   0  0  0  0  0  0  0  0  0  0  0  0
   -0.1545    0.5908    1.9566 H   0  0  0  0  0  0  0  0  0  0  0  0
    0.3896   -0.0752   -2.2976 H   0  0  0  0  0  0  0  0  0  0  0  0
    2.0473    1.4230   -2.5460 H   0  0  0  0  0  0  0  0  0  0  0  0
    4.1529    2.4173   -1.7706 H   0  0  0  0  0  0  0  0  0  0  0  0
    5.0701    1.9260    0.4277 H   0  0  0  0  0  0  0  0  0  0  0  0
    3.7835    0.3505    1.9017 H   0  0  0  0  0  0  0  0  0  0  0  0
    1.7314   -0.6161    1.1330 H   0  0  0  0  0  0  0  0  0  0  0  0
    1.6309   -2.0804   -0.6038 H   0  0  0  0  0  0  0  0  0  0  0  0
    0.9401   -2.2233   -2.2112 H   0  0  0  0  0  0  0  0  0  0  0  0
  1  2  1  0
  2  3  1  0
  3  4  1  0
  4  5  1  0
  5  6  1  0
  6  7  1  0
  7  8  1  0
  8  9  2  0
  9 10  1  0
 10 11  2  0
 11 12  1  0
 12 13  2  0
  7 14  1  0
 14 15  1  0
 15 16  2  0
 16 17  1  0
 17 18  2  0
 18 19  1  0
 19 20  2  0
 14 21  1  0
  6  2  1  0
 13  8  1  0
 20 15  1  0
 21  3  1  0
  1 22  1  0
  1 23  1  0
  1 24  1  0
  3 25  1  0
  4 26  1  0
  4 27  1  0
  5 28  1  0
  5 29  1  0
  6 30  1  0
  7 31  1  6
  9 32  1  0
 10 33  1  0
 11 34  1  0
 12 35  1  0
 13 36  1  0
 14 37  1  6
 16 38  1  0
 17 39  1  0
 18 40  1  0
 19 41  1  0
 20 42  1  0
 21 43  1  0
 21 44  1  0
M  END
$$$$
