@<TRIPOS>MOLECULE
*****
 44 47 0 0 0
SMALL
GASTEIGER

@<TRIPOS>ATOM
      1 C          -1.3569   -2.8292    1.6265 C.3     1  UNL1       -0.0122
      2 N          -0.6690   -1.9872    0.7092 N.3     1  UNL1       -0.2989
      3 C          -0.3829   -2.6518   -0.5712 C.3     1  UNL1        0.0110
      4 C          -1.6215   -2.6069   -1.3863 C.3     1  UNL1       -0.0359
      5 C          -2.5403   -1.7367   -0.5814 C.3     1  UNL1       -0.0353
      6 C          -1.5511   -0.9527    0.2629 C.3     1  UNL1        0.0178
      7 C          -0.8217    0.1185   -0.5690 C.3     1  UNL1        0.0066
      8 C          -0.9068    1.3353    0.1976 C.ar    1  UNL1       -0.0422
      9 C          -1.4137    2.4705   -0.4208 C.ar    1  UNL1       -0.0582
     10 C          -1.5389    3.6932    0.2466 C.ar    1  UNL1       -0.0615
     11 C          -1.1539    3.8068    1.5657 C.ar    1  UNL1       -0.0617
     12 C          -0.6410    2.6690    2.2016 C.ar    1  UNL1       -0.0615
     13 C          -0.5337    1.4878    1.5139 C.ar    1  UNL1       -0.0582
     14 C           0.4296   -0.3271   -1.1833 C.3     1  UNL1       -0.0062
     15 C           1.6929    0.3009   -0.7550 C.ar    1  UNL1       -0.0436
     16 C           2.4340    1.1852   -1.5575 C.ar    1  UNL1       -0.0583
     17 C           3.6044    1.7427   -1.1362 C.ar    1  UNL1       -0.0615
     18 C           4.1163    1.4612    0.1054 C.ar    1  UNL1       -0.0617
     19 C           3.4315    0.6052    0.9249 C.ar    1  UNL1       -0.0615
     20 C           2.2572    0.0572    0.4792 C.ar    1  UNL1       -0.0583
     21 C           0.6973   -1.8166   -1.1924 C.3     1  UNL1       -0.0299
     22 H          -1.6612   -3.7920    1.1217 H       1  UNL1        0.0391
     23 H          -2.1928   -2.3580    2.1633 H       1  UNL1        0.0391
     24 H          -0.6315   -3.1563    2.4177 H       1  UNL1        0.0391
     25 H           0.0216   -3.6526   -0.3952 H       1  UNL1        0.0463
     26 H          -1.4333   -2.0745   -2.3605 H       1  UNL1        0.0281
     27 H          -2.0359   -3.6035   -1.6121 H       1  UNL1        0.0281
     28 H          -3.0961   -1.0140   -1.2454 H       1  UNL1        0.0281
     29 H          -3.2209   -2.2769    0.0648 H       1  UNL1        0.0281
     30 H          -2.1018   -0.5380    1.1004 H       1  UNL1        0.0469
     31 H          -1.5521    0.2724   -1.4039 H       1  UNL1        0.0370
     32 H          -1.7423    2.4803   -1.4537 H       1  UNL1        0.0620
     33 H          -1.9296    4.5713   -0.2272 H       1  UNL1        0.0618
     34 H          -1.2254    4.7172    2.1312 H       1  UNL1        0.0618
     35 H          -0.3218    2.6868    3.2289 H       1  UNL1        0.0618
     36 H          -0.1545    0.5908    1.9566 H       1  UNL1        0.0620
     37 H           0.3896   -0.0752   -2.2976 H       1  UNL1        0.0356
     38 H           2.0473    1.4230   -2.5460 H       1  UNL1        0.0620
     39 H           4.1529    2.4173   -1.7706 H       1  UNL1        0.0618
     40 H           5.0701    1.9260    0.4277 H       1  UNL1        0.0618
     41 H           3.7835    0.3505    1.9017 H       1  UNL1        0.0618
     42 H           1.7314   -0.6161    1.1330 H       1  UNL1        0.0620
     43 H           1.6309   -2.0804   -0.6038 H       1  UNL1        0.0286
     44 H           0.9401   -2.2233   -2.2112 H       1  UNL1        0.0286
@<TRIPOS>BOND
     1     1     2    1
     2     2     3    1
     3     3     4    1
     4     4     5    1
     5     5     6    1
     6     6     7    1
     7     7     8    1
     8     8     9   ar
     9     9    10   ar
    10    10    11   ar
    11    11    12   ar
    12    12    13   ar
    13     7    14    1
    14    14    15    1
    15    15    16   ar
    16    16    17   ar
    17    17    18   ar
    18    18    19   ar
    19    19    20   ar
    20    14    21    1
    21     6     2    1
    22    13     8   ar
    23    20    15   ar
    24    21     3    1
    25     1    22    1
    26     1    23    1
    27     1    24    1
    28     3    25    1
    29     4    26    1
    30     4    27    1
    31     5    28    1
    32     5    29    1
    33     6    30    1
    34     7    31    1
    35     9    32    1
    36    10    33    1
    37    11    34    1
    38    12    35    1
    39    13    36    1
    40    14    37    1
    41    16    38    1
    42    17    39    1
    43    18    40    1
    44    19    41    1
    45    20    42    1
    46    21    43    1
    47    21    44    1
