@<TRIPOS>MOLECULE
*****
 51 52 0 0 0
SMALL
GASTEIGER

@<TRIPOS>ATOM
      1 C1         -6.5971    0.4467   -0.2040 C.3     1  <1>         0.0004
      2 N1         -5.2838    1.1021   -0.2901 N.pl3   1  <1>        -0.3355
      3 C2         -5.4155    2.3087   -1.1202 C.3     1  <1>         0.0004
      4 C3         -4.0218    0.7582    0.2690 C.ar    1  <1>         0.0371
      5 C4         -3.4090    1.6666    1.1380 C.ar    1  <1>        -0.0401
      6 C5         -2.1822    1.3273    1.6796 C.ar    1  <1>        -0.0594
      7 C6         -1.6259    0.1170    1.3380 C.ar    1  <1>        -0.0520
      8 C7         -2.1984   -0.7950    0.4889 C.ar    1  <1>         0.0102
      9 C8         -3.4205   -0.4392   -0.0388 C.ar    1  <1>         0.0050
     10 C9         -4.0535   -1.3188   -0.8721 C.ar    1  <1>        -0.0521
     11 C10        -3.4745   -2.5115   -1.1613 C.ar    1  <1>        -0.0593
     12 C11        -2.2550   -2.7920   -0.5974 C.ar    1  <1>        -0.0347
     13 C12        -1.5122   -1.9681    0.2690 C.ar    1  <1>         0.1130
     14 S1          0.0453   -2.4029    0.8408 S.O2    1  <1>         0.0590
     15 O1          0.2379   -3.8636    0.4097 O.2     1  <1>        -0.1530
     16 O2          0.1261   -2.5535    2.3412 O.2     1  <1>        -0.1530
     17 N2          1.3684   -1.6097    0.1781 N.3     1  <1>        -0.1899
     18 C13         1.5685   -0.2435    0.2747 C.3     1  <1>         0.0174
     19 C14         2.8848    0.0693   -0.4595 C.3     1  <1>        -0.0387
     20 C15         4.0259   -0.6779    0.1841 C.3     1  <1>        -0.0499
     21 C16         5.3229   -0.3870   -0.5244 C.3     1  <1>        -0.0273
     22 C17         5.6946    1.0592   -0.5116 C.3     1  <1>         0.1032
     23 N3          6.9587    1.1743   -1.2264 N.3     1  <1>        -0.3184
     24 C18         5.8715    1.5724    0.8689 C.2     1  <1>         0.3217
     25 O3          4.8614    1.6166    1.8153 O.3     1  <1>        -0.4795
     26 O4          6.9433    2.0255    1.3480 O.2     1  <1>        -0.2493
     27 H1         -7.2658    1.2155    0.2612 H       1  <1>         0.0428
     28 H2         -6.9950    0.2493   -1.1991 H       1  <1>         0.0428
     29 H3         -6.5220   -0.4427    0.4450 H       1  <1>         0.0428
     30 H4         -4.5403    2.9842   -0.9883 H       1  <1>         0.0428
     31 H5         -5.4893    2.0616   -2.2014 H       1  <1>         0.0428
     32 H6         -6.3150    2.9032   -0.8450 H       1  <1>         0.0428
     33 H7         -3.8821    2.6016    1.3756 H       1  <1>         0.0636
     34 H8         -1.6783    2.0113    2.3597 H       1  <1>         0.0618
     35 H9         -0.6999   -0.1082    1.7999 H       1  <1>         0.0624
     36 H10        -4.9973   -1.0771   -1.2969 H       1  <1>         0.0624
     37 H11        -3.9562   -3.2148   -1.8119 H       1  <1>         0.0618
     38 H12        -1.8292   -3.7720   -0.8642 H       1  <1>         0.0637
     39 H13         1.7661   -2.0235   -0.6872 H       1  <1>         0.1480
     40 H14         0.7874    0.3873   -0.2435 H       1  <1>         0.0441
     41 H15         1.6752    0.2040    1.2705 H       1  <1>         0.0441
     42 H16         2.7965   -0.2204   -1.5149 H       1  <1>         0.0278
     43 H17         3.1102    1.1460   -0.4007 H       1  <1>         0.0278
     44 H18         3.8879   -1.7922    0.0974 H       1  <1>         0.0266
     45 H19         4.0631   -0.5082    1.2820 H       1  <1>         0.0266
     46 H20         6.0978   -1.0341   -0.0355 H       1  <1>         0.0286
     47 H21         5.2165   -0.7591   -1.5591 H       1  <1>         0.0286
     48 H22         4.9478    1.6300   -1.1015 H       1  <1>         0.0574
     49 H23         7.7704    0.9264   -0.6411 H       1  <1>         0.1190
     50 H24         6.9081    0.5492   -2.0796 H       1  <1>         0.1190
     51 H25         4.6837    2.4011    2.4242 H       1  <1>         0.2951
@<TRIPOS>BOND
     1     1     2    1
     2     2     3    1
     3     2     4    1
     4     4     5   ar
     5     5     6   ar
     6     6     7   ar
     7     7     8   ar
     8     8     9   ar
     9     9    10   ar
    10    10    11   ar
    11    11    12   ar
    12    12    13   ar
    13    13    14    1
    14    14    15    2
    15    14    16    2
    16    14    17    1
    17    17    18    1
    18    18    19    1
    19    19    20    1
    20    20    21    1
    21    21    22    1
    22    22    23    1
    23    22    24    1
    24    24    25    1
    25    24    26    2
    26     9     4   ar
    27    13     8   ar
    28     1    27    1
    29     1    28    1
    30     1    29    1
    31     3    30    1
    32     3    31    1
    33     3    32    1
    34     5    33    1
    35     6    34    1
    36     7    35    1
    37    10    36    1
    38    11    37    1
    39    12    38    1
    40    17    39    1
    41    18    40    1
    42    18    41    1
    43    19    42    1
    44    19    43    1
    45    20    44    1
    46    20    45    1
    47    21    46    1
    48    21    47    1
    49    22    48    1
    50    23    49    1
    51    23    50    1
    52    25    51    1
