
     RDKit          3D

 27 27  0  0  0  0  0  0  0  0999 V2000
   -0.1673    0.1553    1.1828 C   0  0  2  0  0  0  0  0  0  0  0  0
   -0.0913    1.4871    1.6296 O   0  0  0  0  0  0  0  0  0  0  0  0
    1.1164   -0.3219    1.1358 O   0  0  0  0  0  0  0  0  0  0  0  0
    1.7872    0.1251    0.0019 C   0  0  1  0  0  0  0  0  0  0  0  0
    3.2532   -0.0575    0.1197 C   0  0  0  0  0  0  0  0  0  0  0  0
    3.9190   -0.6026    1.2078 O   0  0  0  0  0  0  0  0  0  0  0  0
    4.0865    0.2562   -0.7480 O   0  0  0  0  0  0  0  0  0  0  0  0
    1.1845   -0.7092   -1.1253 C   0  0  1  0  0  0  0  0  0  0  0  0
    1.0735   -2.0306   -0.6911 O   0  0  0  0  0  0  0  0  0  0  0  0
   -0.2046   -0.1550   -1.3240 C   0  0  2  0  0  0  0  0  0  0  0  0
   -0.0729    1.0468   -2.0283 O   0  0  0  0  0  0  0  0  0  0  0  0
   -0.9776    0.0139   -0.0652 C   0  0  1  0  0  0  0  0  0  0  0  0
   -1.9240   -1.0014    0.0699 O   0  0  0  0  0  0  0  0  0  0  0  0
   -3.4834   -0.4042    0.0427 S   0  0  0  0  0  0  0  0  0  0  0  0
   -4.1259   -0.5394    1.6006 O   0  0  0  0  0  0  0  0  0  0  0  0
   -3.4747    1.0511   -0.3207 O   0  0  0  0  0  0  0  0  0  0  0  0
   -4.3615   -1.1460   -0.9490 O   0  0  0  0  0  0  0  0  0  0  0  0
   -0.6986   -0.3814    2.0041 H   0  0  0  0  0  0  0  0  0  0  0  0
   -0.7634    1.9762    1.0851 H   0  0  0  0  0  0  0  0  0  0  0  0
    1.5917    1.1986   -0.1711 H   0  0  0  0  0  0  0  0  0  0  0  0
    4.7132   -0.1496    1.6117 H   0  0  0  0  0  0  0  0  0  0  0  0
    1.7874   -0.5747   -2.0240 H   0  0  0  0  0  0  0  0  0  0  0  0
    1.4669   -2.1459    0.1967 H   0  0  0  0  0  0  0  0  0  0  0  0
   -0.7234   -0.8478   -2.0261 H   0  0  0  0  0  0  0  0  0  0  0  0
    0.8735    1.2468   -2.2810 H   0  0  0  0  0  0  0  0  0  0  0  0
   -1.5588    0.9658   -0.1557 H   0  0  0  0  0  0  0  0  0  0  0  0
   -4.2256    0.3340    2.0211 H   0  0  0  0  0  0  0  0  0  0  0  0
  1  2  1  0
  1  3  1  0
  3  4  1  0
  4  5  1  0
  5  6  1  0
  5  7  2  0
  4  8  1  0
  8  9  1  0
  8 10  1  0
 10 11  1  0
 10 12  1  0
 12 13  1  0
 13 14  1  0
 14 15  1  0
 14 16  2  0
 14 17  2  0
 12  1  1  0
  1 18  1  1
  2 19  1  0
  4 20  1  6
  6 21  1  0
  8 22  1  6
  9 23  1  0
 10 24  1  6
 11 25  1  0
 12 26  1  6
 15 27  1  0
M  END
$$$$
