@<TRIPOS>MOLECULE
*****
 27 27 0 0 0
SMALL
GASTEIGER

@<TRIPOS>ATOM
      1 C          -0.1673    0.1553    1.1828 C.3     1  UNL1        0.1886
      2 O          -0.0913    1.4871    1.6296 O.3     1  UNL1       -0.3648
      3 O           1.1164   -0.3219    1.1358 O.3     1  UNL1       -0.3316
      4 C           1.7872    0.1251    0.0019 C.3     1  UNL1        0.1859
      5 C           3.2532   -0.0575    0.1197 C.2     1  UNL1        0.3367
      6 O           3.9190   -0.6026    1.2078 O.3     1  UNL1       -0.4788
      7 O           4.0865    0.2562   -0.7480 O.2     1  UNL1       -0.2480
      8 C           1.1845   -0.7092   -1.1253 C.3     1  UNL1        0.1202
      9 O           1.0735   -2.0306   -0.6911 O.3     1  UNL1       -0.3860
     10 C          -0.2046   -0.1550   -1.3240 C.3     1  UNL1        0.1172
     11 O          -0.0729    1.0468   -2.0283 O.3     1  UNL1       -0.3863
     12 C          -0.9776    0.0139   -0.0652 C.3     1  UNL1        0.1682
     13 O          -1.9240   -1.0014    0.0699 O.3     1  UNL1       -0.2047
     14 S          -3.4834   -0.4042    0.0427 S.O2    1  UNL1        0.2080
     15 O          -4.1259   -0.5394    1.6006 O.3     1  UNL1       -0.2311
     16 O          -3.4747    1.0511   -0.3207 O.2     1  UNL1       -0.1181
     17 O          -4.3615   -1.1460   -0.9490 O.2     1  UNL1       -0.1181
     18 H          -0.6986   -0.3814    2.0041 H       1  UNL1        0.0937
     19 H          -0.7634    1.9762    1.0851 H       1  UNL1        0.2126
     20 H           1.5917    1.1986   -0.1711 H       1  UNL1        0.0741
     21 H           4.7132   -0.1496    1.6117 H       1  UNL1        0.2951
     22 H           1.7874   -0.5747   -2.0240 H       1  UNL1        0.0652
     23 H           1.4669   -2.1459    0.1967 H       1  UNL1        0.2100
     24 H          -0.7234   -0.8478   -2.0261 H       1  UNL1        0.0649
     25 H           0.8735    1.2468   -2.2810 H       1  UNL1        0.2100
     26 H          -1.5588    0.9658   -0.1557 H       1  UNL1        0.0699
     27 H          -4.2256    0.3340    2.0211 H       1  UNL1        0.2469
@<TRIPOS>BOND
     1     1     2    1
     2     1     3    1
     3     3     4    1
     4     4     5    1
     5     5     6    1
     6     5     7    2
     7     4     8    1
     8     8     9    1
     9     8    10    1
    10    10    11    1
    11    10    12    1
    12    12    13    1
    13    13    14    1
    14    14    15    1
    15    14    16    2
    16    14    17    2
    17    12     1    1
    18     1    18    1
    19     2    19    1
    20     4    20    1
    21     6    21    1
    22     8    22    1
    23     9    23    1
    24    10    24    1
    25    11    25    1
    26    12    26    1
    27    15    27    1
