@<TRIPOS>MOLECULE
*****
 42 45 0 0 0
SMALL
GASTEIGER

@<TRIPOS>ATOM
      1 N          -3.0713   -3.1395   -0.8755 N.pl3   1  UNL1       -0.3134
      2 C          -3.3119   -1.8085   -0.4305 C.2     1  UNL1        0.2763
      3 N          -2.3975   -0.9100   -0.5620 N.2     1  UNL1       -0.2225
      4 C          -2.7057    0.4197   -0.0918 C.3     1  UNL1        0.1284
      5 C          -3.5750    1.0561   -1.1524 C.3     1  UNL1        0.1199
      6 F          -2.8535    1.0903   -2.3493 F       1  UNL1       -0.2462
      7 C          -1.4099    1.1517    0.0511 C.ar    1  UNL1        0.0198
      8 C          -0.2025    0.5538   -0.2467 C.ar    1  UNL1       -0.0322
      9 C           0.9855    1.2417   -0.1110 C.ar    1  UNL1        0.0342
     10 N           2.2441    0.6499   -0.4108 N.am    1  UNL1       -0.2802
     11 C           3.0200   -0.0507    0.5525 C.2     1  UNL1        0.2680
     12 O           2.5729   -0.1558    1.7376 O.2     1  UNL1       -0.2681
     13 C           4.2938   -0.6441    0.2304 C.ar    1  UNL1        0.1439
     14 N           4.8065   -0.5585   -1.0095 N.ar    1  UNL1       -0.2474
     15 C           5.9920   -1.1016   -1.3408 C.ar    1  UNL1        0.0468
     16 C           6.7524   -1.7826   -0.4150 C.ar    1  UNL1        0.0605
     17 CL          8.2891   -2.4974   -0.8074 Cl      1  UNL1       -0.0819
     18 C           6.2354   -1.8770    0.8629 C.ar    1  UNL1       -0.0213
     19 C           5.0330   -1.3198    1.1771 C.ar    1  UNL1        0.0728
     20 CL          4.3957   -1.4519    2.8062 Cl      1  UNL1       -0.0811
     21 C           0.8975    2.5471    0.3348 C.ar    1  UNL1       -0.0377
     22 C          -0.3100    3.1453    0.6327 C.ar    1  UNL1       -0.0243
     23 C          -1.4962    2.4547    0.4959 C.ar    1  UNL1        0.1291
     24 F          -2.6996    3.0293    0.7865 F       1  UNL1       -0.2051
     25 C          -3.3333    0.3460    1.2429 C.3     1  UNL1        0.0315
     26 C          -4.7271    0.7697    1.5059 C.3     1  UNL1       -0.0065
     27 C          -4.4651   -0.6598    1.3720 C.3     1  UNL1        0.1090
     28 O          -4.4983   -1.3760    0.1590 O.2     1  UNL1       -0.4622
     29 H          -3.8339   -3.7686   -1.1308 H       1  UNL1        0.1466
     30 H          -2.0806   -3.4619   -0.9353 H       1  UNL1        0.1466
     31 H          -3.8713    2.0831   -0.9395 H       1  UNL1        0.0643
     32 H          -4.4788    0.4755   -1.3662 H       1  UNL1        0.0643
     33 H          -0.1815   -0.4841   -0.5972 H       1  UNL1        0.0640
     34 H           2.6395    0.7176   -1.3719 H       1  UNL1        0.1552
     35 H           6.3911   -1.0204   -2.3562 H       1  UNL1        0.0844
     36 H           6.8316   -2.4143    1.6004 H       1  UNL1        0.0648
     37 H           1.8367    3.1014    0.4456 H       1  UNL1        0.0637
     38 H          -0.3506    4.1829    0.9847 H       1  UNL1        0.0647
     39 H          -2.6201    0.2903    2.1027 H       1  UNL1        0.0365
     40 H          -5.3022    1.3544    0.7520 H       1  UNL1        0.0306
     41 H          -4.9222    1.1303    2.5381 H       1  UNL1        0.0306
     42 H          -4.5189   -1.3083    2.2748 H       1  UNL1        0.0737
@<TRIPOS>BOND
     1     1     2    1
     2     2     3    2
     3     3     4    1
     4     4     5    1
     5     5     6    1
     6     4     7    1
     7     7     8   ar
     8     8     9   ar
     9     9    10    1
    10    10    11   am
    11    11    12    2
    12    11    13    1
    13    13    14   ar
    14    14    15   ar
    15    15    16   ar
    16    16    17    1
    17    16    18   ar
    18    18    19   ar
    19    19    20    1
    20     9    21   ar
    21    21    22   ar
    22    22    23   ar
    23    23    24    1
    24     4    25    1
    25    25    26    1
    26    26    27    1
    27    27    28    1
    28    28     2    1
    29    23     7   ar
    30    27    25    1
    31    19    13   ar
    32     1    29    1
    33     1    30    1
    34     5    31    1
    35     5    32    1
    36     8    33    1
    37    10    34    1
    38    15    35    1
    39    18    36    1
    40    21    37    1
    41    22    38    1
    42    25    39    1
    43    26    40    1
    44    26    41    1
    45    27    42    1
