
     RDKit          3D

 42 45  0  0  0  0  0  0  0  0999 V2000
   -3.0713   -3.1395   -0.8755 N   0  0  0  0  0  0  0  0  0  0  0  0
   -3.3119   -1.8085   -0.4305 C   0  0  0  0  0  0  0  0  0  0  0  0
   -2.3975   -0.9100   -0.5620 N   0  0  0  0  0  0  0  0  0  0  0  0
   -2.7057    0.4197   -0.0918 C   0  0  2  0  0  0  0  0  0  0  0  0
   -3.5750    1.0561   -1.1524 C   0  0  0  0  0  0  0  0  0  0  0  0
   -2.8535    1.0903   -2.3493 F   0  0  0  0  0  0  0  0  0  0  0  0
   -1.4099    1.1517    0.0511 C   0  0  0  0  0  0  0  0  0  0  0  0
   -0.2025    0.5538   -0.2467 C   0  0  0  0  0  0  0  0  0  0  0  0
    0.9855    1.2417   -0.1110 C   0  0  0  0  0  0  0  0  0  0  0  0
    2.2441    0.6499   -0.4108 N   0  0  0  0  0  0  0  0  0  0  0  0
    3.0200   -0.0507    0.5525 C   0  0  0  0  0  0  0  0  0  0  0  0
    2.5729   -0.1558    1.7376 O   0  0  0  0  0  0  0  0  0  0  0  0
    4.2938   -0.6441    0.2304 C   0  0  0  0  0  0  0  0  0  0  0  0
    4.8065   -0.5585   -1.0095 N   0  0  0  0  0  0  0  0  0  0  0  0
    5.9920   -1.1016   -1.3408 C   0  0  0  0  0  0  0  0  0  0  0  0
    6.7524   -1.7826   -0.4150 C   0  0  0  0  0  0  0  0  0  0  0  0
    8.2891   -2.4974   -0.8074 Cl  0  0  0  0  0  0  0  0  0  0  0  0
    6.2354   -1.8770    0.8629 C   0  0  0  0  0  0  0  0  0  0  0  0
    5.0330   -1.3198    1.1771 C   0  0  0  0  0  0  0  0  0  0  0  0
    4.3957   -1.4519    2.8062 Cl  0  0  0  0  0  0  0  0  0  0  0  0
    0.8975    2.5471    0.3348 C   0  0  0  0  0  0  0  0  0  0  0  0
   -0.3100    3.1453    0.6327 C   0  0  0  0  0  0  0  0  0  0  0  0
   -1.4962    2.4547    0.4959 C   0  0  0  0  0  0  0  0  0  0  0  0
   -2.6996    3.0293    0.7865 F   0  0  0  0  0  0  0  0  0  0  0  0
   -3.3333    0.3460    1.2429 C   0  0  1  0  0  0  0  0  0  0  0  0
   -4.7271    0.7697    1.5059 C   0  0  0  0  0  0  0  0  0  0  0  0
   -4.4651   -0.6598    1.3720 C   0  0  1  0  0  0  0  0  0  0  0  0
   -4.4983   -1.3760    0.1590 O   0  0  0  0  0  0  0  0  0  0  0  0
   -3.8339   -3.7686   -1.1308 H   0  0  0  0  0  0  0  0  0  0  0  0
   -2.0806   -3.4619   -0.9353 H   0  0  0  0  0  0  0  0  0  0  0  0
   -3.8713    2.0831   -0.9395 H   0  0  0  0  0  0  0  0  0  0  0  0
   -4.4788    0.4755   -1.3662 H   0  0  0  0  0  0  0  0  0  0  0  0
   -0.1815   -0.4841   -0.5972 H   0  0  0  0  0  0  0  0  0  0  0  0
    2.6395    0.7176   -1.3719 H   0  0  0  0  0  0  0  0  0  0  0  0
    6.3911   -1.0204   -2.3562 H   0  0  0  0  0  0  0  0  0  0  0  0
    6.8316   -2.4143    1.6004 H   0  0  0  0  0  0  0  0  0  0  0  0
    1.8367    3.1014    0.4456 H   0  0  0  0  0  0  0  0  0  0  0  0
   -0.3506    4.1829    0.9847 H   0  0  0  0  0  0  0  0  0  0  0  0
   -2.6201    0.2903    2.1027 H   0  0  0  0  0  0  0  0  0  0  0  0
   -5.3022    1.3544    0.7520 H   0  0  0  0  0  0  0  0  0  0  0  0
   -4.9222    1.1303    2.5381 H   0  0  0  0  0  0  0  0  0  0  0  0
   -4.5189   -1.3083    2.2748 H   0  0  0  0  0  0  0  0  0  0  0  0
  1  2  1  0
  2  3  2  0
  3  4  1  0
  4  5  1  6
  5  6  1  0
  4  7  1  0
  7  8  2  0
  8  9  1  0
  9 10  1  0
 10 11  1  0
 11 12  2  0
 11 13  1  0
 13 14  2  0
 14 15  1  0
 15 16  2  0
 16 17  1  0
 16 18  1  0
 18 19  2  0
 19 20  1  0
  9 21  2  0
 21 22  1  0
 22 23  2  0
 23 24  1  0
  4 25  1  0
 25 26  1  0
 26 27  1  0
 27 28  1  0
 28  2  1  0
 23  7  1  0
 27 25  1  0
 19 13  1  0
  1 29  1  0
  1 30  1  0
  5 31  1  0
  5 32  1  0
  8 33  1  0
 10 34  1  0
 15 35  1  0
 18 36  1  0
 21 37  1  0
 22 38  1  0
 25 39  1  1
 26 40  1  0
 26 41  1  0
 27 42  1  1
M  END
$$$$
