
     RDKit          3D

 58 61  0  0  0  0  0  0  0  0999 V2000
   -4.6781   -1.2706    1.5563 C   0  0  0  0  0  0  0  0  0  0  0  0
   -5.4056   -0.7772    0.3370 C   0  0  0  0  0  0  0  0  0  0  0  0
   -5.5358   -1.9123   -0.6430 C   0  0  0  0  0  0  0  0  0  0  0  0
   -6.8136   -0.3372    0.7064 C   0  0  0  0  0  0  0  0  0  0  0  0
   -4.6666    0.2883   -0.2892 N   0  0  0  0  0  0  0  0  0  0  0  0
   -4.3753    1.5184    0.3595 C   0  0  0  0  0  0  0  0  0  0  0  0
   -4.7720    1.7091    1.5305 O   0  0  0  0  0  0  0  0  0  0  0  0
   -3.6099    2.5225   -0.3886 C   0  0  0  0  0  0  0  0  0  0  0  0
   -4.0751    3.7296   -0.8238 C   0  0  0  0  0  0  0  0  0  0  0  0
   -3.0576    4.3369   -1.4838 N   0  0  0  0  0  0  0  0  0  0  0  0
   -1.9720    3.5302   -1.4656 C   0  0  0  0  0  0  0  0  0  0  0  0
   -0.7228    3.6375   -1.9601 N   0  0  0  0  0  0  0  0  0  0  0  0
    0.1539    2.6404   -1.7731 C   0  0  0  0  0  0  0  0  0  0  0  0
   -0.1523    1.4850   -1.0894 C   0  0  0  0  0  0  0  0  0  0  0  0
    0.8533    0.4316   -0.8889 C   0  0  0  0  0  0  0  0  0  0  0  0
    2.1084    0.4095   -1.3561 N   0  0  0  0  0  0  0  0  0  0  0  0
    2.7544   -0.6747   -0.9721 N   0  0  0  0  0  0  0  0  0  0  0  0
    4.1052   -1.0135   -1.2856 C   0  0  0  0  0  0  0  0  0  0  0  0
    5.1266   -0.4582   -0.3101 C   0  0  0  0  0  0  0  0  0  0  0  0
    6.4761   -0.9220   -0.8041 C   0  0  0  0  0  0  0  0  0  0  0  0
    7.8160   -0.3638    0.1820 S   0  0  0  0  0  6  0  0  0  0  0  0
    7.9486    1.3899    0.2666 C   0  0  0  0  0  0  0  0  0  0  0  0
    9.0867   -0.9202   -0.4357 O   0  0  0  0  0  0  0  0  0  0  0  0
    7.7494   -0.9280    1.5890 O   0  0  0  0  0  0  0  0  0  0  0  0
    1.9070   -1.3984   -0.2269 C   0  0  0  0  0  0  0  0  0  0  0  0
    1.9764   -2.6140    0.4587 C   0  0  0  0  0  0  0  0  0  0  0  0
    0.9200   -3.1263    1.1651 C   0  0  0  0  0  0  0  0  0  0  0  0
    1.0281   -4.3118    1.8209 F   0  0  0  0  0  0  0  0  0  0  0  0
   -0.2745   -2.4460    1.2251 C   0  0  0  0  0  0  0  0  0  0  0  0
   -0.3551   -1.2378    0.5475 C   0  0  0  0  0  0  0  0  0  0  0  0
    0.7004   -0.7332   -0.1536 C   0  0  0  0  0  0  0  0  0  0  0  0
   -1.3884    1.3712   -0.5973 N   0  0  0  0  0  0  0  0  0  0  0  0
   -2.2893    2.3810   -0.7829 C   0  0  0  0  0  0  0  0  0  0  0  0
   -5.3077   -2.0446    2.0332 H   0  0  0  0  0  0  0  0  0  0  0  0
   -3.7332   -1.7332    1.1813 H   0  0  0  0  0  0  0  0  0  0  0  0
   -4.3859   -0.4641    2.2331 H   0  0  0  0  0  0  0  0  0  0  0  0
   -5.8501   -1.5120   -1.6266 H   0  0  0  0  0  0  0  0  0  0  0  0
   -6.2707   -2.6443   -0.2367 H   0  0  0  0  0  0  0  0  0  0  0  0
   -4.5572   -2.3985   -0.7875 H   0  0  0  0  0  0  0  0  0  0  0  0
   -6.8039    0.0356    1.7633 H   0  0  0  0  0  0  0  0  0  0  0  0
   -7.1636    0.4733    0.0329 H   0  0  0  0  0  0  0  0  0  0  0  0
   -7.4717   -1.2021    0.5931 H   0  0  0  0  0  0  0  0  0  0  0  0
   -4.3091    0.1763   -1.2849 H   0  0  0  0  0  0  0  0  0  0  0  0
   -5.0529    4.1838   -0.7059 H   0  0  0  0  0  0  0  0  0  0  0  0
   -3.0659    5.2626   -1.9392 H   0  0  0  0  0  0  0  0  0  0  0  0
    1.1483    2.7867   -2.1983 H   0  0  0  0  0  0  0  0  0  0  0  0
    4.1951   -2.1360   -1.3539 H   0  0  0  0  0  0  0  0  0  0  0  0
    4.3600   -0.6702   -2.3229 H   0  0  0  0  0  0  0  0  0  0  0  0
    5.1341    0.6543   -0.4063 H   0  0  0  0  0  0  0  0  0  0  0  0
    4.9043   -0.7022    0.7261 H   0  0  0  0  0  0  0  0  0  0  0  0
    6.5895   -0.5754   -1.8330 H   0  0  0  0  0  0  0  0  0  0  0  0
    6.5178   -2.0319   -0.8317 H   0  0  0  0  0  0  0  0  0  0  0  0
    7.1656    1.9017   -0.3623 H   0  0  0  0  0  0  0  0  0  0  0  0
    7.9450    1.7466    1.3052 H   0  0  0  0  0  0  0  0  0  0  0  0
    8.9264    1.7416   -0.1767 H   0  0  0  0  0  0  0  0  0  0  0  0
    2.9095   -3.1715    0.4277 H   0  0  0  0  0  0  0  0  0  0  0  0
   -1.0796   -2.8833    1.7907 H   0  0  0  0  0  0  0  0  0  0  0  0
   -1.3108   -0.7292    0.6145 H   0  0  0  0  0  0  0  0  0  0  0  0
  1  2  1  0
  2  3  1  0
  2  4  1  0
  2  5  1  0
  5  6  1  0
  6  7  2  0
  6  8  1  0
  8  9  2  0
  9 10  1  0
 10 11  1  0
 11 12  2  0
 12 13  1  0
 13 14  2  0
 14 15  1  0
 15 16  2  0
 16 17  1  0
 17 18  1  0
 18 19  1  0
 19 20  1  0
 20 21  1  0
 21 22  1  0
 21 23  2  0
 21 24  2  0
 17 25  1  0
 25 26  2  0
 26 27  1  0
 27 28  1  0
 27 29  2  0
 29 30  1  0
 30 31  2  0
 14 32  1  0
 32 33  2  0
 33  8  1  0
 33 11  1  0
 31 15  1  0
 31 25  1  0
  1 34  1  0
  1 35  1  0
  1 36  1  0
  3 37  1  0
  3 38  1  0
  3 39  1  0
  4 40  1  0
  4 41  1  0
  4 42  1  0
  5 43  1  0
  9 44  1  0
 10 45  1  0
 13 46  1  0
 18 47  1  0
 18 48  1  0
 19 49  1  0
 19 50  1  0
 20 51  1  0
 20 52  1  0
 22 53  1  0
 22 54  1  0
 22 55  1  0
 26 56  1  0
 29 57  1  0
 30 58  1  0
M  END
$$$$
