@<TRIPOS>MOLECULE
*****
 58 61 0 0 0
SMALL
GASTEIGER

@<TRIPOS>ATOM
      1 C          -4.6781   -1.2706    1.5563 C.3     1  UNL1       -0.0442
      2 C          -5.4056   -0.7772    0.3370 C.3     1  UNL1        0.0265
      3 C          -5.5358   -1.9123   -0.6430 C.3     1  UNL1       -0.0442
      4 C          -6.8136   -0.3372    0.7064 C.3     1  UNL1       -0.0442
      5 N          -4.6666    0.2883   -0.2892 N.am    1  UNL1       -0.3065
      6 C          -4.3753    1.5184    0.3595 C.2     1  UNL1        0.2480
      7 O          -4.7720    1.7091    1.5305 O.2     1  UNL1       -0.2701
      8 C          -3.6099    2.5225   -0.3886 C.ar    1  UNL1        0.0815
      9 C          -4.0751    3.7296   -0.8238 C.ar    1  UNL1        0.0178
     10 N          -3.0576    4.3369   -1.4838 N.ar    1  UNL1       -0.3438
     11 C          -1.9720    3.5302   -1.4656 C.ar    1  UNL1        0.1574
     12 N          -0.7228    3.6375   -1.9601 N.ar    1  UNL1       -0.2338
     13 C           0.1539    2.6404   -1.7731 C.ar    1  UNL1        0.0575
     14 C          -0.1523    1.4850   -1.0894 C.ar    1  UNL1        0.1104
     15 C           0.8533    0.4316   -0.8889 C.ar    1  UNL1        0.1201
     16 N           2.1084    0.4095   -1.3561 N.ar    1  UNL1       -0.1685
     17 N           2.7544   -0.6747   -0.9721 N.ar    1  UNL1       -0.2629
     18 C           4.1052   -1.0135   -1.2856 C.3     1  UNL1        0.0437
     19 C           5.1266   -0.4582   -0.3101 C.3     1  UNL1       -0.0139
     20 C           6.4761   -0.9220   -0.8041 C.3     1  UNL1        0.0671
     21 S           7.8160   -0.3638    0.1820 S.O2    1  UNL1       -0.0337
     22 C           7.9486    1.3899    0.2666 C.3     1  UNL1        0.0544
     23 O           9.0867   -0.9202   -0.4357 O.2     1  UNL1       -0.1746
     24 O           7.7494   -0.9280    1.5890 O.2     1  UNL1       -0.1746
     25 C           1.9070   -1.3984   -0.2269 C.ar    1  UNL1        0.0723
     26 C           1.9764   -2.6140    0.4587 C.ar    1  UNL1       -0.0008
     27 C           0.9200   -3.1263    1.1651 C.ar    1  UNL1        0.1254
     28 F           1.0281   -4.3118    1.8209 F       1  UNL1       -0.2054
     29 C          -0.2745   -2.4460    1.2251 C.ar    1  UNL1       -0.0257
     30 C          -0.3551   -1.2378    0.5475 C.ar    1  UNL1       -0.0477
     31 C           0.7004   -0.7332   -0.1536 C.ar    1  UNL1        0.0293
     32 N          -1.3884    1.3712   -0.5973 N.ar    1  UNL1       -0.2397
     33 C          -2.2893    2.3810   -0.7829 C.ar    1  UNL1        0.1202
     34 H          -5.3077   -2.0446    2.0332 H       1  UNL1        0.0250
     35 H          -3.7332   -1.7332    1.1813 H       1  UNL1        0.0250
     36 H          -4.3859   -0.4641    2.2331 H       1  UNL1        0.0250
     37 H          -5.8501   -1.5120   -1.6266 H       1  UNL1        0.0250
     38 H          -6.2707   -2.6443   -0.2367 H       1  UNL1        0.0250
     39 H          -4.5572   -2.3985   -0.7875 H       1  UNL1        0.0250
     40 H          -6.8039    0.0356    1.7633 H       1  UNL1        0.0250
     41 H          -7.1636    0.4733    0.0329 H       1  UNL1        0.0250
     42 H          -7.4717   -1.2021    0.5931 H       1  UNL1        0.0250
     43 H          -4.3091    0.1763   -1.2849 H       1  UNL1        0.1495
     44 H          -5.0529    4.1838   -0.7059 H       1  UNL1        0.0816
     45 H          -3.0659    5.2626   -1.9392 H       1  UNL1        0.1668
     46 H           1.1483    2.7867   -2.1983 H       1  UNL1        0.0853
     47 H           4.1951   -2.1360   -1.3539 H       1  UNL1        0.0509
     48 H           4.3600   -0.6702   -2.3229 H       1  UNL1        0.0509
     49 H           5.1341    0.6543   -0.4063 H       1  UNL1        0.0299
     50 H           4.9043   -0.7022    0.7261 H       1  UNL1        0.0299
     51 H           6.5895   -0.5754   -1.8330 H       1  UNL1        0.0500
     52 H           6.5178   -2.0319   -0.8317 H       1  UNL1        0.0500
     53 H           7.1656    1.9017   -0.3623 H       1  UNL1        0.0464
     54 H           7.9450    1.7466    1.3052 H       1  UNL1        0.0464
     55 H           8.9264    1.7416   -0.1767 H       1  UNL1        0.0464
     56 H           2.9095   -3.1715    0.4277 H       1  UNL1        0.0667
     57 H          -1.0796   -2.8833    1.7907 H       1  UNL1        0.0646
     58 H          -1.3108   -0.7292    0.6145 H       1  UNL1        0.0626
@<TRIPOS>BOND
     1     1     2    1
     2     2     3    1
     3     2     4    1
     4     2     5    1
     5     5     6   am
     6     6     7    2
     7     6     8    1
     8     8     9   ar
     9     9    10   ar
    10    10    11   ar
    11    11    12   ar
    12    12    13   ar
    13    13    14   ar
    14    14    15    1
    15    15    16   ar
    16    16    17   ar
    17    17    18    1
    18    18    19    1
    19    19    20    1
    20    20    21    1
    21    21    22    1
    22    21    23    2
    23    21    24    2
    24    17    25   ar
    25    25    26   ar
    26    26    27   ar
    27    27    28    1
    28    27    29   ar
    29    29    30   ar
    30    30    31   ar
    31    14    32   ar
    32    32    33   ar
    33    33     8   ar
    34    33    11   ar
    35    31    15   ar
    36    31    25   ar
    37     1    34    1
    38     1    35    1
    39     1    36    1
    40     3    37    1
    41     3    38    1
    42     3    39    1
    43     4    40    1
    44     4    41    1
    45     4    42    1
    46     5    43    1
    47     9    44    1
    48    10    45    1
    49    13    46    1
    50    18    47    1
    51    18    48    1
    52    19    49    1
    53    19    50    1
    54    20    51    1
    55    20    52    1
    56    22    53    1
    57    22    54    1
    58    22    55    1
    59    26    56    1
    60    29    57    1
    61    30    58    1
