@<TRIPOS>MOLECULE
*****
 92 93 0 0 0
SMALL
GASTEIGER

@<TRIPOS>ATOM
      1 C           1.3688    2.1305   -1.6517 C.3     1  UNL1        0.0063
      2 N           2.2789    1.0114   -1.4309 N.am    1  UNL1       -0.2702
      3 C           1.9303   -0.2777   -1.9320 C.3     1  UNL1        0.0175
      4 C           2.4435   -0.6265   -3.2787 C.3     1  UNL1       -0.0371
      5 C           2.0518    0.2306   -4.4170 C.3     1  UNL1       -0.0516
      6 C           0.6019    0.3493   -4.7247 C.3     1  UNL1       -0.0530
      7 C          -0.0485   -0.9810   -5.0389 C.3     1  UNL1       -0.0531
      8 C          -1.5093   -0.7158   -5.3867 C.3     1  UNL1       -0.0531
      9 C          -2.2050   -2.0180   -5.7027 C.3     1  UNL1       -0.0530
     10 C          -2.2228   -2.9727   -4.5427 C.3     1  UNL1       -0.0516
     11 C          -2.9926   -2.3424   -3.4004 C.3     1  UNL1       -0.0371
     12 C          -3.0187   -3.2588   -2.2096 C.3     1  UNL1        0.0175
     13 N          -3.7777   -2.7011   -1.1320 N.am    1  UNL1       -0.2702
     14 C          -5.2126   -3.0238   -1.0641 C.3     1  UNL1        0.0063
     15 C          -3.3407   -1.8697   -0.1029 C.2     1  UNL1        0.4079
     16 O          -4.0382   -1.4222    0.8394 O.2     1  UNL1       -0.2258
     17 O          -2.8541   -1.0475    0.8920 O.3     1  UNL1       -0.4112
     18 C          -3.6815   -0.5747    1.9321 C.ar    1  UNL1        0.1393
     19 C          -3.6839   -1.3075    3.1004 C.ar    1  UNL1       -0.0188
     20 C          -4.4322   -0.9914    4.2147 C.ar    1  UNL1       -0.0523
     21 C          -5.2345    0.1247    4.1759 C.ar    1  UNL1        0.0039
     22 C          -5.2430    0.8740    3.0056 C.ar    1  UNL1        0.1489
     23 C          -4.4880    0.5388    1.9079 C.ar    1  UNL1        0.0460
     24 N          -6.0970    2.0088    3.0126 N.pl3   1  UNL1       -0.3830
     25 C          -6.0564    2.6812    1.7254 C.3     1  UNL1        0.0812
     26 C          -7.4705    1.5099    3.1947 C.3     1  UNL1        0.0812
     27 C          -5.8169    2.9098    4.0861 C.3     1  UNL1        0.0812
     28 C           3.4745    1.3209   -0.6828 C.2     1  UNL1        0.4079
     29 O           3.5555    2.5187   -0.3125 O.2     1  UNL1       -0.2258
     30 O           4.4547    0.3845   -0.3946 O.3     1  UNL1       -0.4112
     31 C           5.6034    0.6973    0.3242 C.ar    1  UNL1        0.1393
     32 C           6.6369    1.2551   -0.4404 C.ar    1  UNL1       -0.0188
     33 C           7.7773    1.5747    0.2212 C.ar    1  UNL1       -0.0523
     34 C           7.9835    1.3926    1.5629 C.ar    1  UNL1        0.0039
     35 C           6.9806    0.8431    2.3476 C.ar    1  UNL1        0.1489
     36 C           5.8003    0.5082    1.6834 C.ar    1  UNL1        0.0460
     37 N           6.9781    0.5666    3.7299 N.pl3   1  UNL1       -0.3830
     38 C           5.9661    1.2967    4.4412 C.3     1  UNL1        0.0812
     39 C           8.2677    0.8331    4.3263 C.3     1  UNL1        0.0812
     40 C           6.7140   -0.8542    3.8750 C.3     1  UNL1        0.0812
     41 H           0.3162    1.7970   -1.7754 H       1  UNL1        0.0430
     42 H           1.4150    2.7512   -0.7067 H       1  UNL1        0.0430
     43 H           1.7572    2.7236   -2.5019 H       1  UNL1        0.0430
     44 H           2.3473   -1.0462   -1.2165 H       1  UNL1        0.0465
     45 H           0.8300   -0.3872   -1.8267 H       1  UNL1        0.0465
     46 H           2.2626   -1.7014   -3.5041 H       1  UNL1        0.0280
     47 H           3.5721   -0.5652   -3.2125 H       1  UNL1        0.0280
     48 H           2.5234   -0.2358   -5.3373 H       1  UNL1        0.0266
     49 H           2.5380    1.2287   -4.3620 H       1  UNL1        0.0266
     50 H           0.5093    0.9934   -5.6253 H       1  UNL1        0.0265
     51 H          -0.0071    0.8414   -3.9344 H       1  UNL1        0.0265
     52 H           0.4173   -1.4200   -5.9318 H       1  UNL1        0.0265
     53 H          -0.0198   -1.6693   -4.1760 H       1  UNL1        0.0265
     54 H          -2.0116   -0.1516   -4.5850 H       1  UNL1        0.0265
     55 H          -1.5627   -0.1096   -6.3317 H       1  UNL1        0.0265
     56 H          -1.6968   -2.4684   -6.5908 H       1  UNL1        0.0265
     57 H          -3.2476   -1.8222   -6.0666 H       1  UNL1        0.0265
     58 H          -1.2061   -3.2715   -4.3025 H       1  UNL1        0.0266
     59 H          -2.7479   -3.8979   -4.8982 H       1  UNL1        0.0266
     60 H          -4.0359   -2.2325   -3.7797 H       1  UNL1        0.0280
     61 H          -2.5044   -1.4102   -3.1126 H       1  UNL1        0.0280
     62 H          -3.3999   -4.2495   -2.5211 H       1  UNL1        0.0465
     63 H          -1.9599   -3.4739   -1.8698 H       1  UNL1        0.0465
     64 H          -5.8216   -2.0940   -0.9077 H       1  UNL1        0.0430
     65 H          -5.5329   -3.5936   -1.9341 H       1  UNL1        0.0430
     66 H          -5.3399   -3.6005   -0.1263 H       1  UNL1        0.0430
     67 H          -3.0596   -2.2033    3.1770 H       1  UNL1        0.0654
     68 H          -4.4192   -1.5901    5.1343 H       1  UNL1        0.0621
     69 H          -5.8245    0.3736    5.0569 H       1  UNL1        0.0681
     70 H          -4.4868    1.1118    0.9983 H       1  UNL1        0.0718
     71 H          -5.0750    3.1513    1.5739 H       1  UNL1        0.0931
     72 H          -6.8088    3.5158    1.7297 H       1  UNL1        0.0931
     73 H          -6.3185    2.0107    0.8950 H       1  UNL1        0.0931
     74 H          -7.6173    1.3664    4.2793 H       1  UNL1        0.0931
     75 H          -8.1437    2.3037    2.8348 H       1  UNL1        0.0931
     76 H          -7.6130    0.5879    2.5936 H       1  UNL1        0.0931
     77 H          -6.4391    3.8146    3.9988 H       1  UNL1        0.0931
     78 H          -4.7206    3.1061    4.1004 H       1  UNL1        0.0931
     79 H          -6.0986    2.4385    5.0619 H       1  UNL1        0.0931
     80 H           6.5161    1.4169   -1.5035 H       1  UNL1        0.0654
     81 H           8.6424    2.0159   -0.2873 H       1  UNL1        0.0621
     82 H           8.8795    1.6443    2.0797 H       1  UNL1        0.0681
     83 H           4.9016    0.0710    2.1206 H       1  UNL1        0.0718
     84 H           5.2933    1.8659    3.7713 H       1  UNL1        0.0931
     85 H           5.3367    0.6627    5.1012 H       1  UNL1        0.0931
     86 H           6.4407    2.0818    5.0990 H       1  UNL1        0.0931
     87 H           9.0937    0.4525    3.7043 H       1  UNL1        0.0931
     88 H           8.3583    1.8861    4.6369 H       1  UNL1        0.0931
     89 H           8.3057    0.1961    5.2597 H       1  UNL1        0.0931
     90 H           6.2008   -1.1049    4.8055 H       1  UNL1        0.0931
     91 H           7.6810   -1.4206    3.8673 H       1  UNL1        0.0931
     92 H           6.1374   -1.2653    3.0234 H       1  UNL1        0.0931
@<TRIPOS>UNITY_ATOM_ATTR
24 1
charge 1
37 1
charge 1
@<TRIPOS>BOND
     1     1     2    1
     2     2     3    1
     3     3     4    1
     4     4     5    1
     5     5     6    1
     6     6     7    1
     7     7     8    1
     8     8     9    1
     9     9    10    1
    10    10    11    1
    11    11    12    1
    12    12    13    1
    13    13    14    1
    14    13    15   am
    15    15    16    2
    16    15    17    1
    17    17    18    1
    18    18    19   ar
    19    19    20   ar
    20    20    21   ar
    21    21    22   ar
    22    22    23   ar
    23    22    24    1
    24    24    25    1
    25    24    26    1
    26    24    27    1
    27     2    28   am
    28    28    29    2
    29    28    30    1
    30    30    31    1
    31    31    32   ar
    32    32    33   ar
    33    33    34   ar
    34    34    35   ar
    35    35    36   ar
    36    35    37    1
    37    37    38    1
    38    37    39    1
    39    37    40    1
    40    23    18   ar
    41    36    31   ar
    42     1    41    1
    43     1    42    1
    44     1    43    1
    45     3    44    1
    46     3    45    1
    47     4    46    1
    48     4    47    1
    49     5    48    1
    50     5    49    1
    51     6    50    1
    52     6    51    1
    53     7    52    1
    54     7    53    1
    55     8    54    1
    56     8    55    1
    57     9    56    1
    58     9    57    1
    59    10    58    1
    60    10    59    1
    61    11    60    1
    62    11    61    1
    63    12    62    1
    64    12    63    1
    65    14    64    1
    66    14    65    1
    67    14    66    1
    68    19    67    1
    69    20    68    1
    70    21    69    1
    71    23    70    1
    72    25    71    1
    73    25    72    1
    74    25    73    1
    75    26    74    1
    76    26    75    1
    77    26    76    1
    78    27    77    1
    79    27    78    1
    80    27    79    1
    81    32    80    1
    82    33    81    1
    83    34    82    1
    84    36    83    1
    85    38    84    1
    86    38    85    1
    87    38    86    1
    88    39    87    1
    89    39    88    1
    90    39    89    1
    91    40    90    1
    92    40    91    1
    93    40    92    1
