@<TRIPOS>MOLECULE
*****
 36 38 0 0 0
SMALL
GASTEIGER

@<TRIPOS>ATOM
      1 C          -0.1854    2.7664    0.6561 C.3     1  UNL1        0.0239
      2 N          -0.7917    1.5275    0.3697 N.pl3   1  UNL1       -0.1975
      3 C          -0.3678    0.2260   -0.0153 C.2     1  UNL1        0.1547
      4 C           1.0745    0.1585   -0.1213 C.2     1  UNL1        0.2685
      5 O           1.9964    0.9870    0.0507 O.2     1  UNL1       -0.2683
      6 N           1.9031   -0.9370   -0.4729 N.am    1  UNL1       -0.2652
      7 C           3.2974   -0.6721   -0.4846 C.ar    1  UNL1        0.1251
      8 N           4.0619   -0.2394   -1.4943 N.ar    1  UNL1       -0.2401
      9 C           5.3741   -0.0352   -1.3481 C.ar    1  UNL1        0.0297
     10 C           6.0201   -0.2633   -0.1287 C.ar    1  UNL1       -0.0435
     11 C           5.2474   -0.7138    0.9380 C.ar    1  UNL1       -0.0571
     12 C           3.8929   -0.9153    0.7547 C.ar    1  UNL1       -0.0215
     13 C          -1.1603   -0.7804   -0.2438 C.2     1  UNL1        0.1534
     14 O          -0.6767   -2.0212   -0.6166 O.2     1  UNL1       -0.5040
     15 C          -2.5842   -0.7395   -0.1425 C.ar    1  UNL1        0.0451
     16 C          -3.3035    0.3548    0.2068 C.ar    1  UNL1        0.1194
     17 C          -4.6501    0.4406    0.3097 C.ar    1  UNL1       -0.0344
     18 C          -5.4350   -0.6833    0.0404 C.ar    1  UNL1       -0.0599
     19 C          -4.7599   -1.8291   -0.3205 C.ar    1  UNL1       -0.0610
     20 C          -3.3838   -1.8337   -0.4025 C.ar    1  UNL1       -0.0491
     21 S          -2.4942    1.8458    0.5868 S.O2    1  UNL1        0.0754
     22 O          -2.6800    2.1365    2.0668 O.2     1  UNL1       -0.1498
     23 O          -2.9660    2.9804   -0.2721 O.2     1  UNL1       -0.1498
     24 H           0.9122    2.7772    0.5687 H       1  UNL1        0.0446
     25 H          -0.6273    3.6172    0.0458 H       1  UNL1        0.0446
     26 H          -0.4326    3.0484    1.7305 H       1  UNL1        0.0446
     27 H           1.4754   -1.8763   -0.7052 H       1  UNL1        0.1566
     28 H           5.9421    0.3202   -2.2170 H       1  UNL1        0.0830
     29 H           7.0863   -0.0842   -0.0557 H       1  UNL1        0.0633
     30 H           5.7995   -0.8714    1.8497 H       1  UNL1        0.0619
     31 H           3.4204   -1.2639    1.6622 H       1  UNL1        0.0652
     32 H          -0.9935   -2.5053   -1.4552 H       1  UNL1        0.2923
     33 H          -5.2348    1.3145    0.5891 H       1  UNL1        0.0637
     34 H          -6.5061   -0.7231    0.0920 H       1  UNL1        0.0618
     35 H          -5.3279   -2.7172   -0.5362 H       1  UNL1        0.0618
     36 H          -2.9430   -2.7962   -0.6982 H       1  UNL1        0.0625
@<TRIPOS>BOND
     1     1     2    1
     2     2     3    1
     3     3     4    1
     4     4     5    2
     5     4     6   am
     6     6     7    1
     7     7     8   ar
     8     8     9   ar
     9     9    10   ar
    10    10    11   ar
    11    11    12   ar
    12     3    13    2
    13    13    14    1
    14    13    15    1
    15    15    16   ar
    16    16    17   ar
    17    17    18   ar
    18    18    19   ar
    19    19    20   ar
    20    16    21    1
    21    21    22    2
    22    21    23    2
    23    21     2    1
    24    12     7   ar
    25    20    15   ar
    26     1    24    1
    27     1    25    1
    28     1    26    1
    29     6    27    1
    30     9    28    1
    31    10    29    1
    32    11    30    1
    33    12    31    1
    34    14    32    1
    35    17    33    1
    36    18    34    1
    37    19    35    1
    38    20    36    1
