@<TRIPOS>MOLECULE
*****
 36 37 0 0 0
SMALL
GASTEIGER

@<TRIPOS>ATOM
      1 C           5.7121    0.9871   -0.0475 C.3     1  UNL1        0.0136
      2 C           4.4000    0.8864    0.6511 C.2     1  UNL1        0.2265
      3 O           4.3322    1.6079    1.6789 O.2     1  UNL1       -0.2746
      4 N           3.4153    0.0340    0.1152 N.am    1  UNL1       -0.2239
      5 N           2.1144   -0.2901    0.5019 N.am    1  UNL1       -0.1350
      6 C           1.8650   -1.3669    1.3682 C.2     1  UNL1        0.3281
      7 O           2.5532   -2.2241    1.9669 O.2     1  UNL1       -0.2505
      8 N           0.4349   -1.3980    1.5393 N.am    1  UNL1       -0.2600
      9 C          -0.2337   -0.5220    0.5712 C.3     1  UNL1        0.2460
     10 O          -1.1400    0.2184    1.2688 O.3     1  UNL1       -0.3376
     11 C          -2.1238    0.7961    0.4719 C.3     1  UNL1        0.1131
     12 C          -2.9155    1.8162    1.2416 C.3     1  UNL1        0.0730
     13 O          -3.5558    1.2841    2.3404 O.3     1  UNL1       -0.3924
     14 C          -2.9721   -0.3633   -0.0114 C.3     1  UNL1        0.1119
     15 O          -4.1756    0.0064   -0.5429 O.3     1  UNL1       -0.3865
     16 C          -2.0876   -1.0558   -1.0559 C.3     1  UNL1        0.1141
     17 O          -2.7374   -2.1561   -1.6080 O.3     1  UNL1       -0.3864
     18 C          -0.7506   -1.3882   -0.5215 C.3     1  UNL1        0.1381
     19 O           0.1612   -1.2767   -1.5929 O.3     1  UNL1       -0.3840
     20 C           0.8937    0.3410    0.1344 C.2     1  UNL1        0.2932
     21 O           0.9059    1.4479   -0.4595 O.2     1  UNL1       -0.2684
     22 H           6.4366    0.3947    0.5376 H       1  UNL1        0.0323
     23 H           6.0008    2.0374   -0.1130 H       1  UNL1        0.0323
     24 H           5.6533    0.5294   -1.0568 H       1  UNL1        0.0323
     25 H           3.6387   -0.5070   -0.7653 H       1  UNL1        0.1735
     26 H          -0.1427   -1.9453    2.2379 H       1  UNL1        0.1536
     27 H          -1.6116    1.2986   -0.3730 H       1  UNL1        0.0647
     28 H          -3.6919    2.2409    0.5717 H       1  UNL1        0.0584
     29 H          -2.2185    2.6489    1.4670 H       1  UNL1        0.0584
     30 H          -4.5138    1.0889    2.1934 H       1  UNL1        0.2095
     31 H          -3.0847   -1.1097    0.8076 H       1  UNL1        0.0647
     32 H          -4.2268    0.9148   -0.8892 H       1  UNL1        0.2100
     33 H          -1.9837   -0.3225   -1.8847 H       1  UNL1        0.0648
     34 H          -3.6298   -1.8443   -1.9128 H       1  UNL1        0.2100
     35 H          -0.7278   -2.4697   -0.2638 H       1  UNL1        0.0672
     36 H           0.0061   -0.3395   -1.9354 H       1  UNL1        0.2101
@<TRIPOS>BOND
     1     1     2    1
     2     2     3    2
     3     2     4   am
     4     4     5    1
     5     5     6   am
     6     6     7    2
     7     6     8   am
     8     8     9    1
     9     9    10    1
    10    10    11    1
    11    11    12    1
    12    12    13    1
    13    11    14    1
    14    14    15    1
    15    14    16    1
    16    16    17    1
    17    16    18    1
    18    18    19    1
    19     9    20    1
    20    20    21    2
    21    20     5   am
    22    18     9    1
    23     1    22    1
    24     1    23    1
    25     1    24    1
    26     4    25    1
    27     8    26    1
    28    11    27    1
    29    12    28    1
    30    12    29    1
    31    13    30    1
    32    14    31    1
    33    15    32    1
    34    16    33    1
    35    17    34    1
    36    18    35    1
    37    19    36    1
