@<TRIPOS>MOLECULE
*****
 44 46 0 0 0
SMALL
GASTEIGER

@<TRIPOS>ATOM
      1 C           2.6647   -0.3065   -2.5228 C.3     1  UNL1        0.0789
      2 O           2.6154   -1.0096   -1.2643 O.3     1  UNL1       -0.4928
      3 C           3.1584   -0.3115   -0.1957 C.ar    1  UNL1        0.1522
      4 C           2.3646    0.4720    0.6009 C.ar    1  UNL1        0.0798
      5 C           3.0582    1.1032    1.6098 C.ar    1  UNL1       -0.0443
      6 C           4.4128    0.9587    1.7984 C.ar    1  UNL1       -0.0387
      7 C           5.1685    0.1576    0.9712 C.ar    1  UNL1        0.0467
      8 N           6.5496    0.0419    1.2057 N.pl3   1  UNL1       -0.3567
      9 C           4.5162   -0.4937   -0.0539 C.ar    1  UNL1        0.1038
     10 CL          5.4595   -1.5163   -1.1156 Cl      1  UNL1       -0.0778
     11 C           0.9406    0.6442    0.5094 C.2     1  UNL1        0.2479
     12 O           0.3849    1.4389    1.3258 O.2     1  UNL1       -0.2701
     13 N          -0.0072    0.0852   -0.3438 N.am    1  UNL1       -0.3080
     14 C          -1.4284    0.3565   -0.3327 C.3     1  UNL1        0.0286
     15 C          -1.8015    0.9090   -1.6611 C.3     1  UNL1       -0.0214
     16 C          -3.1248    0.5350   -2.1981 C.3     1  UNL1        0.0006
     17 N          -3.9291   -0.3318   -1.3751 N.3     1  UNL1       -0.3019
     18 C          -4.5627    0.3213   -0.2733 C.3     1  UNL1       -0.0011
     19 C          -4.4140   -0.4932    0.9943 C.3     1  UNL1       -0.0399
     20 C          -2.9588   -0.7333    1.3356 C.3     1  UNL1       -0.0462
     21 C          -2.1389   -0.8951    0.0664 C.3     1  UNL1       -0.0097
     22 C          -3.0709   -1.4235   -0.9896 C.3     1  UNL1        0.0034
     23 H           3.5903   -0.6175   -3.0489 H       1  UNL1        0.0660
     24 H           2.6934    0.7897   -2.3741 H       1  UNL1        0.0660
     25 H           1.7594   -0.5247   -3.1186 H       1  UNL1        0.0660
     26 H           2.5283    1.7623    2.3157 H       1  UNL1        0.0627
     27 H           4.8904    1.4821    2.6081 H       1  UNL1        0.0637
     28 H           7.1027   -0.2625    2.0250 H       1  UNL1        0.1424
     29 H           7.1123    0.3234    0.3771 H       1  UNL1        0.1424
     30 H           0.3307   -0.5922   -1.0392 H       1  UNL1        0.1493
     31 H          -1.6141    1.0887    0.4791 H       1  UNL1        0.0502
     32 H          -1.7607    2.0265   -1.5712 H       1  UNL1        0.0295
     33 H          -1.0314    0.6835   -2.4450 H       1  UNL1        0.0295
     34 H          -3.0532    0.0205   -3.1911 H       1  UNL1        0.0427
     35 H          -3.7715    1.4305   -2.4109 H       1  UNL1        0.0427
     36 H          -5.6706    0.3269   -0.4855 H       1  UNL1        0.0426
     37 H          -4.1629    1.3301   -0.0607 H       1  UNL1        0.0426
     38 H          -4.8784   -1.4768    0.8078 H       1  UNL1        0.0278
     39 H          -4.8818    0.0242    1.8349 H       1  UNL1        0.0278
     40 H          -2.6057    0.0569    2.0016 H       1  UNL1        0.0269
     41 H          -2.9512   -1.6648    1.9636 H       1  UNL1        0.0269
     42 H          -1.4289   -1.7295    0.2884 H       1  UNL1        0.0331
     43 H          -3.6068   -2.2930   -0.5698 H       1  UNL1        0.0430
     44 H          -2.4475   -1.6934   -1.8695 H       1  UNL1        0.0430
@<TRIPOS>BOND
     1     1     2    1
     2     2     3    1
     3     3     4   ar
     4     4     5   ar
     5     5     6   ar
     6     6     7   ar
     7     7     8    1
     8     7     9   ar
     9     9    10    1
    10     4    11    1
    11    11    12    2
    12    11    13   am
    13    13    14    1
    14    14    15    1
    15    15    16    1
    16    16    17    1
    17    17    18    1
    18    18    19    1
    19    19    20    1
    20    20    21    1
    21    21    22    1
    22     9     3   ar
    23    21    14    1
    24    22    17    1
    25     1    23    1
    26     1    24    1
    27     1    25    1
    28     5    26    1
    29     6    27    1
    30     8    28    1
    31     8    29    1
    32    13    30    1
    33    14    31    1
    34    15    32    1
    35    15    33    1
    36    16    34    1
    37    16    35    1
    38    18    36    1
    39    18    37    1
    40    19    38    1
    41    19    39    1
    42    20    40    1
    43    20    41    1
    44    21    42    1
    45    22    43    1
    46    22    44    1
