
     RDKit          3D

 44 46  0  0  0  0  0  0  0  0999 V2000
    2.6647   -0.3065   -2.5228 C   0  0  0  0  0  0  0  0  0  0  0  0
    2.6154   -1.0096   -1.2643 O   0  0  0  0  0  0  0  0  0  0  0  0
    3.1584   -0.3115   -0.1957 C   0  0  0  0  0  0  0  0  0  0  0  0
    2.3646    0.4720    0.6009 C   0  0  0  0  0  0  0  0  0  0  0  0
    3.0582    1.1032    1.6098 C   0  0  0  0  0  0  0  0  0  0  0  0
    4.4128    0.9587    1.7984 C   0  0  0  0  0  0  0  0  0  0  0  0
    5.1685    0.1576    0.9712 C   0  0  0  0  0  0  0  0  0  0  0  0
    6.5496    0.0419    1.2057 N   0  0  0  0  0  0  0  0  0  0  0  0
    4.5162   -0.4937   -0.0539 C   0  0  0  0  0  0  0  0  0  0  0  0
    5.4595   -1.5163   -1.1156 Cl  0  0  0  0  0  0  0  0  0  0  0  0
    0.9406    0.6442    0.5094 C   0  0  0  0  0  0  0  0  0  0  0  0
    0.3849    1.4389    1.3258 O   0  0  0  0  0  0  0  0  0  0  0  0
   -0.0072    0.0852   -0.3438 N   0  0  0  0  0  0  0  0  0  0  0  0
   -1.4284    0.3565   -0.3327 C   0  0  0  0  0  0  0  0  0  0  0  0
   -1.8015    0.9090   -1.6611 C   0  0  0  0  0  0  0  0  0  0  0  0
   -3.1248    0.5350   -2.1981 C   0  0  0  0  0  0  0  0  0  0  0  0
   -3.9291   -0.3318   -1.3751 N   0  0  0  0  0  0  0  0  0  0  0  0
   -4.5627    0.3213   -0.2733 C   0  0  0  0  0  0  0  0  0  0  0  0
   -4.4140   -0.4932    0.9943 C   0  0  0  0  0  0  0  0  0  0  0  0
   -2.9588   -0.7333    1.3356 C   0  0  0  0  0  0  0  0  0  0  0  0
   -2.1389   -0.8951    0.0664 C   0  0  0  0  0  0  0  0  0  0  0  0
   -3.0709   -1.4235   -0.9896 C   0  0  0  0  0  0  0  0  0  0  0  0
    3.5903   -0.6175   -3.0489 H   0  0  0  0  0  0  0  0  0  0  0  0
    2.6934    0.7897   -2.3741 H   0  0  0  0  0  0  0  0  0  0  0  0
    1.7594   -0.5247   -3.1186 H   0  0  0  0  0  0  0  0  0  0  0  0
    2.5283    1.7623    2.3157 H   0  0  0  0  0  0  0  0  0  0  0  0
    4.8904    1.4821    2.6081 H   0  0  0  0  0  0  0  0  0  0  0  0
    7.1027   -0.2625    2.0250 H   0  0  0  0  0  0  0  0  0  0  0  0
    7.1123    0.3234    0.3771 H   0  0  0  0  0  0  0  0  0  0  0  0
    0.3307   -0.5922   -1.0392 H   0  0  0  0  0  0  0  0  0  0  0  0
   -1.6141    1.0887    0.4791 H   0  0  0  0  0  0  0  0  0  0  0  0
   -1.7607    2.0265   -1.5712 H   0  0  0  0  0  0  0  0  0  0  0  0
   -1.0314    0.6835   -2.4450 H   0  0  0  0  0  0  0  0  0  0  0  0
   -3.0532    0.0205   -3.1911 H   0  0  0  0  0  0  0  0  0  0  0  0
   -3.7715    1.4305   -2.4109 H   0  0  0  0  0  0  0  0  0  0  0  0
   -5.6706    0.3269   -0.4855 H   0  0  0  0  0  0  0  0  0  0  0  0
   -4.1629    1.3301   -0.0607 H   0  0  0  0  0  0  0  0  0  0  0  0
   -4.8784   -1.4768    0.8078 H   0  0  0  0  0  0  0  0  0  0  0  0
   -4.8818    0.0242    1.8349 H   0  0  0  0  0  0  0  0  0  0  0  0
   -2.6057    0.0569    2.0016 H   0  0  0  0  0  0  0  0  0  0  0  0
   -2.9512   -1.6648    1.9636 H   0  0  0  0  0  0  0  0  0  0  0  0
   -1.4289   -1.7295    0.2884 H   0  0  0  0  0  0  0  0  0  0  0  0
   -3.6068   -2.2930   -0.5698 H   0  0  0  0  0  0  0  0  0  0  0  0
   -2.4475   -1.6934   -1.8695 H   0  0  0  0  0  0  0  0  0  0  0  0
  1  2  1  0
  2  3  1  0
  3  4  2  0
  4  5  1  0
  5  6  2  0
  6  7  1  0
  7  8  1  0
  7  9  2  0
  9 10  1  0
  4 11  1  0
 11 12  2  0
 11 13  1  0
 13 14  1  0
 14 15  1  0
 15 16  1  0
 16 17  1  0
 17 18  1  0
 18 19  1  0
 19 20  1  0
 20 21  1  0
 21 22  1  0
  9  3  1  0
 21 14  1  0
 22 17  1  0
  1 23  1  0
  1 24  1  0
  1 25  1  0
  5 26  1  0
  6 27  1  0
  8 28  1  0
  8 29  1  0
 13 30  1  0
 14 31  1  0
 15 32  1  0
 15 33  1  0
 16 34  1  0
 16 35  1  0
 18 36  1  0
 18 37  1  0
 19 38  1  0
 19 39  1  0
 20 40  1  0
 20 41  1  0
 21 42  1  0
 22 43  1  0
 22 44  1  0
M  END
$$$$
