@<TRIPOS>MOLECULE
*****
 16 17 0 0 0
SMALL
GASTEIGER

@<TRIPOS>ATOM
      1 O           3.3866   -0.8348   -0.3254 O.2     1  UNL1       -0.2435
      2 C           2.6036    0.0854   -0.0090 C.2     1  UNL1        0.3534
      3 OXT         3.1567    1.2900    0.4008 O.3     1  UNL1       -0.4761
      4 CA          1.1536   -0.0720   -0.0587 C.ar    1  UNL1        0.1282
      5 C           0.4533   -1.1910   -0.4389 C.ar    1  UNL1        0.0130
      6 C          -0.9084   -0.9569   -0.3552 C.ar    1  UNL1        0.1530
      7 O          -2.1173   -1.4393   -0.5166 O.2     1  UNL1       -0.4613
      8 C          -3.0273   -0.5467   -0.2092 C.ar    1  UNL1        0.0946
      9 C          -2.3639    0.5929    0.1781 C.ar    1  UNL1        0.0002
     10 C          -1.0140    0.3465    0.0902 C.ar    1  UNL1        0.0856
     11 N           0.2400    0.8596    0.2620 N.ar    1  UNL1       -0.3465
     12 HXT         4.0450    1.3436    0.9114 H       1  UNL1        0.2955
     13 H           0.9151   -2.1095   -0.7538 H       1  UNL1        0.0678
     14 H          -4.1144   -0.7037   -0.2598 H       1  UNL1        0.1030
     15 H          -2.8417    1.5043    0.4907 H       1  UNL1        0.0670
     16 H           0.4332    1.8316    0.5934 H       1  UNL1        0.1662
@<TRIPOS>BOND
     1     1     2    2
     2     2     3    1
     3     2     4    1
     4     4     5   ar
     5     5     6   ar
     6     6     7   ar
     7     7     8   ar
     8     8     9   ar
     9     9    10   ar
    10    10    11   ar
    11    11     4   ar
    12    10     6   ar
    13     3    12    1
    14     5    13    1
    15     8    14    1
    16     9    15    1
    17    11    16    1
