@<TRIPOS>MOLECULE
*****
 58 61 0 0 0
SMALL
GASTEIGER

@<TRIPOS>ATOM
      1 C           6.9009    2.4360    1.3527 C.3     1  UNL1        0.0365
      2 O           6.1140    1.4108    0.8206 O.3     1  UNL1       -0.3814
      3 C           5.7732    0.5658    1.8347 C.3     1  UNL1        0.0645
      4 C           4.9407   -0.6023    1.5308 C.3     1  UNL1        0.0552
      5 C           5.5940   -1.6225    0.6244 C.3     1  UNL1       -0.0323
      6 C           4.3770   -2.4937    0.2971 C.3     1  UNL1       -0.0370
      7 C           3.2058   -1.8431    0.9632 C.3     1  UNL1        0.0209
      8 N           3.6374   -0.4217    1.0031 N.3     1  UNL1       -0.1713
      9 S           3.5281    0.2802   -0.5417 S.O2    1  UNL1        0.0612
     10 O           3.9196    1.7507   -0.4165 O.2     1  UNL1       -0.1528
     11 O           4.3897   -0.3196   -1.5817 O.2     1  UNL1       -0.1528
     12 C           1.8693    0.2501   -1.1233 C.ar    1  UNL1        0.1063
     13 C           1.0237    1.3023   -0.8548 C.ar    1  UNL1       -0.0335
     14 C          -0.2914    1.3256   -1.2910 C.ar    1  UNL1       -0.0377
     15 C          -0.7604    0.2396   -2.0256 C.ar    1  UNL1        0.0481
     16 C           0.0970   -0.8077   -2.2875 C.ar    1  UNL1        0.0502
     17 C           1.4179   -0.8274   -1.8475 C.ar    1  UNL1       -0.0226
     18 C          -0.6354   -1.8197   -3.0739 C.2     1  UNL1        0.2496
     19 O          -0.1663   -2.9019   -3.4870 O.2     1  UNL1       -0.2817
     20 C          -1.9671   -1.2665   -3.2357 C.2     1  UNL1        0.2915
     21 O          -2.9059   -1.8261   -3.8529 O.2     1  UNL1       -0.2661
     22 N          -2.0466    0.0016   -2.5909 N.am    1  UNL1       -0.2598
     23 C          -3.2311    0.8482   -2.5486 C.3     1  UNL1        0.0452
     24 C          -4.0723    0.5267   -1.3738 C.ar    1  UNL1       -0.0297
     25 C          -5.0649   -0.4267   -1.4426 C.ar    1  UNL1       -0.0567
     26 C          -5.8561   -0.7394   -0.3679 C.ar    1  UNL1       -0.0555
     27 C          -5.6768   -0.0881    0.8550 C.ar    1  UNL1       -0.0117
     28 C          -6.5324   -0.4315    2.0158 C.3     1  UNL1        0.1488
     29 F          -5.7363   -0.7272    3.0832 F       1  UNL1       -0.2380
     30 C          -7.4543    0.7425    2.3695 C.3     1  UNL1        0.0794
     31 O          -6.6372    1.8239    2.6804 O.3     1  UNL1       -0.3918
     32 C          -4.6849    0.8602    0.9128 C.ar    1  UNL1       -0.0555
     33 C          -3.8834    1.1748   -0.1819 C.ar    1  UNL1       -0.0567
     34 H           7.8184    2.0266    1.8156 H       1  UNL1        0.0523
     35 H           6.3281    2.9131    2.1884 H       1  UNL1        0.0523
     36 H           7.1088    3.2336    0.6194 H       1  UNL1        0.0523
     37 H           6.7482    0.1761    2.2613 H       1  UNL1        0.0576
     38 H           5.3131    1.1021    2.6999 H       1  UNL1        0.0576
     39 H           4.8005   -1.1670    2.5099 H       1  UNL1        0.0502
     40 H           6.0840   -1.2106   -0.2512 H       1  UNL1        0.0282
     41 H           6.2991   -2.2504    1.1846 H       1  UNL1        0.0282
     42 H           4.2702   -2.5059   -0.7931 H       1  UNL1        0.0279
     43 H           4.5393   -3.5386    0.6354 H       1  UNL1        0.0279
     44 H           3.1459   -2.1384    2.0400 H       1  UNL1        0.0444
     45 H           2.2607   -1.9611    0.4423 H       1  UNL1        0.0444
     46 H           1.3383    2.1789   -0.2836 H       1  UNL1        0.0638
     47 H          -0.9558    2.1514   -1.0817 H       1  UNL1        0.0637
     48 H           2.0478   -1.6831   -2.0856 H       1  UNL1        0.0645
     49 H          -2.8726    1.8973   -2.5486 H       1  UNL1        0.0518
     50 H          -3.8509    0.7361   -3.4647 H       1  UNL1        0.0518
     51 H          -5.1804   -0.9183   -2.4122 H       1  UNL1        0.0621
     52 H          -6.6281   -1.4984   -0.4652 H       1  UNL1        0.0621
     53 H          -7.1973   -1.2912    1.7110 H       1  UNL1        0.0725
     54 H          -8.0946    0.4628    3.2134 H       1  UNL1        0.0589
     55 H          -8.0502    0.9705    1.4617 H       1  UNL1        0.0589
     56 H          -6.8242    2.6293    2.1640 H       1  UNL1        0.2095
     57 H          -4.5121    1.3896    1.8502 H       1  UNL1        0.0621
     58 H          -3.1218    1.9217   -0.0927 H       1  UNL1        0.0621
@<TRIPOS>BOND
     1     1     2    1
     2     2     3    1
     3     3     4    1
     4     4     5    1
     5     5     6    1
     6     6     7    1
     7     7     8    1
     8     8     9    1
     9     9    10    2
    10     9    11    2
    11     9    12    1
    12    12    13   ar
    13    13    14   ar
    14    14    15   ar
    15    15    16   ar
    16    16    17   ar
    17    16    18    1
    18    18    19    2
    19    18    20    1
    20    20    21    2
    21    20    22   am
    22    22    23    1
    23    23    24    1
    24    24    25   ar
    25    25    26   ar
    26    26    27   ar
    27    27    28    1
    28    28    29    1
    29    28    30    1
    30    30    31    1
    31    27    32   ar
    32    32    33   ar
    33     8     4    1
    34    17    12   ar
    35    33    24   ar
    36    22    15    1
    37     1    34    1
    38     1    35    1
    39     1    36    1
    40     3    37    1
    41     3    38    1
    42     4    39    1
    43     5    40    1
    44     5    41    1
    45     6    42    1
    46     6    43    1
    47     7    44    1
    48     7    45    1
    49    13    46    1
    50    14    47    1
    51    17    48    1
    52    23    49    1
    53    23    50    1
    54    25    51    1
    55    26    52    1
    56    28    53    1
    57    30    54    1
    58    30    55    1
    59    31    56    1
    60    32    57    1
    61    33    58    1
