@<TRIPOS>MOLECULE
*****
 43 45 0 0 0
SMALL
GASTEIGER

@<TRIPOS>ATOM
      1 C          -0.1734    1.4615    0.3309 C.3     1  UNL1       -0.0351
      2 C          -0.3668    0.0034    0.1125 C.3     1  UNL1        0.1077
      3 N           0.5958   -0.7479    0.8537 N.pl3   1  UNL1       -0.3306
      4 C           1.9815   -0.5958    0.6727 C.ar    1  UNL1        0.0279
      5 C           2.8972   -1.3555    1.4143 C.ar    1  UNL1       -0.0401
      6 C           4.2481   -1.2566    1.2901 C.ar    1  UNL1       -0.0478
      7 C           4.7859   -0.3545    0.3788 C.ar    1  UNL1        0.0388
      8 C           6.2314   -0.2591    0.2563 C.2     1  UNL1        0.2665
      9 O           6.9731   -1.0014    0.9836 O.2     1  UNL1       -0.2681
     10 N           6.8570    0.6271   -0.6405 N.am    1  UNL1       -0.1935
     11 O           8.2254    0.6982   -0.7373 O.3     1  UNL1       -0.2949
     12 C           3.9324    0.4124   -0.3711 C.ar    1  UNL1       -0.0478
     13 C           2.5468    0.2831   -0.2159 C.ar    1  UNL1       -0.0401
     14 C          -0.5309   -0.3960   -1.3214 C.3     1  UNL1       -0.0071
     15 C          -1.8985    0.1722   -1.6543 C.3     1  UNL1        0.0222
     16 N          -2.6634   -0.0861   -0.4512 N.am    1  UNL1       -0.2696
     17 C          -4.0849   -0.0607   -0.4108 C.ar    1  UNL1        0.0364
     18 C          -4.7821    1.1109   -0.1235 C.ar    1  UNL1       -0.0389
     19 C          -6.1596    1.1492   -0.0813 C.ar    1  UNL1       -0.0416
     20 C          -6.8550   -0.0076   -0.3314 C.ar    1  UNL1        0.0411
     21 CL         -8.6015    0.0378   -0.2786 Cl      1  UNL1       -0.0835
     22 C          -6.1966   -1.1943   -0.6212 C.ar    1  UNL1       -0.0416
     23 C          -4.8176   -1.2089   -0.6581 C.ar    1  UNL1       -0.0389
     24 C          -1.7695   -0.3537    0.6167 C.2     1  UNL1        0.2430
     25 O          -2.0895   -0.7919    1.7319 O.2     1  UNL1       -0.2729
     26 H          -0.1029    2.0577   -0.6053 H       1  UNL1        0.0255
     27 H          -1.0974    1.8755    0.8389 H       1  UNL1        0.0255
     28 H           0.6794    1.6204    1.0220 H       1  UNL1        0.0255
     29 H           0.2921   -1.4588    1.5788 H       1  UNL1        0.1471
     30 H           2.4672   -2.0551    2.1211 H       1  UNL1        0.0636
     31 H           4.9212   -1.8656    1.8857 H       1  UNL1        0.0626
     32 H           6.3147    1.2500   -1.2524 H       1  UNL1        0.1825
     33 H           8.5716    0.9689    0.1489 H       1  UNL1        0.2414
     34 H           4.3042    1.1269   -1.0919 H       1  UNL1        0.0626
     35 H           1.9453    0.9175   -0.8363 H       1  UNL1        0.0636
     36 H          -0.6401   -1.5098   -1.3551 H       1  UNL1        0.0306
     37 H           0.2131   -0.0524   -2.0243 H       1  UNL1        0.0306
     38 H          -2.3437   -0.2621   -2.5517 H       1  UNL1        0.0469
     39 H          -1.7833    1.2843   -1.7942 H       1  UNL1        0.0469
     40 H          -4.2103    2.0053    0.0691 H       1  UNL1        0.0637
     41 H          -6.7213    2.0435    0.1388 H       1  UNL1        0.0633
     42 H          -6.7892   -2.0785   -0.8110 H       1  UNL1        0.0633
     43 H          -4.3064   -2.1536   -0.8885 H       1  UNL1        0.0637
@<TRIPOS>BOND
     1     1     2    1
     2     2     3    1
     3     3     4    1
     4     4     5   ar
     5     5     6   ar
     6     6     7   ar
     7     7     8    1
     8     8     9    2
     9     8    10   am
    10    10    11    1
    11     7    12   ar
    12    12    13   ar
    13     2    14    1
    14    14    15    1
    15    15    16    1
    16    16    17    1
    17    17    18   ar
    18    18    19   ar
    19    19    20   ar
    20    20    21    1
    21    20    22   ar
    22    22    23   ar
    23    16    24   am
    24    24    25    2
    25    24     2    1
    26    13     4   ar
    27    23    17   ar
    28     1    26    1
    29     1    27    1
    30     1    28    1
    31     3    29    1
    32     5    30    1
    33     6    31    1
    34    10    32    1
    35    11    33    1
    36    12    34    1
    37    13    35    1
    38    14    36    1
    39    14    37    1
    40    15    38    1
    41    15    39    1
    42    18    40    1
    43    19    41    1
    44    22    42    1
    45    23    43    1
