
     RDKit          3D

 43 45  0  0  0  0  0  0  0  0999 V2000
   -0.1734    1.4615    0.3309 C   0  0  0  0  0  0  0  0  0  0  0  0
   -0.3668    0.0034    0.1125 C   0  0  2  0  0  0  0  0  0  0  0  0
    0.5958   -0.7479    0.8537 N   0  0  0  0  0  0  0  0  0  0  0  0
    1.9815   -0.5958    0.6727 C   0  0  0  0  0  0  0  0  0  0  0  0
    2.8972   -1.3555    1.4143 C   0  0  0  0  0  0  0  0  0  0  0  0
    4.2481   -1.2566    1.2901 C   0  0  0  0  0  0  0  0  0  0  0  0
    4.7859   -0.3545    0.3788 C   0  0  0  0  0  0  0  0  0  0  0  0
    6.2314   -0.2591    0.2563 C   0  0  0  0  0  0  0  0  0  0  0  0
    6.9731   -1.0014    0.9836 O   0  0  0  0  0  0  0  0  0  0  0  0
    6.8570    0.6271   -0.6405 N   0  0  0  0  0  0  0  0  0  0  0  0
    8.2254    0.6982   -0.7373 O   0  0  0  0  0  0  0  0  0  0  0  0
    3.9324    0.4124   -0.3711 C   0  0  0  0  0  0  0  0  0  0  0  0
    2.5468    0.2831   -0.2159 C   0  0  0  0  0  0  0  0  0  0  0  0
   -0.5309   -0.3960   -1.3214 C   0  0  0  0  0  0  0  0  0  0  0  0
   -1.8985    0.1722   -1.6543 C   0  0  0  0  0  0  0  0  0  0  0  0
   -2.6634   -0.0861   -0.4512 N   0  0  0  0  0  0  0  0  0  0  0  0
   -4.0849   -0.0607   -0.4108 C   0  0  0  0  0  0  0  0  0  0  0  0
   -4.7821    1.1109   -0.1235 C   0  0  0  0  0  0  0  0  0  0  0  0
   -6.1596    1.1492   -0.0813 C   0  0  0  0  0  0  0  0  0  0  0  0
   -6.8550   -0.0076   -0.3314 C   0  0  0  0  0  0  0  0  0  0  0  0
   -8.6015    0.0378   -0.2786 Cl  0  0  0  0  0  0  0  0  0  0  0  0
   -6.1966   -1.1943   -0.6212 C   0  0  0  0  0  0  0  0  0  0  0  0
   -4.8176   -1.2089   -0.6581 C   0  0  0  0  0  0  0  0  0  0  0  0
   -1.7695   -0.3537    0.6167 C   0  0  0  0  0  0  0  0  0  0  0  0
   -2.0895   -0.7919    1.7319 O   0  0  0  0  0  0  0  0  0  0  0  0
   -0.1029    2.0577   -0.6053 H   0  0  0  0  0  0  0  0  0  0  0  0
   -1.0974    1.8755    0.8389 H   0  0  0  0  0  0  0  0  0  0  0  0
    0.6794    1.6204    1.0220 H   0  0  0  0  0  0  0  0  0  0  0  0
    0.2921   -1.4588    1.5788 H   0  0  0  0  0  0  0  0  0  0  0  0
    2.4672   -2.0551    2.1211 H   0  0  0  0  0  0  0  0  0  0  0  0
    4.9212   -1.8656    1.8857 H   0  0  0  0  0  0  0  0  0  0  0  0
    6.3147    1.2500   -1.2524 H   0  0  0  0  0  0  0  0  0  0  0  0
    8.5716    0.9689    0.1489 H   0  0  0  0  0  0  0  0  0  0  0  0
    4.3042    1.1269   -1.0919 H   0  0  0  0  0  0  0  0  0  0  0  0
    1.9453    0.9175   -0.8363 H   0  0  0  0  0  0  0  0  0  0  0  0
   -0.6401   -1.5098   -1.3551 H   0  0  0  0  0  0  0  0  0  0  0  0
    0.2131   -0.0524   -2.0243 H   0  0  0  0  0  0  0  0  0  0  0  0
   -2.3437   -0.2621   -2.5517 H   0  0  0  0  0  0  0  0  0  0  0  0
   -1.7833    1.2843   -1.7942 H   0  0  0  0  0  0  0  0  0  0  0  0
   -4.2103    2.0053    0.0691 H   0  0  0  0  0  0  0  0  0  0  0  0
   -6.7213    2.0435    0.1388 H   0  0  0  0  0  0  0  0  0  0  0  0
   -6.7892   -2.0785   -0.8110 H   0  0  0  0  0  0  0  0  0  0  0  0
   -4.3064   -2.1536   -0.8885 H   0  0  0  0  0  0  0  0  0  0  0  0
  1  2  1  0
  2  3  1  1
  3  4  1  0
  4  5  2  0
  5  6  1  0
  6  7  2  0
  7  8  1  0
  8  9  2  0
  8 10  1  0
 10 11  1  0
  7 12  1  0
 12 13  2  0
  2 14  1  0
 14 15  1  0
 15 16  1  0
 16 17  1  0
 17 18  2  0
 18 19  1  0
 19 20  2  0
 20 21  1  0
 20 22  1  0
 22 23  2  0
 16 24  1  0
 24 25  2  0
 24  2  1  0
 13  4  1  0
 23 17  1  0
  1 26  1  0
  1 27  1  0
  1 28  1  0
  3 29  1  0
  5 30  1  0
  6 31  1  0
 10 32  1  0
 11 33  1  0
 12 34  1  0
 13 35  1  0
 14 36  1  0
 14 37  1  0
 15 38  1  0
 15 39  1  0
 18 40  1  0
 19 41  1  0
 22 42  1  0
 23 43  1  0
M  END
$$$$
