@<TRIPOS>MOLECULE
*****
 63 66 0 0 0
SMALL
GASTEIGER

@<TRIPOS>ATOM
      1 C           9.6097   -1.0161    0.7932 C.3     1  UNL1       -0.0014
      2 C           8.4191   -1.0499    1.6859 C.2     1  UNL1        0.1601
      3 O           8.4613   -1.5309    2.8449 O.2     1  UNL1       -0.2924
      4 C           7.1649   -0.4990    1.1782 C.ar    1  UNL1        0.0172
      5 C           7.0612    0.0391   -0.0802 C.ar    1  UNL1       -0.0495
      6 C           5.8656    0.5651   -0.5672 C.ar    1  UNL1       -0.0400
      7 C           4.7221    0.5722    0.1919 C.ar    1  UNL1        0.0298
      8 N           3.4759    1.0974   -0.2308 N.pl3   1  UNL1       -0.3269
      9 C           2.3096    0.7775    0.6154 C.3     1  UNL1        0.0280
     10 C           1.0350    1.1661   -0.1806 C.3     1  UNL1        0.0305
     11 N           1.2497    0.7005   -1.4997 N.am    1  UNL1       -0.2974
     12 C           0.6056   -0.3739   -2.1048 C.2     1  UNL1        0.2297
     13 O           1.0396   -0.6912   -3.3184 O.2     1  UNL1       -0.2742
     14 C          -0.4694   -1.2449   -1.6724 C.3     1  UNL1        0.0759
     15 N          -1.1224   -0.9610   -0.4216 N.3     1  UNL1       -0.2933
     16 C          -1.9386   -2.1585   -0.1401 C.3     1  UNL1        0.0001
     17 C          -3.0612   -2.0894   -1.1201 C.3     1  UNL1       -0.0279
     18 C          -3.2368   -0.6373   -1.4525 C.3     1  UNL1        0.0497
     19 C          -4.6121   -0.1415   -1.1486 C.2     1  UNL1        0.2216
     20 O          -5.2906    0.3290   -2.0840 O.2     1  UNL1       -0.2751
     21 N          -5.1634   -0.1865    0.1431 N.am    1  UNL1       -0.2852
     22 C          -6.4426    0.2543    0.5337 C.ar    1  UNL1        0.0350
     23 C          -6.7868    0.0868    1.8806 C.ar    1  UNL1       -0.0369
     24 C          -7.9811    0.4588    2.4294 C.ar    1  UNL1       -0.0170
     25 C          -8.9259    1.0466    1.5936 C.ar    1  UNL1        0.1352
     26 O         -10.1492    1.4323    2.1360 O.3     1  UNL1       -0.5053
     27 C          -8.6201    1.2241    0.2726 C.ar    1  UNL1        0.0840
     28 CL         -9.7830    1.9630   -0.8210 Cl      1  UNL1       -0.0797
     29 C          -7.3877    0.8353   -0.2725 C.ar    1  UNL1       -0.0186
     30 C          -2.1877    0.0596   -0.6586 C.3     1  UNL1        0.0105
     31 C           2.2335    1.4423   -2.3105 C.3     1  UNL1        0.0305
     32 C           3.3341    1.8990   -1.3916 C.3     1  UNL1        0.0280
     33 C           4.8351    0.0199    1.4789 C.ar    1  UNL1       -0.0400
     34 C           6.0150   -0.4907    1.9382 C.ar    1  UNL1       -0.0495
     35 H           9.4694   -1.6782   -0.0811 H       1  UNL1        0.0309
     36 H           9.8148    0.0332    0.4336 H       1  UNL1        0.0309
     37 H          10.5087   -1.2962    1.3897 H       1  UNL1        0.0309
     38 H           7.9306    0.0559   -0.7117 H       1  UNL1        0.0625
     39 H           5.8404    0.9758   -1.5795 H       1  UNL1        0.0636
     40 H           2.3580    1.3035    1.5686 H       1  UNL1        0.0479
     41 H           2.2979   -0.3236    0.6994 H       1  UNL1        0.0479
     42 H           0.1600    0.8432    0.3635 H       1  UNL1        0.0480
     43 H           1.0811    2.3006   -0.2149 H       1  UNL1        0.0480
     44 H          -1.2273   -1.4337   -2.4797 H       1  UNL1        0.0522
     45 H          -0.0135   -2.2794   -1.5244 H       1  UNL1        0.0522
     46 H          -2.2482   -2.1755    0.9113 H       1  UNL1        0.0427
     47 H          -1.3342   -3.0712   -0.3217 H       1  UNL1        0.0427
     48 H          -2.7677   -2.6713   -2.0261 H       1  UNL1        0.0285
     49 H          -3.9994   -2.5436   -0.7226 H       1  UNL1        0.0285
     50 H          -3.0380   -0.4895   -2.5302 H       1  UNL1        0.0407
     51 H          -4.5309   -0.5982    0.8792 H       1  UNL1        0.1548
     52 H          -6.0538   -0.3717    2.5409 H       1  UNL1        0.0637
     53 H          -8.2251    0.3190    3.4751 H       1  UNL1        0.0655
     54 H         -10.7769    0.7300    2.5041 H       1  UNL1        0.2922
     55 H          -7.1807    0.9878   -1.3045 H       1  UNL1        0.0652
     56 H          -2.5270    0.4633    0.2931 H       1  UNL1        0.0434
     57 H          -1.6826    0.8712   -1.2199 H       1  UNL1        0.0434
     58 H           1.7726    2.3464   -2.7584 H       1  UNL1        0.0480
     59 H           2.6056    0.8216   -3.1480 H       1  UNL1        0.0480
     60 H           3.1499    2.9800   -1.0899 H       1  UNL1        0.0479
     61 H           4.2582    1.9183   -1.9776 H       1  UNL1        0.0479
     62 H           3.9780    0.0040    2.1015 H       1  UNL1        0.0636
     63 H           6.1014   -0.9201    2.9398 H       1  UNL1        0.0625
@<TRIPOS>BOND
     1     1     2    1
     2     2     3    2
     3     2     4    1
     4     4     5   ar
     5     5     6   ar
     6     6     7   ar
     7     7     8    1
     8     8     9    1
     9     9    10    1
    10    10    11    1
    11    11    12   am
    12    12    13    2
    13    12    14    1
    14    14    15    1
    15    15    16    1
    16    16    17    1
    17    17    18    1
    18    18    19    1
    19    19    20    2
    20    19    21   am
    21    21    22    1
    22    22    23   ar
    23    23    24   ar
    24    24    25   ar
    25    25    26    1
    26    25    27   ar
    27    27    28    1
    28    27    29   ar
    29    18    30    1
    30    11    31    1
    31    31    32    1
    32     7    33   ar
    33    33    34   ar
    34    34     4   ar
    35    32     8    1
    36    30    15    1
    37    29    22   ar
    38     1    35    1
    39     1    36    1
    40     1    37    1
    41     5    38    1
    42     6    39    1
    43     9    40    1
    44     9    41    1
    45    10    42    1
    46    10    43    1
    47    14    44    1
    48    14    45    1
    49    16    46    1
    50    16    47    1
    51    17    48    1
    52    17    49    1
    53    18    50    1
    54    21    51    1
    55    23    52    1
    56    24    53    1
    57    26    54    1
    58    29    55    1
    59    30    56    1
    60    30    57    1
    61    31    58    1
    62    31    59    1
    63    32    60    1
    64    32    61    1
    65    33    62    1
    66    34    63    1
