@<TRIPOS>MOLECULE
*****
 52 55 0 0 0
SMALL
GASTEIGER

@<TRIPOS>ATOM
      1 C          -3.9960    0.6035   -2.0399 C.3     1  UNL1        0.0788
      2 O          -3.1168    0.0518   -1.1115 O.3     1  UNL1       -0.4947
      3 C          -2.1446    0.8014   -0.4159 C.ar    1  UNL1        0.1285
      4 C          -2.0091    2.1528   -0.6178 C.ar    1  UNL1       -0.0194
      5 C          -1.0490    2.8515    0.0807 C.ar    1  UNL1       -0.0548
      6 C          -0.2418    2.1772    0.9702 C.ar    1  UNL1       -0.0194
      7 C          -0.3905    0.8112    1.1636 C.ar    1  UNL1        0.1285
      8 O           0.4182    0.1267    2.0577 O.3     1  UNL1       -0.4947
      9 C           1.4154    0.8044    2.7941 C.3     1  UNL1        0.0788
     10 C          -1.3462    0.1059    0.4704 C.ar    1  UNL1        0.0561
     11 C          -1.5365   -1.3581    0.6676 C.3     1  UNL1        0.0585
     12 C          -2.3919   -1.6401    1.8785 C.3     1  UNL1       -0.0294
     13 C          -2.1470   -3.0567    2.3281 C.3     1  UNL1       -0.0428
     14 C          -0.7304   -3.0772    2.9214 C.3     1  UNL1        0.0243
     15 C           0.1960   -2.6452    1.8175 C.2     1  UNL1        0.2164
     16 O           1.4251   -2.7890    2.0197 O.2     1  UNL1       -0.2756
     17 N          -0.3130   -2.1062    0.6161 N.am    1  UNL1       -0.2884
     18 C           0.3574   -2.3012   -0.6255 C.3     1  UNL1        0.0574
     19 C           1.3185   -1.2433   -0.9558 C.ar    1  UNL1        0.0593
     20 C           2.6430   -1.2698   -0.5972 C.ar    1  UNL1       -0.0382
     21 C           3.5050   -0.2484   -0.9398 C.ar    1  UNL1       -0.0508
     22 C           3.0315    0.8245   -1.6579 C.ar    1  UNL1        0.0004
     23 C           3.8208    1.8840   -2.0384 C.ar    1  UNL1       -0.0526
     24 C           3.3141    2.9518   -2.7598 C.ar    1  UNL1       -0.0611
     25 C           1.9777    2.9763   -3.1207 C.ar    1  UNL1       -0.0597
     26 C           1.2054    1.9194   -2.7378 C.ar    1  UNL1       -0.0357
     27 C           1.6939    0.8368   -2.0127 C.ar    1  UNL1        0.0713
     28 N           0.9072   -0.1710   -1.6578 N.ar    1  UNL1       -0.2500
     29 H          -4.8851    1.0451   -1.5304 H       1  UNL1        0.0660
     30 H          -3.4527    1.3438   -2.6593 H       1  UNL1        0.0660
     31 H          -4.3486   -0.1895   -2.7422 H       1  UNL1        0.0660
     32 H          -2.6631    2.6648   -1.3292 H       1  UNL1        0.0654
     33 H          -0.9583    3.9128   -0.0921 H       1  UNL1        0.0620
     34 H           0.5139    2.7358    1.5178 H       1  UNL1        0.0654
     35 H           2.1677    0.0981    3.2119 H       1  UNL1        0.0660
     36 H           0.9637    1.4249    3.5761 H       1  UNL1        0.0660
     37 H           1.9847    1.4785    2.1274 H       1  UNL1        0.0660
     38 H          -2.1426   -1.7223   -0.2162 H       1  UNL1        0.0553
     39 H          -3.4490   -1.4780    1.5744 H       1  UNL1        0.0287
     40 H          -2.1024   -0.9651    2.7206 H       1  UNL1        0.0287
     41 H          -2.1303   -3.7507    1.4625 H       1  UNL1        0.0270
     42 H          -2.8712   -3.3658    3.1064 H       1  UNL1        0.0270
     43 H          -0.4615   -4.1194    3.1779 H       1  UNL1        0.0358
     44 H          -0.6071   -2.3787    3.7533 H       1  UNL1        0.0358
     45 H           0.9535   -3.2546   -0.5552 H       1  UNL1        0.0529
     46 H          -0.4233   -2.4018   -1.4216 H       1  UNL1        0.0529
     47 H           3.0434   -2.0864   -0.0471 H       1  UNL1        0.0636
     48 H           4.5417   -0.2628   -0.6619 H       1  UNL1        0.0625
     49 H           4.8663    1.8612   -1.7535 H       1  UNL1        0.0624
     50 H           3.9580    3.7542   -3.0342 H       1  UNL1        0.0618
     51 H           1.5372    3.7758   -3.6769 H       1  UNL1        0.0618
     52 H           0.1486    1.9071   -3.0058 H       1  UNL1        0.0639
@<TRIPOS>BOND
     1     1     2    1
     2     2     3    1
     3     3     4   ar
     4     4     5   ar
     5     5     6   ar
     6     6     7   ar
     7     7     8    1
     8     8     9    1
     9     7    10   ar
    10    10    11    1
    11    11    12    1
    12    12    13    1
    13    13    14    1
    14    14    15    1
    15    15    16    2
    16    15    17   am
    17    17    18    1
    18    18    19    1
    19    19    20   ar
    20    20    21   ar
    21    21    22   ar
    22    22    23   ar
    23    23    24   ar
    24    24    25   ar
    25    25    26   ar
    26    26    27   ar
    27    27    28   ar
    28    10     3   ar
    29    17    11    1
    30    28    19   ar
    31    27    22   ar
    32     1    29    1
    33     1    30    1
    34     1    31    1
    35     4    32    1
    36     5    33    1
    37     6    34    1
    38     9    35    1
    39     9    36    1
    40     9    37    1
    41    11    38    1
    42    12    39    1
    43    12    40    1
    44    13    41    1
    45    13    42    1
    46    14    43    1
    47    14    44    1
    48    18    45    1
    49    18    46    1
    50    20    47    1
    51    21    48    1
    52    23    49    1
    53    24    50    1
    54    25    51    1
    55    26    52    1
