@<TRIPOS>MOLECULE
*****
 61 60 0 0 0
SMALL
GASTEIGER

@<TRIPOS>ATOM
      1 C          -5.6220    2.3799   -0.7679 C.3     1  UNK1        0.1037
      2 N          -6.6431    2.5403   -1.8144 N.3     1  UNK1       -0.3184
      3 C          -4.3760    1.8004   -1.4149 C.3     1  UNK1       -0.0190
      4 C          -3.2516    1.5879   -0.4105 C.3     1  UNK1        0.0249
      5 C          -3.6993    0.6349    0.6490 C.2     1  UNK1        0.1832
      6 O          -4.1487   -0.2259    1.6451 O.2     1  UNK1       -0.4956
      7 N          -3.0736   -0.3952    0.8470 N.2     1  UNK1       -0.2411
      8 C          -1.9742   -1.1222    0.4236 C.3     1  UNK1        0.1378
      9 C          -0.7654   -0.9714    1.3914 C.3     1  UNK1        0.0248
     10 S           0.5695   -1.9744    0.8120 S.3     1  UNK1       -0.1581
     11 C           2.1434   -1.2720    0.5531 C.3     1  UNK1       -0.0062
     12 C           2.3748   -0.2557   -0.5277 C.3     1  UNK1       -0.0440
     13 C           3.8859    0.0193   -0.4236 C.3     1  UNK1       -0.0523
     14 C           4.4019    0.9832   -1.4206 C.3     1  UNK1       -0.0530
     15 C           5.8920    1.1440   -1.2643 C.3     1  UNK1       -0.0531
     16 C           6.2256    1.6733    0.0890 C.3     1  UNK1       -0.0533
     17 C           7.7293    1.8683    0.2591 C.3     1  UNK1       -0.0559
     18 C           8.5231    0.6217    0.0960 C.3     1  UNK1       -0.0653
     19 C          -2.2583   -2.6187    0.4511 C.2     1  UNK1        0.2092
     20 O          -1.1399   -3.4160    0.3165 O.2     1  UNK1       -0.4942
     21 N          -3.3656   -3.2770    0.5718 N.2     2  GLY2       -0.2416
     22 CA         -3.3989   -4.7344    0.5749 C.3     2  GLY2        0.1398
     23 C          -4.5347   -5.2388    1.3904 C.2     2  GLY2        0.3264
     24 O          -5.6177   -4.5967    1.9391 O.3     2  GLY2       -0.4793
     25 OXT        -4.4966   -6.4766    1.6240 O.2     2  GLY2       -0.2489
     26 C          -5.3899    3.6348   -0.0392 C.2     1  UNK1        0.3217
     27 O          -6.0716    4.7453   -0.5229 O.3     1  UNK1       -0.4795
     28 O          -4.6652    3.8938    0.9779 O.2     1  UNK1       -0.2493
     29 H          -6.0391    1.6373   -0.0511 H       1  UNK1        0.0574
     30 H          -6.5587    1.7424   -2.4491 H       1  UNK1        0.1190
     31 H          -6.5448    3.4467   -2.2710 H       1  UNK1        0.1190
     32 H          -4.0243    2.4464   -2.2314 H       1  UNK1        0.0290
     33 H          -4.6837    0.8019   -1.7868 H       1  UNK1        0.0290
     34 H          -2.3542    1.2168   -0.9223 H       1  UNK1        0.0360
     35 H          -3.0090    2.5760    0.0313 H       1  UNK1        0.0360
     36 H          -4.8904    0.0697    2.2900 H       1  UNK1        0.2934
     37 H          -1.5515   -0.8899   -0.5884 H       1  UNK1        0.0651
     38 H          -1.1336   -1.2076    2.4217 H       1  UNK1        0.0402
     39 H          -0.4604    0.1274    1.3779 H       1  UNK1        0.0402
     40 H           2.4952   -0.7080    1.5030 H       1  UNK1        0.0376
     41 H           2.9419   -2.0622    0.3956 H       1  UNK1        0.0376
     42 H           2.0888   -0.5383   -1.5319 H       1  UNK1        0.0273
     43 H           1.8873    0.6905   -0.1868 H       1  UNK1        0.0273
     44 H           4.0098    0.3381    0.6349 H       1  UNK1        0.0266
     45 H           4.3688   -0.9657   -0.5663 H       1  UNK1        0.0266
     46 H           3.9595    2.0141   -1.3003 H       1  UNK1        0.0265
     47 H           4.1315    0.6454   -2.4502 H       1  UNK1        0.0265
     48 H           6.3708    1.7172   -2.0895 H       1  UNK1        0.0265
     49 H           6.3005    0.0829   -1.3727 H       1  UNK1        0.0265
     50 H           5.7834    2.7088    0.1629 H       1  UNK1        0.0265
     51 H           5.8470    0.9948    0.8582 H       1  UNK1        0.0265
     52 H           7.8662    2.2671    1.3011 H       1  UNK1        0.0263
     53 H           8.0766    2.6542   -0.4314 H       1  UNK1        0.0263
     54 H           7.9725   -0.3231    0.2865 H       1  UNK1        0.0230
     55 H           9.0542    0.6336   -0.8878 H       1  UNK1        0.0230
     56 H           9.3450    0.6252    0.8701 H       1  UNK1        0.0230
     57 H          -1.0714   -4.2813   -0.1781 H       1  UNK1        0.2935
     58 HA1        -3.4546   -5.1676   -0.4422 H       2  GLY2        0.0625
     59 HA2        -2.4560   -5.1479    1.0382 H       2  GLY2        0.0625
     60 H          -5.8420   -4.7801    2.9057 H       2  GLY2        0.2951
     61 H          -5.6780    5.6830   -0.3449 H       1  UNK1        0.2951
@<TRIPOS>BOND
     1     1     2    1
     2     1     3    1
     3     3     4    1
     4     4     5    1
     5     5     6    1
     6     5     7    2
     7     7     8    1
     8     8     9    1
     9     9    10    1
    10    10    11    1
    11    11    12    1
    12    12    13    1
    13    13    14    1
    14    14    15    1
    15    15    16    1
    16    16    17    1
    17    17    18    1
    18     8    19    1
    19    19    20    1
    20    19    21    2
    21    21    22    1
    22    22    23    1
    23    23    24    1
    24    23    25    2
    25     1    26    1
    26    26    27    1
    27    26    28    2
    28     1    29    1
    29     2    30    1
    30     2    31    1
    31     3    32    1
    32     3    33    1
    33     4    34    1
    34     4    35    1
    35     6    36    1
    36     8    37    1
    37     9    38    1
    38     9    39    1
    39    11    40    1
    40    11    41    1
    41    12    42    1
    42    12    43    1
    43    13    44    1
    44    13    45    1
    45    14    46    1
    46    14    47    1
    47    15    48    1
    48    15    49    1
    49    16    50    1
    50    16    51    1
    51    17    52    1
    52    17    53    1
    53    18    54    1
    54    18    55    1
    55    18    56    1
    56    20    57    1
    57    22    58    1
    58    22    59    1
    59    24    60    1
    60    27    61    1
