@<TRIPOS>MOLECULE
*****
 61 64 0 0 0
SMALL
GASTEIGER

@<TRIPOS>ATOM
      1 O          -3.7510   -1.1009   -1.5348 O.2     1  UNL1       -0.2702
      2 C          -4.5538   -0.4437   -0.7935 C.2     1  UNL1        0.2444
      3 N          -4.3683   -0.4950    0.6042 N.am    1  UNL1       -0.3050
      4 C          -3.2694   -1.2938    1.1782 C.3     1  UNL1        0.0604
      5 C          -3.9298   -2.2694    2.1296 C.3     1  UNL1       -0.0309
      6 C          -4.0745   -1.4030    3.3678 C.3     1  UNL1       -0.0479
      7 C          -2.6960   -0.7866    3.4718 C.3     1  UNL1       -0.0138
      8 C          -2.3903   -0.4290    2.0474 C.3     1  UNL1        0.1216
      9 O          -1.0228   -0.5584    1.7326 O.3     1  UNL1       -0.4560
     10 C          -0.1980    0.4417    1.2817 C.2     1  UNL1        0.3397
     11 O          -0.6970    1.5868    1.1314 O.2     1  UNL1       -0.2449
     12 C           1.2143    0.2413    0.9720 C.ar    1  UNL1        0.0659
     13 C           1.7762   -1.0175    1.1352 C.ar    1  UNL1       -0.0053
     14 C           3.0746   -1.2900    0.8690 C.ar    1  UNL1        0.1320
     15 O           3.5419   -2.5877    1.0660 O.3     1  UNL1       -0.5059
     16 C           3.9356   -0.3042    0.4079 C.ar    1  UNL1        0.1050
     17 C           5.3215   -0.6563    0.2472 C.2     1  UNL1        0.2044
     18 O           5.7784   -1.6689    0.9128 O.2     1  UNL1       -0.2863
     19 C           6.3236   -0.0078   -0.5764 C.ar    1  UNL1        0.0778
     20 C           7.6247    0.1365   -0.0487 C.ar    1  UNL1        0.1285
     21 O           7.8331   -0.3351    1.2385 O.3     1  UNL1       -0.5060
     22 C           8.6313    0.7104   -0.7642 C.ar    1  UNL1       -0.0194
     23 C           8.4338    1.1804   -2.0405 C.ar    1  UNL1       -0.0575
     24 C           7.1823    1.0475   -2.5733 C.ar    1  UNL1       -0.0468
     25 C           6.1431    0.4522   -1.8384 C.ar    1  UNL1        0.0731
     26 C           4.9555    0.1635   -2.6130 C.2     1  UNL1        0.3376
     27 O           4.8023    0.7393   -3.7355 O.2     1  UNL1       -0.2451
     28 O           3.9921   -0.7165   -2.1876 O.3     1  UNL1       -0.4771
     29 C           3.3905    0.9569    0.2416 C.ar    1  UNL1        0.1320
     30 O           4.2207    1.9664   -0.2094 O.3     1  UNL1       -0.5059
     31 C           2.0406    1.2191    0.5227 C.ar    1  UNL1       -0.0053
     32 C          -5.6221    0.3300   -1.3821 C.ar    1  UNL1        0.0369
     33 C          -5.7851    0.3871   -2.7613 C.ar    1  UNL1       -0.0462
     34 C          -6.8037    1.1239   -3.3017 C.ar    1  UNL1       -0.0195
     35 C          -7.7013    1.8330   -2.5098 C.ar    1  UNL1        0.1169
     36 O          -8.7335    2.5801   -3.0501 O.3     1  UNL1       -0.5068
     37 C          -7.5337    1.7713   -1.1560 C.ar    1  UNL1       -0.0195
     38 C          -6.5001    1.0240   -0.5987 C.ar    1  UNL1       -0.0462
     39 H          -4.9879    0.0190    1.2589 H       1  UNL1        0.1494
     40 H          -2.7479   -1.7592    0.3492 H       1  UNL1        0.0535
     41 H          -4.9338   -2.5779    1.7522 H       1  UNL1        0.0284
     42 H          -3.2833   -3.1318    2.3639 H       1  UNL1        0.0284
     43 H          -4.8111   -0.5973    3.1948 H       1  UNL1        0.0267
     44 H          -4.3243   -2.0074    4.2633 H       1  UNL1        0.0267
     45 H          -1.9582   -1.4952    3.9084 H       1  UNL1        0.0301
     46 H          -2.6924    0.1511    4.0704 H       1  UNL1        0.0301
     47 H          -2.6764    0.6227    1.8671 H       1  UNL1        0.0753
     48 H           1.1207   -1.8096    1.4964 H       1  UNL1        0.0662
     49 H           3.0086   -3.3183    0.5777 H       1  UNL1        0.2922
     50 H           8.4899   -1.1108    1.3385 H       1  UNL1        0.2922
     51 H           9.6351    0.8073   -0.3225 H       1  UNL1        0.0654
     52 H           9.2464    1.6360   -2.5906 H       1  UNL1        0.0619
     53 H           7.0348    1.4194   -3.5770 H       1  UNL1        0.0626
     54 H           3.2086   -0.9993   -2.7798 H       1  UNL1        0.2954
     55 H           4.8551    2.4064    0.4454 H       1  UNL1        0.2922
     56 H           1.6501    2.2245    0.3775 H       1  UNL1        0.0662
     57 H          -5.1185   -0.1428   -3.4205 H       1  UNL1        0.0626
     58 H          -6.9454    1.1799   -4.3656 H       1  UNL1        0.0654
     59 H          -9.6698    2.5926   -2.6395 H       1  UNL1        0.2921
     60 H          -8.2228    2.3163   -0.5305 H       1  UNL1        0.0654
     61 H          -6.4634    1.0469    0.4806 H       1  UNL1        0.0626
@<TRIPOS>BOND
     1     1     2    2
     2     2     3   am
     3     3     4    1
     4     4     5    1
     5     5     6    1
     6     6     7    1
     7     7     8    1
     8     8     9    1
     9     9    10    1
    10    10    11    2
    11    10    12    1
    12    12    13   ar
    13    13    14   ar
    14    14    15    1
    15    14    16   ar
    16    16    17    1
    17    17    18    2
    18    17    19    1
    19    19    20   ar
    20    20    21    1
    21    20    22   ar
    22    22    23   ar
    23    23    24   ar
    24    24    25   ar
    25    25    26    1
    26    26    27    2
    27    26    28    1
    28    16    29   ar
    29    29    30    1
    30    29    31   ar
    31     2    32    1
    32    32    33   ar
    33    33    34   ar
    34    34    35   ar
    35    35    36    1
    36    35    37   ar
    37    37    38   ar
    38     8     4    1
    39    31    12   ar
    40    38    32   ar
    41    25    19   ar
    42     3    39    1
    43     4    40    1
    44     5    41    1
    45     5    42    1
    46     6    43    1
    47     6    44    1
    48     7    45    1
    49     7    46    1
    50     8    47    1
    51    13    48    1
    52    15    49    1
    53    21    50    1
    54    22    51    1
    55    23    52    1
    56    24    53    1
    57    28    54    1
    58    30    55    1
    59    31    56    1
    60    33    57    1
    61    34    58    1
    62    36    59    1
    63    37    60    1
    64    38    61    1
