@<TRIPOS>MOLECULE
*****
 32 34 0 0 0
SMALL
GASTEIGER

@<TRIPOS>ATOM
      1 C          -6.0553    0.3129   -0.3227 C.3     1  UNL1        0.0790
      2 O          -4.7782    0.3288   -0.2828 O.3     1  UNL1       -0.4915
      3 C          -3.5102    0.3969   -0.2557 C.ar    1  UNL1        0.1613
      4 C          -2.7591    1.5695   -0.5079 C.ar    1  UNL1       -0.0156
      5 C          -1.3889    1.5490   -0.4562 C.ar    1  UNL1       -0.0474
      6 C          -0.6703    0.4111   -0.1621 C.ar    1  UNL1        0.0210
      7 C           0.7809    0.3958   -0.1089 C.ar    1  UNL1        0.1416
      8 N           1.3986   -0.7741    0.1865 N.ar    1  UNL1       -0.2290
      9 C           2.7138   -0.9115    0.2635 C.ar    1  UNL1        0.0785
     10 C           3.2484   -2.1373    0.5691 C.ar    1  UNL1       -0.0355
     11 C           4.6324   -2.2341    0.6387 C.ar    1  UNL1       -0.0597
     12 C           5.4280   -1.1382    0.4088 C.ar    1  UNL1       -0.0609
     13 C           4.8659    0.0685    0.1068 C.ar    1  UNL1       -0.0474
     14 C           3.5016    0.1865    0.0327 C.ar    1  UNL1        0.0647
     15 C           2.9013    1.4045   -0.2735 C.ar    1  UNL1        0.2595
     16 O           3.6532    2.3901   -0.4790 O.2     1  UNL1       -0.2671
     17 N           1.5582    1.4554   -0.3312 N.ar    1  UNL1       -0.3064
     18 C          -1.3832   -0.7564    0.0903 C.ar    1  UNL1       -0.0059
     19 C          -2.7474   -0.7507    0.0423 C.ar    1  UNL1        0.1591
     20 O          -3.4659   -1.9192    0.2947 O.3     1  UNL1       -0.5033
     21 H          -6.4986   -0.2186   -1.2414 H       1  UNL1        0.0660
     22 H          -6.6047    1.3023   -0.2394 H       1  UNL1        0.0660
     23 H          -6.5048   -0.2467    0.5775 H       1  UNL1        0.0660
     24 H          -3.3387    2.4570   -0.7378 H       1  UNL1        0.0655
     25 H          -0.8287    2.4592   -0.6524 H       1  UNL1        0.0626
     26 H           2.6532   -3.0115    0.7538 H       1  UNL1        0.0639
     27 H           5.0636   -3.1912    0.8771 H       1  UNL1        0.0618
     28 H           6.5067   -1.2662    0.4757 H       1  UNL1        0.0618
     29 H           5.4858    0.9270   -0.0734 H       1  UNL1        0.0626
     30 H           1.1440    2.3773   -0.5615 H       1  UNL1        0.1704
     31 H          -0.8259   -1.6643    0.3247 H       1  UNL1        0.0662
     32 H          -4.1756   -1.9026    1.0439 H       1  UNL1        0.2923
@<TRIPOS>BOND
     1     1     2    1
     2     2     3    1
     3     3     4   ar
     4     4     5   ar
     5     5     6   ar
     6     6     7    1
     7     7     8   ar
     8     8     9   ar
     9     9    10   ar
    10    10    11   ar
    11    11    12   ar
    12    12    13   ar
    13    13    14   ar
    14    14    15   ar
    15    15    16    2
    16    15    17   ar
    17     6    18   ar
    18    18    19   ar
    19    19    20    1
    20    19     3   ar
    21    17     7   ar
    22    14     9   ar
    23     1    21    1
    24     1    22    1
    25     1    23    1
    26     4    24    1
    27     5    25    1
    28    10    26    1
    29    11    27    1
    30    12    28    1
    31    13    29    1
    32    17    30    1
    33    18    31    1
    34    20    32    1
