@<TRIPOS>MOLECULE
*****
 59 61 0 0 0
SMALL
GASTEIGER

@<TRIPOS>ATOM
      1 C          -6.8301    1.2414    2.0533 C.3     1  UNL1       -0.0370
      2 C          -6.2240    1.1775    0.6565 C.3     1  UNL1        0.0766
      3 C          -7.1771    1.8492   -0.3054 C.3     1  UNL1       -0.0370
      4 O          -5.9634   -0.1410    0.2976 O.3     1  UNL1       -0.2733
      5 N          -4.6814   -0.3632    0.1609 N.3     1  UNL1       -0.0453
      6 C          -4.1767   -1.6386    0.4864 C.3     1  UNL1        0.1256
      7 C          -4.9046   -2.7278   -0.1649 C.2     1  UNL1        0.2536
      8 O          -4.5151   -3.9126    0.0836 O.2     1  UNL1       -0.2722
      9 N          -5.9836   -2.5917   -1.0320 N.am    1  UNL1       -0.1963
     10 O          -6.6125   -3.6815   -1.6023 O.3     1  UNL1       -0.2951
     11 S          -3.9964    0.2877   -1.2431 S.O2    1  UNL1        0.0830
     12 O          -4.1797   -0.5570   -2.4698 O.2     1  UNL1       -0.1509
     13 O          -4.5654    1.6643   -1.5266 O.2     1  UNL1       -0.1509
     14 C          -2.2570    0.4636   -0.9515 C.ar    1  UNL1        0.1077
     15 C          -1.7920    1.6261   -0.3717 C.ar    1  UNL1       -0.0347
     16 C          -0.4420    1.8052   -0.1300 C.ar    1  UNL1       -0.0522
     17 C           0.4875    0.8385   -0.4553 C.ar    1  UNL1       -0.0178
     18 C           1.9043    1.0154   -0.2061 C.ar    1  UNL1       -0.0177
     19 C           2.3041    1.7622    0.8826 C.ar    1  UNL1       -0.0506
     20 C           3.6277    1.9658    1.1714 C.ar    1  UNL1       -0.0194
     21 C           4.6500    1.4201    0.3671 C.ar    1  UNL1        0.1210
     22 O           5.9113    1.6694    0.7202 O.3     1  UNL1       -0.4874
     23 C           7.1376    1.3665    0.2943 C.3     1  UNL1        0.1146
     24 C           7.4777   -0.0763    0.3144 C.ar    1  UNL1       -0.0103
     25 C           7.8654   -0.6468    1.5348 C.ar    1  UNL1       -0.0540
     26 C           8.2330   -1.9703    1.6380 C.ar    1  UNL1       -0.0430
     27 C           8.2370   -2.8018    0.5392 C.ar    1  UNL1        0.0410
     28 CL          8.6969   -4.4875    0.6312 Cl      1  UNL1       -0.0835
     29 C           7.8582   -2.2525   -0.6657 C.ar    1  UNL1       -0.0430
     30 C           7.4869   -0.9114   -0.7658 C.ar    1  UNL1       -0.0540
     31 C           4.2628    0.6762   -0.7187 C.ar    1  UNL1       -0.0194
     32 C           2.9206    0.4977   -0.9700 C.ar    1  UNL1       -0.0506
     33 C           0.0013   -0.3172   -1.0347 C.ar    1  UNL1       -0.0522
     34 C          -1.3483   -0.5028   -1.2793 C.ar    1  UNL1       -0.0347
     35 H          -7.9193    1.3404    1.9431 H       1  UNL1        0.0255
     36 H          -6.4293    2.1295    2.6127 H       1  UNL1        0.0255
     37 H          -6.5920    0.3247    2.6072 H       1  UNL1        0.0255
     38 H          -5.2549    1.7109    0.7067 H       1  UNL1        0.0611
     39 H          -7.2767    1.3122   -1.2669 H       1  UNL1        0.0255
     40 H          -6.8096    2.8635   -0.4982 H       1  UNL1        0.0255
     41 H          -8.1947    1.8547    0.1451 H       1  UNL1        0.0255
     42 H          -4.1123   -1.8010    1.6098 H       1  UNL1        0.0565
     43 H          -3.0953   -1.7700    0.1743 H       1  UNL1        0.0565
     44 H          -6.3584   -1.6644   -1.2873 H       1  UNL1        0.1822
     45 H          -7.5893   -3.4968   -1.4240 H       1  UNL1        0.2414
     46 H          -2.5337    2.3920   -0.1146 H       1  UNL1        0.0637
     47 H          -0.0931    2.7275    0.3276 H       1  UNL1        0.0624
     48 H           1.5460    2.1992    1.5263 H       1  UNL1        0.0625
     49 H           3.9138    2.5593    2.0371 H       1  UNL1        0.0654
     50 H           7.3888    1.7892   -0.7463 H       1  UNL1        0.0748
     51 H           7.9013    1.9423    0.9245 H       1  UNL1        0.0748
     52 H           7.8678   -0.0127    2.4016 H       1  UNL1        0.0622
     53 H           8.5344   -2.4193    2.5789 H       1  UNL1        0.0632
     54 H           7.8407   -2.8458   -1.5549 H       1  UNL1        0.0632
     55 H           7.2016   -0.5008   -1.7425 H       1  UNL1        0.0622
     56 H           5.0126    0.2318   -1.3962 H       1  UNL1        0.0654
     57 H           2.6130   -0.0984   -1.8392 H       1  UNL1        0.0625
     58 H           0.7282   -1.0994   -1.3010 H       1  UNL1        0.0624
     59 H          -1.7023   -1.4152   -1.7350 H       1  UNL1        0.0637
@<TRIPOS>BOND
     1     1     2    1
     2     2     3    1
     3     2     4    1
     4     4     5    1
     5     5     6    1
     6     6     7    1
     7     7     8    2
     8     7     9   am
     9     9    10    1
    10     5    11    1
    11    11    12    2
    12    11    13    2
    13    11    14    1
    14    14    15   ar
    15    15    16   ar
    16    16    17   ar
    17    17    18    1
    18    18    19   ar
    19    19    20   ar
    20    20    21   ar
    21    21    22    1
    22    22    23    1
    23    23    24    1
    24    24    25   ar
    25    25    26   ar
    26    26    27   ar
    27    27    28    1
    28    27    29   ar
    29    29    30   ar
    30    21    31   ar
    31    31    32   ar
    32    17    33   ar
    33    33    34   ar
    34    34    14   ar
    35    32    18   ar
    36    30    24   ar
    37     1    35    1
    38     1    36    1
    39     1    37    1
    40     2    38    1
    41     3    39    1
    42     3    40    1
    43     3    41    1
    44     6    42    1
    45     6    43    1
    46     9    44    1
    47    10    45    1
    48    15    46    1
    49    16    47    1
    50    19    48    1
    51    20    49    1
    52    23    50    1
    53    23    51    1
    54    25    52    1
    55    26    53    1
    56    29    54    1
    57    30    55    1
    58    31    56    1
    59    32    57    1
    60    33    58    1
    61    34    59    1
