@<TRIPOS>MOLECULE
*****
 26 27 0 0 0
SMALL
GASTEIGER

@<TRIPOS>ATOM
      1 C           4.1072    0.3716   -0.7564 C.3     1  UNL1        0.0489
      2 O           3.1755   -0.5958   -1.1500 O.3     1  UNL1       -0.2803
      3 P           1.8668   -0.5407   -0.0882 P.3     1  UNL1        0.5326
      4 O           2.3644   -0.4830    1.3292 O.2     1  UNL1       -0.2153
      5 O           0.8893   -1.8762   -0.3840 O.3     1  UNL1       -0.2763
      6 C          -0.2574   -1.8878    0.3894 C.3     1  UNL1        0.0703
      7 C          -1.4185   -1.1807   -0.2263 C.3     1  UNL1        0.0523
      8 C          -2.6507   -1.5151    0.6202 C.3     1  UNL1        0.1020
      9 O          -3.5038   -0.4337    0.3077 O.3     1  UNL1       -0.4606
     10 C          -2.7366    0.7248    0.1102 C.2     1  UNL1        0.3388
     11 O          -3.2231    1.8725    0.1581 O.2     1  UNL1       -0.2452
     12 C          -1.3732    0.2755   -0.1378 C.2     1  UNL1        0.0825
     13 C          -0.3856    1.1464   -0.2388 C.2     1  UNL1        0.1166
     14 C          -0.7379    2.5947   -0.0871 C.3     1  UNL1       -0.0059
     15 O           0.9465    0.8609   -0.4711 O.2     1  UNL1       -0.4080
     16 H           3.5822    1.1616   -0.1774 H       1  UNL1        0.0530
     17 H           4.5866    0.8247   -1.6454 H       1  UNL1        0.0530
     18 H           4.8449   -0.1134   -0.0782 H       1  UNL1        0.0530
     19 H          -0.0705   -1.5652    1.4371 H       1  UNL1        0.0573
     20 H          -0.5551   -2.9749    0.4741 H       1  UNL1        0.0573
     21 H          -1.5728   -1.5770   -1.2469 H       1  UNL1        0.0408
     22 H          -2.3886   -1.4718    1.7033 H       1  UNL1        0.0704
     23 H          -3.0767   -2.4869    0.3380 H       1  UNL1        0.0704
     24 H          -1.1992    2.7849    0.8963 H       1  UNL1        0.0308
     25 H           0.1795    3.1841   -0.1436 H       1  UNL1        0.0308
     26 H          -1.3930    2.9004   -0.9322 H       1  UNL1        0.0308
@<TRIPOS>BOND
     1     1     2    1
     2     3     2    1
     3     3     4    2
     4     3     5    1
     5     5     6    1
     6     6     7    1
     7     7     8    1
     8     8     9    1
     9     9    10    1
    10    10    11    2
    11    10    12    1
    12    12    13    2
    13    13    14    1
    14    13    15    1
    15    15     3    1
    16    12     7    1
    17     1    16    1
    18     1    17    1
    19     1    18    1
    20     6    19    1
    21     6    20    1
    22     7    21    1
    23     8    22    1
    24     8    23    1
    25    14    24    1
    26    14    25    1
    27    14    26    1
