@<TRIPOS>MOLECULE
*****
 51 55 0 0 0
SMALL
GASTEIGER

@<TRIPOS>ATOM
      1 C          -4.1882    1.2541    1.3412 C.3     1  UNL1        0.0166
      2 N          -2.9215    0.9485    0.6757 N.ar    1  UNL1       -0.2957
      3 C          -1.8573    1.7585    0.8890 C.ar    1  UNL1        0.2544
      4 O          -1.9951    2.7473    1.6537 O.2     1  UNL1       -0.2676
      5 C          -0.6385    1.5212    0.2893 C.ar    1  UNL1        0.0249
      6 C          -0.4435    0.4527   -0.5539 C.ar    1  UNL1        0.0488
      7 N           0.7863    0.1762   -1.2072 N.pl3   1  UNL1       -0.3126
      8 C           1.9201    1.0204   -1.0894 C.ar    1  UNL1        0.0506
      9 C           3.1001    0.5515   -0.4990 C.ar    1  UNL1       -0.0270
     10 C           4.1881    1.3849   -0.4134 C.ar    1  UNL1        0.0385
     11 C           5.4296    0.9344    0.1922 C.2     1  UNL1        0.2443
     12 O           6.4352    1.7176    0.2666 O.2     1  UNL1       -0.2702
     13 N           5.6135   -0.3473    0.7225 N.am    1  UNL1       -0.3085
     14 C           6.8459   -0.8061    1.3279 C.3     1  UNL1        0.0235
     15 C           6.8936   -1.9337    2.2605 C.3     1  UNL1       -0.0328
     16 C           7.2861   -2.1835    0.8081 C.3     1  UNL1       -0.0328
     17 C           4.0824    2.6830   -0.9217 C.ar    1  UNL1       -0.0481
     18 C           2.9470    3.1701   -1.5032 C.ar    1  UNL1       -0.0409
     19 C           1.8531    2.3053   -1.5800 C.ar    1  UNL1        0.0621
     20 CL          0.3986    2.9173   -2.3544 Cl      1  UNL1       -0.0816
     21 C          -1.5409   -0.3711   -0.7651 C.ar    1  UNL1        0.0586
     22 C          -1.6854   -1.5070   -1.5370 C.ar    1  UNL1        0.0608
     23 N          -2.9457   -1.9020   -1.3803 N.ar    1  UNL1       -0.1722
     24 N          -3.5922   -1.0712   -0.5515 N.ar    1  UNL1       -0.2156
     25 C          -4.9692   -1.2195   -0.1754 C.ar    1  UNL1        0.0678
     26 C          -5.9661   -0.8978   -1.0746 C.ar    1  UNL1       -0.0335
     27 C          -7.2807   -1.0587   -0.7001 C.ar    1  UNL1       -0.0244
     28 C          -7.6682   -1.5288    0.5376 C.ar    1  UNL1        0.1235
     29 F          -8.9611   -1.6865    0.9044 F       1  UNL1       -0.2055
     30 C          -6.6393   -1.8389    1.4071 C.ar    1  UNL1       -0.0244
     31 C          -5.3155   -1.6906    1.0663 C.ar    1  UNL1       -0.0335
     32 C          -2.7604   -0.1023   -0.1421 C.ar    1  UNL1        0.1485
     33 H          -5.0533    1.1603    0.6805 H       1  UNL1        0.0457
     34 H          -4.1779    2.3424    1.6687 H       1  UNL1        0.0457
     35 H          -4.2903    0.6960    2.2786 H       1  UNL1        0.0457
     36 H           0.2241    2.1712    0.4743 H       1  UNL1        0.0691
     37 H           0.8734   -0.6762   -1.7991 H       1  UNL1        0.1522
     38 H           3.0961   -0.4624   -0.1329 H       1  UNL1        0.0644
     39 H           4.8375   -1.0468    0.6996 H       1  UNL1        0.1493
     40 H           7.6752   -0.0729    1.3576 H       1  UNL1        0.0498
     41 H           6.0202   -2.5095    2.5759 H       1  UNL1        0.0284
     42 H           7.7224   -1.9480    3.0032 H       1  UNL1        0.0284
     43 H           6.6053   -2.7450    0.1657 H       1  UNL1        0.0284
     44 H           8.3540   -2.3319    0.5706 H       1  UNL1        0.0284
     45 H           4.9668    3.3033   -0.8310 H       1  UNL1        0.0625
     46 H           2.8674    4.1790   -1.8973 H       1  UNL1        0.0633
     47 H          -0.9228   -1.9702   -2.1403 H       1  UNL1        0.0855
     48 H          -5.6926   -0.5217   -2.0662 H       1  UNL1        0.0640
     49 H          -8.0712   -0.8006   -1.4209 H       1  UNL1        0.0647
     50 H          -6.9143   -2.2140    2.3959 H       1  UNL1        0.0647
     51 H          -4.5307   -1.9509    1.7929 H       1  UNL1        0.0640
@<TRIPOS>BOND
     1     1     2    1
     2     2     3   ar
     3     3     4    2
     4     3     5   ar
     5     5     6   ar
     6     6     7    1
     7     7     8    1
     8     8     9   ar
     9     9    10   ar
    10    10    11    1
    11    11    12    2
    12    11    13   am
    13    13    14    1
    14    14    15    1
    15    15    16    1
    16    10    17   ar
    17    17    18   ar
    18    18    19   ar
    19    19    20    1
    20     6    21   ar
    21    21    22   ar
    22    22    23   ar
    23    23    24   ar
    24    24    25    1
    25    25    26   ar
    26    26    27   ar
    27    27    28   ar
    28    28    29    1
    29    28    30   ar
    30    30    31   ar
    31    24    32   ar
    32    32     2   ar
    33    19     8   ar
    34    32    21   ar
    35    16    14    1
    36    31    25   ar
    37     1    33    1
    38     1    34    1
    39     1    35    1
    40     5    36    1
    41     7    37    1
    42     9    38    1
    43    13    39    1
    44    14    40    1
    45    15    41    1
    46    15    42    1
    47    16    43    1
    48    16    44    1
    49    17    45    1
    50    18    46    1
    51    22    47    1
    52    26    48    1
    53    27    49    1
    54    30    50    1
    55    31    51    1
