@<TRIPOS>MOLECULE
*****
 111 115 0 0 0
SMALL
GASTEIGER

@<TRIPOS>ATOM
      1 C           0.4062   -0.9490    0.5724 C.3     1  UNL1        0.1371
      2 O           0.2993   -0.6929    1.9227 O.3     1  UNL1       -0.3818
      3 C           1.1030   -2.2696    0.3435 C.2     1  UNL1        0.2127
      4 O           0.4604   -3.3761    0.9243 O.2     1  UNL1       -0.4939
      5 N           2.1926   -2.5475   -0.2992 N.2     1  UNL1       -0.2521
      6 C           2.7326   -3.8833   -0.4296 C.3     1  UNL1        0.0515
      7 C           3.4231   -4.0186   -1.7703 C.3     1  UNL1        0.0426
      8 C           4.5423   -3.0450   -1.8248 C.2     1  UNL1        0.1842
      9 O           5.2288   -3.0411   -3.0307 O.2     1  UNL1       -0.4956
     10 N           4.9241   -2.2360   -0.8992 N.2     1  UNL1       -0.2539
     11 C           6.0497   -1.3232   -1.0817 C.3     1  UNL1        0.0520
     12 C           7.3278   -2.1101   -0.9843 C.3     1  UNL1        0.0138
     13 S           8.7256   -1.0000   -1.2150 S.3     1  UNL1       -0.1495
     14 C           8.8644    0.1892    0.1225 C.3     1  UNL1        0.0693
     15 C           9.1896   -0.4835    1.4175 C.2     1  UNL1        0.1926
     16 O           8.1534   -1.2972    1.8011 O.2     1  UNL1       -0.4951
     17 N          10.1916   -0.4559    2.2019 N.2     1  UNL1       -0.2538
     18 C          11.3732    0.3442    1.9540 C.3     1  UNL1        0.0471
     19 C          12.3049   -0.3869    0.9826 C.3     1  UNL1       -0.0060
     20 C          13.5315    0.3716    0.6955 C.ar    1  UNL1       -0.0206
     21 C          14.7596    0.0377    1.2503 C.ar    1  UNL1        0.0060
     22 N          15.7334    0.8589    0.8509 N.ar    1  UNL1       -0.3604
     23 C          15.1204    1.7355    0.0254 C.ar    1  UNL1        0.0468
     24 C          13.7767    1.4585   -0.0851 C.ar    1  UNL1        0.0039
     25 C          12.9198    2.2019   -0.8666 C.ar    1  UNL1       -0.0383
     26 C          13.4657    3.2793   -1.5670 C.ar    1  UNL1        0.0186
     27 BR         12.3454    4.3635   -2.6748 Br      1  UNL1       -0.0503
     28 C          14.8213    3.5688   -1.4630 C.ar    1  UNL1       -0.0458
     29 C          15.6525    2.8100   -0.6761 C.ar    1  UNL1       -0.0367
     30 C          -0.9599   -0.9766   -0.0530 C.3     1  UNL1        0.0236
     31 C          -0.8908   -1.2515   -1.5437 C.3     1  UNL1       -0.0549
     32 C          -1.7377   -2.1276    0.5747 C.3     1  UNL1       -0.0549
     33 C          -1.6466    0.3449    0.2261 C.3     1  UNL1        0.0670
     34 O          -2.9323    0.3569   -0.3464 O.3     1  UNL1       -0.2857
     35 P          -3.7418    1.7361    0.1802 P.3     1  UNL1        0.4834
     36 O          -4.8260    1.2554    1.4160 O.3     1  UNL1       -0.3022
     37 O          -2.8058    2.8179    0.6457 O.2     1  UNL1       -0.2269
     38 O          -4.6996    2.3734   -1.0613 O.3     1  UNL1       -0.1861
     39 P          -5.5121    3.7111   -0.4865 P.3     1  UNL1        0.4835
     40 O          -5.8639    4.7079   -1.8305 O.3     1  UNL1       -0.3022
     41 O          -4.6750    4.5598    0.4484 O.2     1  UNL1       -0.2269
     42 O          -6.9672    3.3859    0.2643 O.3     1  UNL1       -0.2837
     43 C          -7.9258    2.8134   -0.5375 C.3     1  UNL1        0.0879
     44 C          -9.2523    2.6453    0.1702 C.3     1  UNL1        0.1142
     45 O         -10.1443    2.0686   -0.6986 O.3     1  UNL1       -0.3456
     46 C         -10.9052    1.1824    0.0569 C.3     1  UNL1        0.1667
     47 N         -11.5652    0.1954   -0.7367 N.ar    1  UNL1       -0.2855
     48 C         -11.1981   -0.0753   -1.9888 C.ar    1  UNL1        0.1004
     49 N         -11.9978   -1.0489   -2.4909 N.ar    1  UNL1       -0.2306
     50 C         -12.8858   -1.4019   -1.5439 C.ar    1  UNL1        0.1473
     51 C         -13.9195   -2.3112   -1.4704 C.ar    1  UNL1        0.1472
     52 N         -14.1287   -3.0736   -2.6531 N.pl3   1  UNL1       -0.3413
     53 N         -14.6465   -2.4205   -0.3227 N.ar    1  UNL1       -0.2188
     54 C         -14.3620   -1.6435    0.7453 C.ar    1  UNL1        0.1205
     55 N         -13.3408   -0.7392    0.6854 N.ar    1  UNL1       -0.2159
     56 C         -12.6013   -0.6051   -0.4348 C.ar    1  UNL1        0.1674
     57 C          -9.8618    0.5210    0.9134 C.3     1  UNL1        0.1294
     58 O         -10.5295   -0.0401    2.0086 O.3     1  UNL1       -0.3846
     59 C          -9.0526    1.7532    1.3514 C.3     1  UNL1        0.1283
     60 O          -9.5621    2.1926    2.5241 O.3     1  UNL1       -0.2780
     61 P          -8.5737    2.1828    3.8484 P.3     1  UNL1        0.4728
     62 O          -9.0339    3.3626    5.0012 O.3     1  UNL1       -0.3026
     63 O          -6.9267    2.3473    3.4742 O.3     1  UNL1       -0.3026
     64 O          -8.7213    0.8516    4.5536 O.2     1  UNL1       -0.2275
     65 H           0.9764   -0.1316    0.0806 H       1  UNL1        0.0697
     66 H           0.9203   -1.2632    2.4616 H       1  UNL1        0.2105
     67 H           0.9501   -4.1450    1.3627 H       1  UNL1        0.2935
     68 H           3.4886   -4.0321    0.3530 H       1  UNL1        0.0514
     69 H           1.9110   -4.6274   -0.3472 H       1  UNL1        0.0514
     70 H           2.7040   -3.7538   -2.5868 H       1  UNL1        0.0377
     71 H           3.7702   -5.0485   -1.9019 H       1  UNL1        0.0377
     72 H           5.7183   -2.2370   -3.3995 H       1  UNL1        0.2934
     73 H           6.0403   -0.5566   -0.2704 H       1  UNL1        0.0517
     74 H           5.9860   -0.7778   -2.0226 H       1  UNL1        0.0517
     75 H           7.3954   -2.5868    0.0161 H       1  UNL1        0.0394
     76 H           7.3481   -2.8981   -1.7812 H       1  UNL1        0.0394
     77 H           9.6644    0.9197   -0.1302 H       1  UNL1        0.0472
     78 H           7.9276    0.7552    0.1781 H       1  UNL1        0.0472
     79 H           8.1931   -1.8390    2.6595 H       1  UNL1        0.2934
     80 H          11.8980    0.4666    2.9251 H       1  UNL1        0.0512
     81 H          11.0547    1.3109    1.5457 H       1  UNL1        0.0512
     82 H          11.7167   -0.4675    0.0357 H       1  UNL1        0.0332
     83 H          12.5154   -1.3977    1.3829 H       1  UNL1        0.0332
     84 H          14.9821   -0.7839    1.9389 H       1  UNL1        0.0810
     85 H          16.7412    0.8699    1.0855 H       1  UNL1        0.1653
     86 H          11.8650    1.9473   -0.9249 H       1  UNL1        0.0635
     87 H          15.2689    4.3904   -1.9896 H       1  UNL1        0.0629
     88 H          16.7136    3.0604   -0.6143 H       1  UNL1        0.0639
     89 H          -0.4319   -2.2277   -1.7403 H       1  UNL1        0.0237
     90 H          -0.2765   -0.4585   -2.0373 H       1  UNL1        0.0237
     91 H          -1.9121   -1.2344   -1.9612 H       1  UNL1        0.0237
     92 H          -2.8207   -1.8786    0.5518 H       1  UNL1        0.0237
     93 H          -1.6310   -3.0369   -0.0380 H       1  UNL1        0.0237
     94 H          -1.4454   -2.2224    1.6199 H       1  UNL1        0.0237
     95 H          -1.0613    1.1505   -0.2466 H       1  UNL1        0.0572
     96 H          -1.6646    0.4878    1.3215 H       1  UNL1        0.0572
     97 H          -5.4373    0.6018    0.9899 H       1  UNL1        0.2220
     98 H          -5.0530    4.8176   -2.4119 H       1  UNL1        0.2220
     99 H          -8.0228    3.4320   -1.4554 H       1  UNL1        0.0592
    100 H          -7.5101    1.8391   -0.8875 H       1  UNL1        0.0592
    101 H          -9.5979    3.6614    0.4269 H       1  UNL1        0.0647
    102 H         -11.6336    1.7289    0.6650 H       1  UNL1        0.0866
    103 H         -10.4482    0.2794   -2.6706 H       1  UNL1        0.1030
    104 H         -14.8176   -2.6925   -3.3498 H       1  UNL1        0.1438
    105 H         -13.7029   -3.9926   -2.9783 H       1  UNL1        0.1438
    106 H         -15.0055   -1.8189    1.5949 H       1  UNL1        0.1048
    107 H          -9.2486   -0.1873    0.3545 H       1  UNL1        0.0666
    108 H         -10.7395   -0.9878    1.8278 H       1  UNL1        0.2101
    109 H          -8.0033    1.4074    1.4479 H       1  UNL1        0.0656
    110 H          -9.9363    3.1973    5.3227 H       1  UNL1        0.2220
    111 H          -6.5745    3.2063    3.8677 H       1  UNL1        0.2220
@<TRIPOS>BOND
     1     1     2    1
     2     1     3    1
     3     3     4    1
     4     3     5    2
     5     5     6    1
     6     6     7    1
     7     7     8    1
     8     8     9    1
     9     8    10    2
    10    10    11    1
    11    11    12    1
    12    12    13    1
    13    13    14    1
    14    14    15    1
    15    15    16    1
    16    15    17    2
    17    17    18    1
    18    18    19    1
    19    19    20    1
    20    20    21   ar
    21    21    22   ar
    22    22    23   ar
    23    23    24   ar
    24    24    25   ar
    25    25    26   ar
    26    26    27    1
    27    26    28   ar
    28    28    29   ar
    29     1    30    1
    30    30    31    1
    31    30    32    1
    32    30    33    1
    33    33    34    1
    34    34    35    1
    35    35    36    1
    36    35    37    2
    37    35    38    1
    38    38    39    1
    39    39    40    1
    40    39    41    2
    41    39    42    1
    42    42    43    1
    43    43    44    1
    44    44    45    1
    45    45    46    1
    46    46    47    1
    47    47    48   ar
    48    48    49   ar
    49    49    50   ar
    50    50    51   ar
    51    51    52    1
    52    51    53   ar
    53    53    54   ar
    54    54    55   ar
    55    55    56   ar
    56    46    57    1
    57    57    58    1
    58    57    59    1
    59    59    60    1
    60    60    61    1
    61    61    62    1
    62    61    63    1
    63    61    64    2
    64    24    20   ar
    65    59    44    1
    66    29    23   ar
    67    56    47   ar
    68    56    50   ar
    69     1    65    1
    70     2    66    1
    71     4    67    1
    72     6    68    1
    73     6    69    1
    74     7    70    1
    75     7    71    1
    76     9    72    1
    77    11    73    1
    78    11    74    1
    79    12    75    1
    80    12    76    1
    81    14    77    1
    82    14    78    1
    83    16    79    1
    84    18    80    1
    85    18    81    1
    86    19    82    1
    87    19    83    1
    88    21    84    1
    89    22    85    1
    90    25    86    1
    91    28    87    1
    92    29    88    1
    93    31    89    1
    94    31    90    1
    95    31    91    1
    96    32    92    1
    97    32    93    1
    98    32    94    1
    99    33    95    1
   100    33    96    1
   101    36    97    1
   102    40    98    1
   103    43    99    1
   104    43   100    1
   105    44   101    1
   106    46   102    1
   107    48   103    1
   108    52   104    1
   109    52   105    1
   110    54   106    1
   111    57   107    1
   112    58   108    1
   113    59   109    1
   114    62   110    1
   115    63   111    1
