@<TRIPOS>MOLECULE
*****
 28 29 0 0 0
SMALL
GASTEIGER

@<TRIPOS>ATOM
      1 N           4.5264    0.5495   -1.4598 N.3     1  UNL1       -0.2035
      2 S           3.7858    0.8092    0.0537 S.O2    1  UNL1        0.0574
      3 O           4.6384    0.2827    1.1513 O.2     1  UNL1       -0.1532
      4 O           3.7509    2.3181    0.2488 O.2     1  UNL1       -0.1532
      5 C           2.1440    0.1960    0.1040 C.ar    1  UNL1        0.1252
      6 C           1.9332   -1.1494   -0.1168 C.ar    1  UNL1        0.0691
      7 CL          3.2411   -2.2786   -0.4472 Cl      1  UNL1       -0.0815
      8 C           0.6584   -1.7071   -0.0923 C.ar    1  UNL1       -0.0186
      9 C          -0.4022   -0.8737    0.1609 C.ar    1  UNL1        0.0565
     10 N          -1.7390   -1.3158    0.2115 N.pl3   1  UNL1       -0.3238
     11 C          -2.9510   -0.5864    0.5115 C.3     1  UNL1        0.1215
     12 N          -2.7858    0.5999    1.2724 N.3     1  UNL1       -0.1673
     13 S          -1.4899    1.5899    0.7107 S.O2    1  UNL1        0.0619
     14 O          -1.8234    2.3377   -0.5399 O.2     1  UNL1       -0.1529
     15 O          -1.1261    2.5244    1.8300 O.2     1  UNL1       -0.1529
     16 C          -0.1832    0.4693    0.3805 C.ar    1  UNL1        0.1280
     17 C           1.0486    1.0289    0.3605 C.ar    1  UNL1       -0.0057
     18 C          -3.8319   -0.4334   -0.7103 C.3     1  UNL1        0.1405
     19 CL         -5.2896    0.4707   -0.2642 Cl      1  UNL1       -0.1012
     20 CL         -2.9792    0.2691   -2.0974 Cl      1  UNL1       -0.1012
     21 H           3.8729    0.4498   -2.2398 H       1  UNL1        0.1442
     22 H           5.3432   -0.0767   -1.4540 H       1  UNL1        0.1442
     23 H           0.4652   -2.7715   -0.2644 H       1  UNL1        0.0652
     24 H          -1.8397   -2.3524   -0.0115 H       1  UNL1        0.1477
     25 H          -3.5357   -1.2969    1.1803 H       1  UNL1        0.0709
     26 H          -2.5608    0.3406    2.2588 H       1  UNL1        0.1502
     27 H           1.2683    2.0739    0.5265 H       1  UNL1        0.0658
     28 H          -4.1389   -1.4677   -1.0450 H       1  UNL1        0.0667
@<TRIPOS>BOND
     1     1     2    1
     2     2     3    2
     3     2     4    2
     4     2     5    1
     5     5     6   ar
     6     6     7    1
     7     6     8   ar
     8     8     9   ar
     9     9    10    1
    10    10    11    1
    11    11    12    1
    12    12    13    1
    13    13    14    2
    14    13    15    2
    15    13    16    1
    16    16    17   ar
    17    11    18    1
    18    18    19    1
    19    18    20    1
    20    17     5   ar
    21    16     9   ar
    22     1    21    1
    23     1    22    1
    24     8    23    1
    25    10    24    1
    26    11    25    1
    27    12    26    1
    28    17    27    1
    29    18    28    1
