
     RDKit          3D

 48 48  0  0  0  0  0  0  0  0999 V2000
   -4.0459    0.7983   -0.8930 C   0  0  1  0  0  0  0  0  0  0  0  0
   -4.3101    1.9882    0.0025 C   0  0  0  0  0  0  0  0  0  0  0  0
   -3.7849    1.8977    1.2604 O   0  0  0  0  0  0  0  0  0  0  0  0
   -2.7546    0.5131   -1.1384 O   0  0  0  0  0  0  0  0  0  0  0  0
   -2.0498   -0.3019   -0.3056 C   0  0  1  0  0  0  0  0  0  0  0  0
   -1.2146    0.7477    0.9195 S   0  0  0  0  0  0  0  0  0  0  0  0
    0.0092    1.7403    0.0312 C   0  0  0  0  0  0  0  0  0  0  0  0
    1.0886    0.7787   -0.4623 C   0  0  0  0  0  0  0  0  0  0  0  0
    1.6499    0.1432    0.7930 C   0  0  0  0  0  0  0  0  0  0  0  0
    2.7371   -0.8446    0.5499 C   0  0  0  0  0  0  0  0  0  0  0  0
    3.8816   -0.1784   -0.1459 C   0  0  0  0  0  0  0  0  0  0  0  0
    4.9697   -1.2316   -0.3615 C   0  0  0  0  0  0  0  0  0  0  0  0
    6.1289   -0.5530   -1.0676 C   0  0  0  0  0  0  0  0  0  0  0  0
    6.6623    0.5731   -0.2394 C   0  0  0  0  0  0  0  0  0  0  0  0
   -2.8131   -1.4078    0.3448 C   0  0  2  0  0  0  0  0  0  0  0  0
   -2.7011   -2.5825   -0.4383 O   0  0  0  0  0  0  0  0  0  0  0  0
   -4.2510   -1.1695    0.5930 C   0  0  1  0  0  0  0  0  0  0  0  0
   -4.4366   -0.6418    1.8591 O   0  0  0  0  0  0  0  0  0  0  0  0
   -4.8970   -0.3846   -0.4874 C   0  0  2  0  0  0  0  0  0  0  0  0
   -5.1087   -1.1542   -1.6127 O   0  0  0  0  0  0  0  0  0  0  0  0
   -4.4817    1.1125   -1.8838 H   0  0  0  0  0  0  0  0  0  0  0  0
   -3.9570    2.9230   -0.4921 H   0  0  0  0  0  0  0  0  0  0  0  0
   -5.4297    2.0544    0.1351 H   0  0  0  0  0  0  0  0  0  0  0  0
   -4.3424    2.2332    1.9937 H   0  0  0  0  0  0  0  0  0  0  0  0
   -1.2423   -0.7766   -0.8982 H   0  0  0  0  0  0  0  0  0  0  0  0
    0.4808    2.5040    0.6520 H   0  0  0  0  0  0  0  0  0  0  0  0
   -0.4650    2.2552   -0.8550 H   0  0  0  0  0  0  0  0  0  0  0  0
    0.6145   -0.0083   -1.0793 H   0  0  0  0  0  0  0  0  0  0  0  0
    1.8599    1.3327   -1.0356 H   0  0  0  0  0  0  0  0  0  0  0  0
    2.0613    0.9850    1.4019 H   0  0  0  0  0  0  0  0  0  0  0  0
    0.7922   -0.3004    1.3411 H   0  0  0  0  0  0  0  0  0  0  0  0
    3.0641   -1.2131    1.5584 H   0  0  0  0  0  0  0  0  0  0  0  0
    2.3483   -1.7191    0.0031 H   0  0  0  0  0  0  0  0  0  0  0  0
    4.2541    0.6571    0.4687 H   0  0  0  0  0  0  0  0  0  0  0  0
    3.5217    0.1856   -1.1355 H   0  0  0  0  0  0  0  0  0  0  0  0
    4.5808   -2.0367   -1.0077 H   0  0  0  0  0  0  0  0  0  0  0  0
    5.3293   -1.6039    0.6160 H   0  0  0  0  0  0  0  0  0  0  0  0
    6.8828   -1.3393   -1.2706 H   0  0  0  0  0  0  0  0  0  0  0  0
    5.7526   -0.1812   -2.0536 H   0  0  0  0  0  0  0  0  0  0  0  0
    6.3425    1.5582   -0.6546 H   0  0  0  0  0  0  0  0  0  0  0  0
    7.7664    0.5407   -0.2496 H   0  0  0  0  0  0  0  0  0  0  0  0
    6.3312    0.4683    0.8262 H   0  0  0  0  0  0  0  0  0  0  0  0
   -2.3095   -1.6541    1.3019 H   0  0  0  0  0  0  0  0  0  0  0  0
   -2.8387   -2.2884   -1.3843 H   0  0  0  0  0  0  0  0  0  0  0  0
   -4.7762   -2.1704    0.6065 H   0  0  0  0  0  0  0  0  0  0  0  0
   -5.3796   -0.3658    1.9203 H   0  0  0  0  0  0  0  0  0  0  0  0
   -5.8617    0.0440   -0.1405 H   0  0  0  0  0  0  0  0  0  0  0  0
   -5.6585   -1.9269   -1.3814 H   0  0  0  0  0  0  0  0  0  0  0  0
  1  2  1  0
  2  3  1  0
  1  4  1  0
  4  5  1  0
  5  6  1  0
  6  7  1  0
  7  8  1  0
  8  9  1  0
  9 10  1  0
 10 11  1  0
 11 12  1  0
 12 13  1  0
 13 14  1  0
  5 15  1  0
 15 16  1  0
 15 17  1  0
 17 18  1  0
 17 19  1  0
 19 20  1  0
 19  1  1  0
  1 21  1  6
  2 22  1  0
  2 23  1  0
  3 24  1  0
  5 25  1  6
  7 26  1  0
  7 27  1  0
  8 28  1  0
  8 29  1  0
  9 30  1  0
  9 31  1  0
 10 32  1  0
 10 33  1  0
 11 34  1  0
 11 35  1  0
 12 36  1  0
 12 37  1  0
 13 38  1  0
 13 39  1  0
 14 40  1  0
 14 41  1  0
 14 42  1  0
 15 43  1  1
 16 44  1  0
 17 45  1  1
 18 46  1  0
 19 47  1  1
 20 48  1  0
M  END
$$$$
