@<TRIPOS>MOLECULE
*****
 57 62 0 0 0
SMALL
GASTEIGER

@<TRIPOS>ATOM
      1 N           9.0926   -1.5315   -0.4920 N.am    1  UNL1       -0.3253
      2 C           8.5618   -0.6478   -1.4612 C.2     1  UNL1        0.2436
      3 O           9.2004   -0.4475   -2.5094 O.2     1  UNL1       -0.2703
      4 C           7.2912    0.0287   -1.2599 C.ar    1  UNL1        0.0624
      5 C           6.8291    0.8749   -2.2347 C.ar    1  UNL1       -0.0475
      6 C           5.6296    1.5188   -2.0502 C.ar    1  UNL1       -0.0603
      7 C           4.9035    1.3125   -0.8972 C.ar    1  UNL1       -0.0519
      8 C           5.3543    0.4633    0.0950 C.ar    1  UNL1        0.0090
      9 C           4.5959    0.2861    1.2326 C.ar    1  UNL1       -0.0022
     10 C           3.3288    0.9416    1.4803 C.ar    1  UNL1        0.0467
     11 C           3.1104    2.1581    2.1109 C.ar    1  UNL1        0.0597
     12 N           1.7906    2.4097    2.1430 N.ar    1  UNL1       -0.1727
     13 N           1.1526    1.4012    1.5571 N.ar    1  UNL1       -0.2206
     14 C          -0.1552    1.1626    1.3296 C.ar    1  UNL1        0.0406
     15 C          -0.6049    0.0326    0.6939 C.ar    1  UNL1        0.0184
     16 C          -2.0442   -0.1595    0.4779 C.ar    1  UNL1       -0.0149
     17 C          -2.9802    0.3242    1.3561 C.ar    1  UNL1       -0.0522
     18 C          -4.3333    0.1599    1.1780 C.ar    1  UNL1       -0.0401
     19 C          -4.8092   -0.5208    0.0716 C.ar    1  UNL1        0.0298
     20 N          -6.1863   -0.7002   -0.1176 N.pl3   1  UNL1       -0.3275
     21 C          -7.2209   -0.4469    0.8492 C.3     1  UNL1        0.0248
     22 C          -8.0834    0.7281    0.3785 C.3     1  UNL1        0.0117
     23 N          -8.1315    0.7677   -1.0718 N.3     1  UNL1       -0.3130
     24 C          -8.0092   -0.5545   -1.6595 C.3     1  UNL1        0.0117
     25 C          -6.6479   -1.1803   -1.4237 C.3     1  UNL1        0.0248
     26 C          -3.8674   -1.0180   -0.8290 C.ar    1  UNL1       -0.0401
     27 C          -2.5213   -0.8382   -0.6250 C.ar    1  UNL1       -0.0522
     28 C           0.3528   -0.8720    0.2860 C.ar    1  UNL1        0.0391
     29 N           1.6773   -0.6422    0.5101 N.ar    1  UNL1       -0.2350
     30 C           2.0769    0.4857    1.1410 C.ar    1  UNL1        0.1632
     31 C           5.1047   -0.5722    2.1765 C.ar    1  UNL1       -0.0351
     32 C           6.3144   -1.2268    1.9994 C.ar    1  UNL1        0.0289
     33 N           6.9817   -0.9946    0.8663 N.ar    1  UNL1       -0.2542
     34 C           6.5547   -0.1691   -0.1099 C.ar    1  UNL1        0.0836
     35 H           8.5797   -2.3845   -0.2370 H       1  UNL1        0.1453
     36 H           9.9989   -1.3042   -0.0504 H       1  UNL1        0.1453
     37 H           7.4015    1.0362   -3.1417 H       1  UNL1        0.0626
     38 H           5.2812    2.1815   -2.8279 H       1  UNL1        0.0618
     39 H           3.9435    1.8158   -0.7322 H       1  UNL1        0.0624
     40 H           3.8478    2.8306    2.5251 H       1  UNL1        0.0855
     41 H          -0.8654    1.9018    1.6688 H       1  UNL1        0.0837
     42 H          -2.6126    0.8622    2.2311 H       1  UNL1        0.0624
     43 H          -5.0462    0.5717    1.9121 H       1  UNL1        0.0636
     44 H          -6.8643   -0.1940    1.8517 H       1  UNL1        0.0476
     45 H          -7.9453   -1.3106    0.8707 H       1  UNL1        0.0476
     46 H          -9.0975    0.6988    0.7842 H       1  UNL1        0.0439
     47 H          -7.5725    1.6444    0.7237 H       1  UNL1        0.0439
     48 H          -9.0578    1.1411   -1.3366 H       1  UNL1        0.1220
     49 H          -8.7750   -1.2554   -1.2855 H       1  UNL1        0.0439
     50 H          -8.1361   -0.4145   -2.7592 H       1  UNL1        0.0439
     51 H          -6.0013   -0.8638   -2.2480 H       1  UNL1        0.0476
     52 H          -6.7450   -2.2914   -1.3127 H       1  UNL1        0.0476
     53 H          -4.1935   -1.5526   -1.6962 H       1  UNL1        0.0636
     54 H          -1.7725   -1.2201   -1.3204 H       1  UNL1        0.0624
     55 H           0.0744   -1.7716   -0.2146 H       1  UNL1        0.0837
     56 H           4.5549   -0.7495    3.0853 H       1  UNL1        0.0639
     57 H           6.6946   -1.9055    2.7687 H       1  UNL1        0.0830
@<TRIPOS>BOND
     1     1     2   am
     2     2     3    2
     3     2     4    1
     4     4     5   ar
     5     5     6   ar
     6     6     7   ar
     7     7     8   ar
     8     8     9   ar
     9     9    10    1
    10    10    11   ar
    11    11    12   ar
    12    12    13   ar
    13    13    14   ar
    14    14    15   ar
    15    15    16    1
    16    16    17   ar
    17    17    18   ar
    18    18    19   ar
    19    19    20    1
    20    20    21    1
    21    21    22    1
    22    22    23    1
    23    23    24    1
    24    24    25    1
    25    19    26   ar
    26    26    27   ar
    27    15    28   ar
    28    28    29   ar
    29    29    30   ar
    30     9    31   ar
    31    31    32   ar
    32    32    33   ar
    33    33    34   ar
    34    34     4   ar
    35    34     8   ar
    36    30    10   ar
    37    30    13   ar
    38    27    16   ar
    39    25    20    1
    40     1    35    1
    41     1    36    1
    42     5    37    1
    43     6    38    1
    44     7    39    1
    45    11    40    1
    46    14    41    1
    47    17    42    1
    48    18    43    1
    49    21    44    1
    50    21    45    1
    51    22    46    1
    52    22    47    1
    53    23    48    1
    54    24    49    1
    55    24    50    1
    56    25    51    1
    57    25    52    1
    58    26    53    1
    59    27    54    1
    60    28    55    1
    61    31    56    1
    62    32    57    1
