
     RDKit          3D

 30 32  0  0  0  0  0  0  0  0999 V2000
   -0.1554    0.4327    1.6173 O   0  0  0  0  0  0  0  0  0  0  0  0
   -0.4738    0.0694    0.4679 C   0  0  0  0  0  0  0  0  0  0  0  0
    0.4954   -0.1589   -0.4893 C   0  0  0  0  0  0  0  0  0  0  0  0
    1.9225    0.0125   -0.2036 C   0  0  0  0  0  0  0  0  0  0  0  0
    2.4712   -0.4844    0.9633 C   0  0  0  0  0  0  0  0  0  0  0  0
    3.8252   -0.3244    1.2394 C   0  0  0  0  0  0  0  0  0  0  0  0
    4.6498    0.3380    0.3463 C   0  0  0  0  0  0  0  0  0  0  0  0
    6.0126    0.5050    0.6129 O   0  0  0  0  0  0  0  0  0  0  0  0
    4.1204    0.8432   -0.8279 C   0  0  0  0  0  0  0  0  0  0  0  0
    2.7828    0.6642   -1.0613 C   0  0  0  0  0  0  0  0  0  0  0  0
    0.0464   -0.5578   -1.7314 C   0  0  0  0  0  0  0  0  0  0  0  0
   -1.2325   -0.7182   -2.0102 O   0  0  0  0  0  0  0  0  0  0  0  0
   -2.1660   -0.5030   -1.1039 C   0  0  0  0  0  0  0  0  0  0  0  0
   -3.4967   -0.6864   -1.4490 C   0  0  0  0  0  0  0  0  0  0  0  0
   -4.4398   -0.4478   -0.4624 C   0  0  0  0  0  0  0  0  0  0  0  0
   -5.7783   -0.6176   -0.7607 O   0  0  0  0  0  0  0  0  0  0  0  0
   -4.0931   -0.0490    0.7998 C   0  0  0  0  0  0  0  0  0  0  0  0
   -2.7874    0.1323    1.1432 C   0  0  0  0  0  0  0  0  0  0  0  0
   -2.3392    0.5291    2.3785 O   0  0  0  0  0  0  0  0  0  0  0  0
   -1.8148   -0.1010    0.1684 C   0  0  0  0  0  0  0  0  0  0  0  0
    1.8698   -1.0050    1.6850 H   0  0  0  0  0  0  0  0  0  0  0  0
    4.2354   -0.7215    2.1598 H   0  0  0  0  0  0  0  0  0  0  0  0
    6.3206    1.3224    1.1559 H   0  0  0  0  0  0  0  0  0  0  0  0
    4.7816    1.3609   -1.5185 H   0  0  0  0  0  0  0  0  0  0  0  0
    2.3700    1.0584   -1.9774 H   0  0  0  0  0  0  0  0  0  0  0  0
    0.7581   -0.7497   -2.5156 H   0  0  0  0  0  0  0  0  0  0  0  0
   -3.8107   -1.0013   -2.4376 H   0  0  0  0  0  0  0  0  0  0  0  0
   -6.3650    0.1920   -0.9917 H   0  0  0  0  0  0  0  0  0  0  0  0
   -4.8410    0.1369    1.5712 H   0  0  0  0  0  0  0  0  0  0  0  0
   -2.8680    0.5291    3.2314 H   0  0  0  0  0  0  0  0  0  0  0  0
  1  2  2  0
  2  3  1  0
  3  4  1  0
  4  5  2  0
  5  6  1  0
  6  7  2  0
  7  8  1  0
  7  9  1  0
  9 10  2  0
  3 11  2  0
 11 12  1  0
 12 13  1  0
 13 14  2  0
 14 15  1  0
 15 16  1  0
 15 17  2  0
 17 18  1  0
 18 19  1  0
 18 20  2  0
 20  2  1  0
 10  4  1  0
 20 13  1  0
  5 21  1  0
  6 22  1  0
  8 23  1  0
  9 24  1  0
 10 25  1  0
 11 26  1  0
 14 27  1  0
 16 28  1  0
 17 29  1  0
 19 30  1  0
M  END
$$$$
