@<TRIPOS>MOLECULE
*****
 30 32 0 0 0
SMALL
GASTEIGER

@<TRIPOS>ATOM
      1 O          -0.1554    0.4327    1.6173 O.2     1  UNL1       -0.2863
      2 C          -0.4738    0.0694    0.4679 C.ar    1  UNL1        0.2037
      3 C           0.4954   -0.1589   -0.4893 C.ar    1  UNL1        0.0644
      4 C           1.9225    0.0125   -0.2036 C.ar    1  UNL1       -0.0110
      5 C           2.4712   -0.4844    0.9633 C.ar    1  UNL1       -0.0504
      6 C           3.8252   -0.3244    1.2394 C.ar    1  UNL1       -0.0196
      7 C           4.6498    0.3380    0.3463 C.ar    1  UNL1        0.1169
      8 O           6.0126    0.5050    0.6129 O.3     1  UNL1       -0.5068
      9 C           4.1204    0.8432   -0.8279 C.ar    1  UNL1       -0.0196
     10 C           2.7828    0.6642   -1.0613 C.ar    1  UNL1       -0.0504
     11 C           0.0464   -0.5578   -1.7314 C.ar    1  UNL1        0.1038
     12 O          -1.2325   -0.7182   -2.0102 O.2     1  UNL1       -0.4618
     13 C          -2.1660   -0.5030   -1.1039 C.ar    1  UNL1        0.1454
     14 C          -3.4967   -0.6864   -1.4490 C.ar    1  UNL1        0.0231
     15 C          -4.4398   -0.4478   -0.4624 C.ar    1  UNL1        0.1239
     16 O          -5.7783   -0.6176   -0.7607 O.3     1  UNL1       -0.5065
     17 C          -4.0931   -0.0490    0.7998 C.ar    1  UNL1        0.0223
     18 C          -2.7874    0.1323    1.1432 C.ar    1  UNL1        0.1347
     19 O          -2.3392    0.5291    2.3785 O.3     1  UNL1       -0.5058
     20 C          -1.8148   -0.1010    0.1684 C.ar    1  UNL1        0.1060
     21 H           1.8698   -1.0050    1.6850 H       1  UNL1        0.0625
     22 H           4.2354   -0.7215    2.1598 H       1  UNL1        0.0654
     23 H           6.3206    1.3224    1.1559 H       1  UNL1        0.2921
     24 H           4.7816    1.3609   -1.5185 H       1  UNL1        0.0654
     25 H           2.3700    1.0584   -1.9774 H       1  UNL1        0.0625
     26 H           0.7581   -0.7497   -2.5156 H       1  UNL1        0.1037
     27 H          -3.8107   -1.0013   -2.4376 H       1  UNL1        0.0691
     28 H          -6.3650    0.1920   -0.9917 H       1  UNL1        0.2921
     29 H          -4.8410    0.1369    1.5712 H       1  UNL1        0.0691
     30 H          -2.8680    0.5291    3.2314 H       1  UNL1        0.2922
@<TRIPOS>BOND
     1     1     2    2
     2     2     3   ar
     3     3     4    1
     4     4     5   ar
     5     5     6   ar
     6     6     7   ar
     7     7     8    1
     8     7     9   ar
     9     9    10   ar
    10     3    11   ar
    11    11    12   ar
    12    12    13   ar
    13    13    14   ar
    14    14    15   ar
    15    15    16    1
    16    15    17   ar
    17    17    18   ar
    18    18    19    1
    19    18    20   ar
    20    20     2   ar
    21    10     4   ar
    22    20    13   ar
    23     5    21    1
    24     6    22    1
    25     8    23    1
    26     9    24    1
    27    10    25    1
    28    11    26    1
    29    14    27    1
    30    16    28    1
    31    17    29    1
    32    19    30    1
