@<TRIPOS>MOLECULE
*****
 62 66 0 0 0
SMALL
GASTEIGER

@<TRIPOS>ATOM
      1 C          -4.1480   -1.5381   -0.7813 C.3     1  UNL1        0.0417
      2 C          -5.2657   -2.5379   -1.1319 C.3     1  UNL1       -0.0463
      3 C          -3.1998   -1.5196   -1.9519 C.3     1  UNL1        0.1048
      4 O          -2.1517   -0.6375   -1.8733 O.3     1  UNL1       -0.4904
      5 C          -1.1091   -0.5524   -0.9895 C.ar    1  UNL1        0.1206
      6 C          -0.3344    0.5534   -1.3724 C.ar    1  UNL1       -0.0196
      7 C           0.8193    0.9171   -0.6639 C.ar    1  UNL1       -0.0516
      8 C           1.2168    0.1850    0.4351 C.ar    1  UNL1       -0.0057
      9 C           0.4291   -0.9143    0.7992 C.ar    1  UNL1       -0.0516
     10 C          -0.6840   -1.2591    0.1092 C.ar    1  UNL1       -0.0196
     11 C           2.4217    0.4926    1.2509 C.3     1  UNL1        0.1412
     12 O           2.4508    1.8453    1.4760 O.3     1  UNL1       -0.4817
     13 C           3.1960    2.8371    0.9335 C.ar    1  UNL1        0.1350
     14 C           4.1068    2.5459   -0.0596 C.ar    1  UNL1        0.0537
     15 S           4.2983    0.8433   -0.6279 S.3     1  UNL1       -0.1094
     16 C           3.6842   -0.1430    0.7454 C.3     1  UNL1        0.0760
     17 C           3.5712   -1.5633    0.4461 C.ar    1  UNL1       -0.0301
     18 C           2.8669   -2.1140   -0.6113 C.ar    1  UNL1       -0.0539
     19 C           2.7533   -3.4527   -0.8978 C.ar    1  UNL1       -0.0199
     20 C           3.3953   -4.3412   -0.0632 C.ar    1  UNL1        0.1169
     21 O           3.3024   -5.7013   -0.3217 O.3     1  UNL1       -0.5068
     22 C           4.1223   -3.8973    1.0165 C.ar    1  UNL1       -0.0199
     23 C           4.1834   -2.5352    1.2302 C.ar    1  UNL1       -0.0539
     24 C           4.8286    3.5965   -0.5653 C.ar    1  UNL1       -0.0032
     25 C           4.6934    4.8961   -0.1421 C.ar    1  UNL1        0.1181
     26 O           5.4538    5.9269   -0.6914 O.3     1  UNL1       -0.5067
     27 C           3.7664    5.1594    0.8613 C.ar    1  UNL1       -0.0167
     28 C           3.0257    4.1353    1.3922 C.ar    1  UNL1       -0.0154
     29 N          -4.7783   -0.2639   -0.6149 N.3     1  UNL1       -0.2964
     30 C          -3.9128    0.7963   -0.2336 C.3     1  UNL1       -0.0007
     31 C          -4.8778    1.8545    0.2916 C.3     1  UNL1       -0.0390
     32 C          -6.1142    1.1410    0.7486 C.3     1  UNL1       -0.0390
     33 C          -5.8293   -0.2761    0.3719 C.3     1  UNL1       -0.0007
     34 H          -3.6749   -1.8734    0.1523 H       1  UNL1        0.0493
     35 H          -5.8741   -2.7471   -0.2364 H       1  UNL1        0.0246
     36 H          -4.8121   -3.4656   -1.5398 H       1  UNL1        0.0246
     37 H          -5.8803   -2.0557   -1.9085 H       1  UNL1        0.0246
     38 H          -3.7771   -1.2883   -2.8999 H       1  UNL1        0.0712
     39 H          -2.8132   -2.5640   -2.1561 H       1  UNL1        0.0712
     40 H          -0.4734    1.2590   -2.2048 H       1  UNL1        0.0654
     41 H           1.4619    1.7471   -0.8935 H       1  UNL1        0.0623
     42 H           0.6613   -1.5485    1.6468 H       1  UNL1        0.0623
     43 H          -1.3477   -2.0854    0.3051 H       1  UNL1        0.0654
     44 H           2.2618    0.0112    2.2703 H       1  UNL1        0.0799
     45 H           4.4256   -0.0342    1.5936 H       1  UNL1        0.0504
     46 H           2.3537   -1.4506   -1.2889 H       1  UNL1        0.0622
     47 H           2.1807   -3.8026   -1.7479 H       1  UNL1        0.0654
     48 H           3.8545   -6.1729   -1.0255 H       1  UNL1        0.2921
     49 H           4.6491   -4.5621    1.7066 H       1  UNL1        0.0654
     50 H           4.7674   -2.1945    2.0970 H       1  UNL1        0.0622
     51 H           5.5539    3.4004   -1.3482 H       1  UNL1        0.0666
     52 H           6.1240    6.4624   -0.1208 H       1  UNL1        0.2921
     53 H           3.6964    6.2026    1.1618 H       1  UNL1        0.0655
     54 H           2.3276    4.4129    2.1655 H       1  UNL1        0.0656
     55 H          -3.2389    0.5446    0.5895 H       1  UNL1        0.0427
     56 H          -3.3961    1.1809   -1.1492 H       1  UNL1        0.0427
     57 H          -5.1099    2.5297   -0.5426 H       1  UNL1        0.0278
     58 H          -4.4429    2.4136    1.1227 H       1  UNL1        0.0278
     59 H          -7.0253    1.5248    0.2085 H       1  UNL1        0.0278
     60 H          -6.3011    1.2929    1.8423 H       1  UNL1        0.0278
     61 H          -6.7431   -0.7040   -0.0998 H       1  UNL1        0.0427
     62 H          -5.5884   -0.9121    1.2494 H       1  UNL1        0.0427
@<TRIPOS>BOND
     1     1     2    1
     2     1     3    1
     3     3     4    1
     4     4     5    1
     5     5     6   ar
     6     6     7   ar
     7     7     8   ar
     8     8     9   ar
     9     9    10   ar
    10     8    11    1
    11    11    12    1
    12    12    13    1
    13    13    14   ar
    14    14    15    1
    15    15    16    1
    16    16    17    1
    17    17    18   ar
    18    18    19   ar
    19    19    20   ar
    20    20    21    1
    21    20    22   ar
    22    22    23   ar
    23    14    24   ar
    24    24    25   ar
    25    25    26    1
    26    25    27   ar
    27    27    28   ar
    28     1    29    1
    29    29    30    1
    30    30    31    1
    31    31    32    1
    32    32    33    1
    33    10     5   ar
    34    16    11    1
    35    23    17   ar
    36    33    29    1
    37    28    13   ar
    38     1    34    1
    39     2    35    1
    40     2    36    1
    41     2    37    1
    42     3    38    1
    43     3    39    1
    44     6    40    1
    45     7    41    1
    46     9    42    1
    47    10    43    1
    48    11    44    1
    49    16    45    1
    50    18    46    1
    51    19    47    1
    52    21    48    1
    53    22    49    1
    54    23    50    1
    55    24    51    1
    56    26    52    1
    57    27    53    1
    58    28    54    1
    59    30    55    1
    60    30    56    1
    61    31    57    1
    62    31    58    1
    63    32    59    1
    64    32    60    1
    65    33    61    1
    66    33    62    1
