
     RDKit          3D

 42 43  0  0  0  0  0  0  0  0999 V2000
   -4.3846    1.5031    1.3494 C   0  0  0  0  0  0  0  0  0  0  0  0
   -4.4747    0.7874    0.0304 C   0  0  1  0  0  0  0  0  0  0  0  0
   -3.4312   -0.2112   -0.1434 N   0  0  0  0  0  0  0  0  0  0  0  0
   -2.1382    0.4217   -0.1403 C   0  0  0  0  0  0  0  0  0  0  0  0
   -1.0369   -0.5253   -0.3583 C   0  0  0  0  0  0  0  0  0  0  0  0
    0.2701   -0.0557   -0.2287 C   0  0  0  0  0  0  0  0  0  0  0  0
    1.3673   -0.8812   -0.4104 C   0  0  0  0  0  0  0  0  0  0  0  0
    2.7210   -0.3425   -0.2577 C   0  0  2  0  0  0  0  0  0  0  0  0
    3.4127   -0.4436   -1.6081 C   0  0  0  0  0  0  0  0  0  0  0  0
    3.5670   -1.0617    0.7440 C   0  0  0  0  0  0  0  0  0  0  0  0
    4.9780   -0.5481    0.8111 C   0  0  0  0  0  0  0  0  0  0  0  0
    5.1385    1.2076    0.5249 S   0  0  0  0  0  0  0  0  0  0  0  0
    3.4805    1.8698    0.4060 C   0  0  0  0  0  0  0  0  0  0  0  0
    3.3063    3.2362    0.7051 N   0  0  0  0  0  0  0  0  0  0  0  0
    2.5691    1.0696    0.0587 N   0  0  0  0  0  0  0  0  0  0  0  0
    1.0995   -2.1917   -0.7261 C   0  0  0  0  0  0  0  0  0  0  0  0
    2.1468   -3.0117   -0.9160 F   0  0  0  0  0  0  0  0  0  0  0  0
   -0.2079   -2.6722   -0.8584 C   0  0  0  0  0  0  0  0  0  0  0  0
   -1.2912   -1.8398   -0.6750 C   0  0  0  0  0  0  0  0  0  0  0  0
   -2.5574   -2.3318   -0.8186 F   0  0  0  0  0  0  0  0  0  0  0  0
   -5.8029    0.0815   -0.1104 C   0  0  0  0  0  0  0  0  0  0  0  0
   -6.0131   -0.8517    0.8652 F   0  0  0  0  0  0  0  0  0  0  0  0
   -6.8211    1.0308   -0.0836 F   0  0  0  0  0  0  0  0  0  0  0  0
   -5.8339   -0.6009   -1.3329 F   0  0  0  0  0  0  0  0  0  0  0  0
   -4.2963    0.7223    2.1352 H   0  0  0  0  0  0  0  0  0  0  0  0
   -5.3463    2.0698    1.4641 H   0  0  0  0  0  0  0  0  0  0  0  0
   -3.5293    2.1921    1.3125 H   0  0  0  0  0  0  0  0  0  0  0  0
   -4.4007    1.5074   -0.8262 H   0  0  0  0  0  0  0  0  0  0  0  0
   -3.4572   -0.9049    0.6515 H   0  0  0  0  0  0  0  0  0  0  0  0
   -2.0822    1.1684   -0.9826 H   0  0  0  0  0  0  0  0  0  0  0  0
   -1.9948    0.9494    0.8380 H   0  0  0  0  0  0  0  0  0  0  0  0
    0.4127    1.0073    0.0266 H   0  0  0  0  0  0  0  0  0  0  0  0
    2.9516    0.3772   -2.2321 H   0  0  0  0  0  0  0  0  0  0  0  0
    3.2174   -1.3966   -2.1208 H   0  0  0  0  0  0  0  0  0  0  0  0
    4.4874   -0.1883   -1.5098 H   0  0  0  0  0  0  0  0  0  0  0  0
    3.6752   -2.1115    0.4116 H   0  0  0  0  0  0  0  0  0  0  0  0
    3.1371   -0.9818    1.7684 H   0  0  0  0  0  0  0  0  0  0  0  0
    5.6546   -1.0788    0.0801 H   0  0  0  0  0  0  0  0  0  0  0  0
    5.3974   -0.7826    1.8111 H   0  0  0  0  0  0  0  0  0  0  0  0
    3.5005    3.6772    1.6289 H   0  0  0  0  0  0  0  0  0  0  0  0
    2.9562    3.8607   -0.0525 H   0  0  0  0  0  0  0  0  0  0  0  0
   -0.3469   -3.7261   -1.1105 H   0  0  0  0  0  0  0  0  0  0  0  0
  1  2  1  0
  2  3  1  0
  3  4  1  0
  4  5  1  0
  5  6  2  0
  6  7  1  0
  7  8  1  0
  8  9  1  6
  8 10  1  0
 10 11  1  0
 11 12  1  0
 12 13  1  0
 13 14  1  0
 13 15  2  0
  7 16  2  0
 16 17  1  0
 16 18  1  0
 18 19  2  0
 19 20  1  0
  2 21  1  0
 21 22  1  0
 21 23  1  0
 21 24  1  0
 19  5  1  0
 15  8  1  0
  1 25  1  0
  1 26  1  0
  1 27  1  0
  2 28  1  6
  3 29  1  0
  4 30  1  0
  4 31  1  0
  6 32  1  0
  9 33  1  0
  9 34  1  0
  9 35  1  0
 10 36  1  0
 10 37  1  0
 11 38  1  0
 11 39  1  0
 14 40  1  0
 14 41  1  0
 18 42  1  0
M  END
$$$$
