@<TRIPOS>MOLECULE
*****
 42 43 0 0 0
SMALL
GASTEIGER

@<TRIPOS>ATOM
      1 C          -4.3846    1.5031    1.3494 C.3     1  UNL1       -0.0413
      2 C          -4.4747    0.7874    0.0304 C.3     1  UNL1        0.1011
      3 N          -3.4312   -0.2112   -0.1434 N.3     1  UNL1       -0.3020
      4 C          -2.1382    0.4217   -0.1403 C.3     1  UNL1        0.0245
      5 C          -1.0369   -0.5253   -0.3583 C.ar    1  UNL1        0.0021
      6 C           0.2701   -0.0557   -0.2287 C.ar    1  UNL1       -0.0464
      7 C           1.3673   -0.8812   -0.4104 C.ar    1  UNL1        0.0154
      8 C           2.7210   -0.3425   -0.2577 C.3     1  UNL1        0.0897
      9 C           3.4127   -0.4436   -1.6081 C.3     1  UNL1       -0.0354
     10 C           3.5670   -1.0617    0.7440 C.3     1  UNL1       -0.0142
     11 C           4.9780   -0.5481    0.8111 C.3     1  UNL1        0.0034
     12 S           5.1385    1.2076    0.5249 S.3     1  UNL1       -0.0910
     13 C           3.4805    1.8698    0.4060 C.2     1  UNL1        0.1475
     14 N           3.3063    3.2362    0.7051 N.pl3   1  UNL1       -0.3380
     15 N           2.5691    1.0696    0.0587 N.2     1  UNL1       -0.2524
     16 C           1.0995   -2.1917   -0.7261 C.ar    1  UNL1        0.1316
     17 F           2.1468   -3.0117   -0.9160 F       1  UNL1       -0.2050
     18 C          -0.2079   -2.6722   -0.8584 C.ar    1  UNL1        0.0095
     19 C          -1.2912   -1.8398   -0.6750 C.ar    1  UNL1        0.1305
     20 F          -2.5574   -2.3318   -0.8186 F       1  UNL1       -0.2051
     21 C          -5.8029    0.0815   -0.1104 C.3     1  UNL1        0.4046
     22 F          -6.0131   -0.8517    0.8652 F       1  UNL1       -0.1690
     23 F          -6.8211    1.0308   -0.0836 F       1  UNL1       -0.1690
     24 F          -5.8339   -0.6009   -1.3329 F       1  UNL1       -0.1690
     25 H          -4.2963    0.7223    2.1352 H       1  UNL1        0.0247
     26 H          -5.3463    2.0698    1.4641 H       1  UNL1        0.0247
     27 H          -3.5293    2.1921    1.3125 H       1  UNL1        0.0247
     28 H          -4.4007    1.5074   -0.8262 H       1  UNL1        0.0546
     29 H          -3.4572   -0.9049    0.6515 H       1  UNL1        0.1228
     30 H          -2.0822    1.1684   -0.9826 H       1  UNL1        0.0474
     31 H          -1.9948    0.9494    0.8380 H       1  UNL1        0.0474
     32 H           0.4127    1.0073    0.0266 H       1  UNL1        0.0626
     33 H           2.9516    0.3772   -2.2321 H       1  UNL1        0.0256
     34 H           3.2174   -1.3966   -2.1208 H       1  UNL1        0.0256
     35 H           4.4874   -0.1883   -1.5098 H       1  UNL1        0.0256
     36 H           3.6752   -2.1115    0.4116 H       1  UNL1        0.0300
     37 H           3.1371   -0.9818    1.7684 H       1  UNL1        0.0300
     38 H           5.6546   -1.0788    0.0801 H       1  UNL1        0.0381
     39 H           5.3974   -0.7826    1.8111 H       1  UNL1        0.0381
     40 H           3.5005    3.6772    1.6289 H       1  UNL1        0.1442
     41 H           2.9562    3.8607   -0.0525 H       1  UNL1        0.1442
     42 H          -0.3469   -3.7261   -1.1105 H       1  UNL1        0.0675
@<TRIPOS>BOND
     1     1     2    1
     2     2     3    1
     3     3     4    1
     4     4     5    1
     5     5     6   ar
     6     6     7   ar
     7     7     8    1
     8     8     9    1
     9     8    10    1
    10    10    11    1
    11    11    12    1
    12    12    13    1
    13    13    14    1
    14    13    15    2
    15     7    16   ar
    16    16    17    1
    17    16    18   ar
    18    18    19   ar
    19    19    20    1
    20     2    21    1
    21    21    22    1
    22    21    23    1
    23    21    24    1
    24    19     5   ar
    25    15     8    1
    26     1    25    1
    27     1    26    1
    28     1    27    1
    29     2    28    1
    30     3    29    1
    31     4    30    1
    32     4    31    1
    33     6    32    1
    34     9    33    1
    35     9    34    1
    36     9    35    1
    37    10    36    1
    38    10    37    1
    39    11    38    1
    40    11    39    1
    41    14    40    1
    42    14    41    1
    43    18    42    1
