@<TRIPOS>MOLECULE
*****
 48 51 0 0 0
SMALL
GASTEIGER

@<TRIPOS>ATOM
      1 C          -5.6612    1.2648    0.7579 C.3     1  UNL1       -0.0111
      2 N          -4.6227    0.3010    0.7603 N.3     1  UNL1       -0.2867
      3 C          -4.8371   -0.8440   -0.0560 C.3     1  UNL1        0.0012
      4 C          -3.4934   -1.3744   -0.4486 C.3     1  UNL1       -0.0277
      5 C          -2.5379   -0.5422    0.3590 C.3     1  UNL1        0.0279
      6 C          -2.1683   -1.1987    1.6689 C.3     1  UNL1       -0.0525
      7 C          -1.3702   -0.0990   -0.4059 C.ar    1  UNL1       -0.0139
      8 C          -0.1321   -0.7090   -0.6455 C.ar    1  UNL1       -0.0136
      9 C           0.8097   -0.0856   -1.4103 C.ar    1  UNL1        0.1336
     10 O           2.0196   -0.6871   -1.6415 O.3     1  UNL1       -0.4113
     11 C           3.0743   -0.4523   -0.7615 C.2     1  UNL1        0.4099
     12 O           2.8738    0.2878    0.1892 O.2     1  UNL1       -0.2257
     13 N           4.3130   -1.0733   -1.0056 N.am    1  UNL1       -0.2508
     14 C           5.4450   -0.9098   -0.1872 C.ar    1  UNL1        0.0365
     15 C           5.5314   -0.1505    0.9390 C.ar    1  UNL1       -0.0404
     16 C           6.7067   -0.0485    1.6921 C.ar    1  UNL1       -0.0600
     17 C           7.8322   -0.7267    1.3081 C.ar    1  UNL1       -0.0616
     18 C           7.7799   -1.5024    0.1762 C.ar    1  UNL1       -0.0600
     19 C           6.6138   -1.5892   -0.5506 C.ar    1  UNL1       -0.0404
     20 C           0.5386    1.1446   -1.9454 C.ar    1  UNL1       -0.0174
     21 C          -0.6999    1.7558   -1.7061 C.ar    1  UNL1       -0.0369
     22 C          -1.6644    1.1311   -0.9301 C.ar    1  UNL1        0.0347
     23 N          -2.9827    1.5276   -0.5333 N.pl3   1  UNL1       -0.3162
     24 C          -3.7772    2.5204   -1.2074 C.3     1  UNL1        0.0022
     25 C          -3.2910    0.7482    0.6165 C.3     1  UNL1        0.0860
     26 H          -6.0384    1.5086   -0.2628 H       1  UNL1        0.0391
     27 H          -5.4051    2.1342    1.3622 H       1  UNL1        0.0391
     28 H          -6.5531    0.7935    1.2696 H       1  UNL1        0.0391
     29 H          -5.3710   -1.6194    0.5558 H       1  UNL1        0.0427
     30 H          -5.4645   -0.5863   -0.9346 H       1  UNL1        0.0427
     31 H          -3.4229   -2.4571   -0.2205 H       1  UNL1        0.0287
     32 H          -3.3522   -1.1985   -1.5314 H       1  UNL1        0.0287
     33 H          -3.1085   -1.4908    2.1626 H       1  UNL1        0.0239
     34 H          -1.5427   -2.0872    1.4389 H       1  UNL1        0.0239
     35 H          -1.5892   -0.4505    2.2498 H       1  UNL1        0.0239
     36 H           0.0925   -1.6769   -0.2297 H       1  UNL1        0.0658
     37 H           4.3783   -1.7102   -1.8791 H       1  UNL1        0.1582
     38 H           4.7089    0.4204    1.3268 H       1  UNL1        0.0636
     39 H           6.7547    0.5600    2.5837 H       1  UNL1        0.0618
     40 H           8.7439   -0.6469    1.8932 H       1  UNL1        0.0618
     41 H           8.6872   -2.0238   -0.0973 H       1  UNL1        0.0618
     42 H           6.6181   -2.2104   -1.4331 H       1  UNL1        0.0636
     43 H           1.2491    1.6981   -2.5670 H       1  UNL1        0.0655
     44 H          -0.9039    2.7283   -2.1338 H       1  UNL1        0.0637
     45 H          -4.3383    3.1830   -0.5106 H       1  UNL1        0.0428
     46 H          -4.4514    2.0532   -1.9750 H       1  UNL1        0.0428
     47 H          -3.1415    3.2288   -1.8105 H       1  UNL1        0.0428
     48 H          -2.8497    1.1613    1.5582 H       1  UNL1        0.0680
@<TRIPOS>BOND
     1     1     2    1
     2     2     3    1
     3     3     4    1
     4     4     5    1
     5     5     6    1
     6     5     7    1
     7     7     8   ar
     8     8     9   ar
     9     9    10    1
    10    10    11    1
    11    11    12    2
    12    11    13   am
    13    13    14    1
    14    14    15   ar
    15    15    16   ar
    16    16    17   ar
    17    17    18   ar
    18    18    19   ar
    19     9    20   ar
    20    20    21   ar
    21    21    22   ar
    22    22    23    1
    23    23    24    1
    24    23    25    1
    25    25     2    1
    26    25     5    1
    27    22     7   ar
    28    19    14   ar
    29     1    26    1
    30     1    27    1
    31     1    28    1
    32     3    29    1
    33     3    30    1
    34     4    31    1
    35     4    32    1
    36     6    33    1
    37     6    34    1
    38     6    35    1
    39     8    36    1
    40    13    37    1
    41    15    38    1
    42    16    39    1
    43    17    40    1
    44    18    41    1
    45    19    42    1
    46    20    43    1
    47    21    44    1
    48    24    45    1
    49    24    46    1
    50    24    47    1
    51    25    48    1
