
     RDKit          3D

 48 51  0  0  0  0  0  0  0  0999 V2000
   -5.6612    1.2648    0.7579 C   0  0  0  0  0  0  0  0  0  0  0  0
   -4.6227    0.3010    0.7603 N   0  0  0  0  0  0  0  0  0  0  0  0
   -4.8371   -0.8440   -0.0560 C   0  0  0  0  0  0  0  0  0  0  0  0
   -3.4934   -1.3744   -0.4486 C   0  0  0  0  0  0  0  0  0  0  0  0
   -2.5379   -0.5422    0.3590 C   0  0  1  0  0  0  0  0  0  0  0  0
   -2.1683   -1.1987    1.6689 C   0  0  0  0  0  0  0  0  0  0  0  0
   -1.3702   -0.0990   -0.4059 C   0  0  0  0  0  0  0  0  0  0  0  0
   -0.1321   -0.7090   -0.6455 C   0  0  0  0  0  0  0  0  0  0  0  0
    0.8097   -0.0856   -1.4103 C   0  0  0  0  0  0  0  0  0  0  0  0
    2.0196   -0.6871   -1.6415 O   0  0  0  0  0  0  0  0  0  0  0  0
    3.0743   -0.4523   -0.7615 C   0  0  0  0  0  0  0  0  0  0  0  0
    2.8738    0.2878    0.1892 O   0  0  0  0  0  0  0  0  0  0  0  0
    4.3130   -1.0733   -1.0056 N   0  0  0  0  0  0  0  0  0  0  0  0
    5.4450   -0.9098   -0.1872 C   0  0  0  0  0  0  0  0  0  0  0  0
    5.5314   -0.1505    0.9390 C   0  0  0  0  0  0  0  0  0  0  0  0
    6.7067   -0.0485    1.6921 C   0  0  0  0  0  0  0  0  0  0  0  0
    7.8322   -0.7267    1.3081 C   0  0  0  0  0  0  0  0  0  0  0  0
    7.7799   -1.5024    0.1762 C   0  0  0  0  0  0  0  0  0  0  0  0
    6.6138   -1.5892   -0.5506 C   0  0  0  0  0  0  0  0  0  0  0  0
    0.5386    1.1446   -1.9454 C   0  0  0  0  0  0  0  0  0  0  0  0
   -0.6999    1.7558   -1.7061 C   0  0  0  0  0  0  0  0  0  0  0  0
   -1.6644    1.1311   -0.9301 C   0  0  0  0  0  0  0  0  0  0  0  0
   -2.9827    1.5276   -0.5333 N   0  0  0  0  0  0  0  0  0  0  0  0
   -3.7772    2.5204   -1.2074 C   0  0  0  0  0  0  0  0  0  0  0  0
   -3.2910    0.7482    0.6165 C   0  0  0  0  0  0  0  0  0  0  0  0
   -6.0384    1.5086   -0.2628 H   0  0  0  0  0  0  0  0  0  0  0  0
   -5.4051    2.1342    1.3622 H   0  0  0  0  0  0  0  0  0  0  0  0
   -6.5531    0.7935    1.2696 H   0  0  0  0  0  0  0  0  0  0  0  0
   -5.3710   -1.6194    0.5558 H   0  0  0  0  0  0  0  0  0  0  0  0
   -5.4645   -0.5863   -0.9346 H   0  0  0  0  0  0  0  0  0  0  0  0
   -3.4229   -2.4571   -0.2205 H   0  0  0  0  0  0  0  0  0  0  0  0
   -3.3522   -1.1985   -1.5314 H   0  0  0  0  0  0  0  0  0  0  0  0
   -3.1085   -1.4908    2.1626 H   0  0  0  0  0  0  0  0  0  0  0  0
   -1.5427   -2.0872    1.4389 H   0  0  0  0  0  0  0  0  0  0  0  0
   -1.5892   -0.4505    2.2498 H   0  0  0  0  0  0  0  0  0  0  0  0
    0.0925   -1.6769   -0.2297 H   0  0  0  0  0  0  0  0  0  0  0  0
    4.3783   -1.7102   -1.8791 H   0  0  0  0  0  0  0  0  0  0  0  0
    4.7089    0.4204    1.3268 H   0  0  0  0  0  0  0  0  0  0  0  0
    6.7547    0.5600    2.5837 H   0  0  0  0  0  0  0  0  0  0  0  0
    8.7439   -0.6469    1.8932 H   0  0  0  0  0  0  0  0  0  0  0  0
    8.6872   -2.0238   -0.0973 H   0  0  0  0  0  0  0  0  0  0  0  0
    6.6181   -2.2104   -1.4331 H   0  0  0  0  0  0  0  0  0  0  0  0
    1.2491    1.6981   -2.5670 H   0  0  0  0  0  0  0  0  0  0  0  0
   -0.9039    2.7283   -2.1338 H   0  0  0  0  0  0  0  0  0  0  0  0
   -4.3383    3.1830   -0.5106 H   0  0  0  0  0  0  0  0  0  0  0  0
   -4.4514    2.0532   -1.9750 H   0  0  0  0  0  0  0  0  0  0  0  0
   -3.1415    3.2288   -1.8105 H   0  0  0  0  0  0  0  0  0  0  0  0
   -2.8497    1.1613    1.5582 H   0  0  0  0  0  0  0  0  0  0  0  0
  1  2  1  0
  2  3  1  0
  3  4  1  0
  4  5  1  0
  5  6  1  1
  5  7  1  0
  7  8  2  0
  8  9  1  0
  9 10  1  0
 10 11  1  0
 11 12  2  0
 11 13  1  0
 13 14  1  0
 14 15  2  0
 15 16  1  0
 16 17  2  0
 17 18  1  0
 18 19  2  0
  9 20  2  0
 20 21  1  0
 21 22  2  0
 22 23  1  0
 23 24  1  0
 23 25  1  0
 25  2  1  0
 25  5  1  0
 22  7  1  0
 19 14  1  0
  1 26  1  0
  1 27  1  0
  1 28  1  0
  3 29  1  0
  3 30  1  0
  4 31  1  0
  4 32  1  0
  6 33  1  0
  6 34  1  0
  6 35  1  0
  8 36  1  0
 13 37  1  0
 15 38  1  0
 16 39  1  0
 17 40  1  0
 18 41  1  0
 19 42  1  0
 20 43  1  0
 21 44  1  0
 24 45  1  0
 24 46  1  0
 24 47  1  0
 25 48  1  0
M  END
$$$$
