@<TRIPOS>MOLECULE
*****
 43 45 0 0 0
SMALL
GASTEIGER

@<TRIPOS>ATOM
      1 C          -2.3723    3.2370   -2.2771 C.3     1  UNL1        0.0790
      2 O          -2.2667    2.1073   -1.4450 O.3     1  UNL1       -0.4915
      3 C          -1.0091    1.6098   -1.1466 C.ar    1  UNL1        0.1616
      4 C           0.1287    2.2301   -1.6704 C.ar    1  UNL1       -0.0156
      5 C           1.4068    1.8023   -1.4248 C.ar    1  UNL1       -0.0459
      6 C           1.6163    0.6830   -0.6063 C.ar    1  UNL1        0.0407
      7 C           2.9841    0.2344   -0.3501 C.2     1  UNL1        0.2484
      8 O           3.9755    0.8482   -0.8605 O.2     1  UNL1       -0.2698
      9 N           3.2049   -0.8903    0.4711 N.am    1  UNL1       -0.2790
     10 C           4.5590   -1.3006    0.6996 C.ar    1  UNL1        0.0736
     11 C           5.1333   -2.2084   -0.1623 C.ar    1  UNL1        0.0816
     12 CL          4.3006   -2.8994   -1.5358 Cl      1  UNL1       -0.0800
     13 C           6.4346   -2.5974    0.0642 C.ar    1  UNL1        0.0478
     14 N           7.0935   -2.0797    1.1130 N.ar    1  UNL1       -0.2602
     15 C           6.5517   -1.1947    1.9635 C.ar    1  UNL1        0.0478
     16 C           5.2492   -0.7783    1.7721 C.ar    1  UNL1        0.0816
     17 CL          4.5467    0.3761    2.8841 Cl      1  UNL1       -0.0800
     18 C           0.5164    0.0733   -0.0924 C.ar    1  UNL1       -0.0042
     19 C          -0.8071    0.5088   -0.3412 C.ar    1  UNL1        0.1630
     20 O          -1.8352   -0.1717    0.2212 O.3     1  UNL1       -0.4851
     21 C          -3.1883   -0.0794    0.2286 C.3     1  UNL1        0.1004
     22 C          -3.7394    0.1165    1.6482 C.3     1  UNL1       -0.0158
     23 C          -5.1954   -0.2938    1.4987 C.3     1  UNL1       -0.0496
     24 C          -5.1631   -1.4570    0.5283 C.3     1  UNL1       -0.0496
     25 C          -3.8783   -1.3645   -0.2306 C.3     1  UNL1       -0.0158
     26 H          -1.7905    4.1065   -1.8685 H       1  UNL1        0.0660
     27 H          -3.4020    3.5034   -2.5274 H       1  UNL1        0.0660
     28 H          -1.8698    2.9987   -3.2598 H       1  UNL1        0.0660
     29 H          -0.0674    3.1089   -2.3113 H       1  UNL1        0.0655
     30 H           2.2665    2.3010   -1.8429 H       1  UNL1        0.0626
     31 H           2.4340   -1.4325    0.9160 H       1  UNL1        0.1552
     32 H           6.9354   -3.3122   -0.5872 H       1  UNL1        0.0845
     33 H           7.1664   -0.8343    2.7819 H       1  UNL1        0.0845
     34 H           0.6142   -0.8050    0.5536 H       1  UNL1        0.0663
     35 H          -3.6242    0.7396   -0.3548 H       1  UNL1        0.0733
     36 H          -3.7305    1.1791    1.9439 H       1  UNL1        0.0301
     37 H          -3.2653   -0.5628    2.3685 H       1  UNL1        0.0301
     38 H          -5.6287   -0.6427    2.4536 H       1  UNL1        0.0266
     39 H          -5.8225    0.5364    1.1222 H       1  UNL1        0.0266
     40 H          -6.0644   -1.4969   -0.1121 H       1  UNL1        0.0266
     41 H          -5.1841   -2.4100    1.1254 H       1  UNL1        0.0266
     42 H          -4.0271   -1.2824   -1.3407 H       1  UNL1        0.0301
     43 H          -3.1866   -2.2063   -0.0100 H       1  UNL1        0.0301
@<TRIPOS>BOND
     1     1     2    1
     2     2     3    1
     3     3     4   ar
     4     4     5   ar
     5     5     6   ar
     6     6     7    1
     7     7     8    2
     8     7     9   am
     9     9    10    1
    10    10    11   ar
    11    11    12    1
    12    11    13   ar
    13    13    14   ar
    14    14    15   ar
    15    15    16   ar
    16    16    17    1
    17     6    18   ar
    18    18    19   ar
    19    19    20    1
    20    20    21    1
    21    21    22    1
    22    22    23    1
    23    23    24    1
    24    24    25    1
    25    19     3   ar
    26    25    21    1
    27    16    10   ar
    28     1    26    1
    29     1    27    1
    30     1    28    1
    31     4    29    1
    32     5    30    1
    33     9    31    1
    34    13    32    1
    35    15    33    1
    36    18    34    1
    37    21    35    1
    38    22    36    1
    39    22    37    1
    40    23    38    1
    41    23    39    1
    42    24    40    1
    43    24    41    1
    44    25    42    1
    45    25    43    1
