@<TRIPOS>MOLECULE
*****
 58 60 0 0 0
SMALL
GASTEIGER

@<TRIPOS>ATOM
      1 C         -11.7411    1.0915    0.3888 C.3     1  UNL1       -0.0209
      2 C         -10.2883    0.8002    0.3188 C.ar    1  UNL1        0.0563
      3 N          -9.8358   -0.3989    0.7454 N.ar    1  UNL1       -0.2564
      4 C          -8.5128   -0.6433    0.6733 C.ar    1  UNL1        0.0583
      5 C          -7.6022    0.2939    0.1764 C.ar    1  UNL1        0.1433
      6 N          -8.0892    1.4776   -0.2396 N.ar    1  UNL1       -0.2471
      7 C          -9.4068    1.7395   -0.1752 C.ar    1  UNL1        0.0494
      8 C          -6.2147   -0.1506    0.1769 C.2     1  UNL1        0.2639
      9 O          -5.8124   -1.2914    0.5864 O.2     1  UNL1       -0.2685
     10 N          -5.1243    0.6380   -0.2832 N.am    1  UNL1       -0.3097
     11 C          -3.8730   -0.0834   -0.1530 C.3     1  UNL1        0.0159
     12 C          -2.7002    0.7333   -0.6351 C.3     1  UNL1       -0.0120
     13 C          -1.4895   -0.1402   -0.4381 C.ar    1  UNL1       -0.0458
     14 C          -1.1067   -0.9727   -1.4698 C.ar    1  UNL1       -0.0567
     15 C           0.0140   -1.7693   -1.2639 C.ar    1  UNL1       -0.0348
     16 C           0.7064   -1.7091   -0.0504 C.ar    1  UNL1        0.1086
     17 C           0.3195   -0.8745    0.9786 C.ar    1  UNL1       -0.0348
     18 C          -0.7944   -0.0874    0.7649 C.ar    1  UNL1       -0.0567
     19 S           2.0901   -2.7835    0.0250 S.O2    1  UNL1        0.0756
     20 O           1.8037   -4.0519   -0.7316 O.2     1  UNL1       -0.1499
     21 O           2.2854   -3.1115    1.4923 O.2     1  UNL1       -0.1499
     22 N           3.5341   -2.0197   -0.5373 N.am    1  UNL1       -0.1693
     23 C           4.3683   -1.3175    0.3698 C.2     1  UNL1        0.3191
     24 O           4.1554   -1.1891    1.5902 O.2     1  UNL1       -0.2512
     25 N           5.5154   -0.7432   -0.2298 N.am    1  UNL1       -0.2953
     26 C           6.5495    0.0319    0.4449 C.3     1  UNL1        0.0246
     27 C           7.8624   -0.6514    0.2016 C.3     1  UNL1       -0.0345
     28 C           8.9658    0.3586    0.2363 C.3     1  UNL1       -0.0514
     29 C           8.6312    1.5480    1.1248 C.3     1  UNL1       -0.0529
     30 C           7.5400    2.3298    0.4552 C.3     1  UNL1       -0.0514
     31 C           6.5235    1.4234   -0.1722 C.3     1  UNL1       -0.0345
     32 H         -12.2685    0.8914   -0.5460 H       1  UNL1        0.0293
     33 H         -12.1574    0.5054    1.2509 H       1  UNL1        0.0293
     34 H         -11.8153    2.1823    0.6217 H       1  UNL1        0.0293
     35 H          -8.1906   -1.6273    1.0297 H       1  UNL1        0.0853
     36 H          -9.7231    2.7123   -0.5278 H       1  UNL1        0.0848
     37 H          -5.3316    1.6143   -0.6514 H       1  UNL1        0.1491
     38 H          -3.9442   -0.9866   -0.8213 H       1  UNL1        0.0465
     39 H          -3.6615   -0.3969    0.8783 H       1  UNL1        0.0465
     40 H          -2.5434    1.6157    0.0272 H       1  UNL1        0.0328
     41 H          -2.7955    1.0222   -1.7087 H       1  UNL1        0.0328
     42 H          -1.6902   -0.9633   -2.3739 H       1  UNL1        0.0621
     43 H           0.2870   -2.4049   -2.0818 H       1  UNL1        0.0637
     44 H           0.9103   -0.8971    1.8684 H       1  UNL1        0.0637
     45 H          -1.1063    0.5783    1.5807 H       1  UNL1        0.0621
     46 H           3.7248   -2.1195   -1.5586 H       1  UNL1        0.1781
     47 H           5.7802   -0.7966   -1.2455 H       1  UNL1        0.1506
     48 H           6.2985    0.1103    1.5389 H       1  UNL1        0.0499
     49 H           7.9663   -1.4303    1.0059 H       1  UNL1        0.0283
     50 H           7.8056   -1.2115   -0.7348 H       1  UNL1        0.0283
     51 H           9.1214    0.7613   -0.7880 H       1  UNL1        0.0266
     52 H           9.8846   -0.1332    0.6039 H       1  UNL1        0.0266
     53 H           9.5508    2.1539    1.2318 H       1  UNL1        0.0265
     54 H           8.3146    1.2636    2.1348 H       1  UNL1        0.0265
     55 H           7.0177    2.9885    1.2014 H       1  UNL1        0.0266
     56 H           8.0274    2.9886   -0.3184 H       1  UNL1        0.0266
     57 H           6.7784    1.2867   -1.2610 H       1  UNL1        0.0283
     58 H           5.4872    1.8151   -0.0908 H       1  UNL1        0.0283
@<TRIPOS>BOND
     1     1     2    1
     2     2     3   ar
     3     3     4   ar
     4     4     5   ar
     5     5     6   ar
     6     6     7   ar
     7     5     8    1
     8     8     9    2
     9     8    10   am
    10    10    11    1
    11    11    12    1
    12    12    13    1
    13    13    14   ar
    14    14    15   ar
    15    15    16   ar
    16    16    17   ar
    17    17    18   ar
    18    16    19    1
    19    19    20    2
    20    19    21    2
    21    19    22    1
    22    22    23   am
    23    23    24    2
    24    23    25   am
    25    25    26    1
    26    26    27    1
    27    27    28    1
    28    28    29    1
    29    29    30    1
    30    30    31    1
    31     7     2   ar
    32    18    13   ar
    33    31    26    1
    34     1    32    1
    35     1    33    1
    36     1    34    1
    37     4    35    1
    38     7    36    1
    39    10    37    1
    40    11    38    1
    41    11    39    1
    42    12    40    1
    43    12    41    1
    44    14    42    1
    45    15    43    1
    46    17    44    1
    47    18    45    1
    48    22    46    1
    49    25    47    1
    50    26    48    1
    51    27    49    1
    52    27    50    1
    53    28    51    1
    54    28    52    1
    55    29    53    1
    56    29    54    1
    57    30    55    1
    58    30    56    1
    59    31    57    1
    60    31    58    1
