@<TRIPOS>MOLECULE
*****
 50 54 0 0 0
SMALL
GASTEIGER

@<TRIPOS>ATOM
      1 O           3.8801   -3.5267   -2.0147 O.2     1  UNL1       -0.2446
      2 C           2.6911   -3.1390   -1.9747 C.ar    1  UNL1        0.3489
      3 N           1.6644   -3.7530   -2.5492 N.ar    1  UNL1       -0.2260
      4 N           0.5750   -3.0208   -2.2705 N.ar    1  UNL1       -0.1509
      5 C           0.9217   -1.9622   -1.5301 C.ar    1  UNL1        0.1693
      6 C           0.0262   -0.9420   -1.0325 C.ar    1  UNL1        0.0243
      7 C           0.4030    0.3870   -1.0771 C.ar    1  UNL1       -0.0327
      8 C          -0.4803    1.3227   -0.5930 C.ar    1  UNL1        0.0304
      9 N          -1.6767    0.9788   -0.0882 N.ar    1  UNL1       -0.2405
     10 C          -2.0849   -0.2971   -0.0245 C.ar    1  UNL1        0.1195
     11 N          -3.3339   -0.6930    0.4990 N.pl3   1  UNL1       -0.3261
     12 C          -4.2760    0.2832    1.0133 C.3     1  UNL1        0.0261
     13 C          -4.6865    1.2784   -0.0417 C.3     1  UNL1       -0.0109
     14 C          -6.1776    1.2200   -0.2321 C.3     1  UNL1        0.0493
     15 O          -6.8984    1.4812    0.9185 O.3     1  UNL1       -0.3796
     16 C          -6.4606    0.7365    2.0039 C.3     1  UNL1        0.0493
     17 C          -5.5276   -0.3860    1.5319 C.3     1  UNL1       -0.0109
     18 C          -1.2295   -1.2646   -0.4991 C.ar    1  UNL1       -0.0112
     19 N           2.2383   -2.0210   -1.3365 N.ar    1  UNL1       -0.2437
     20 C           3.0183   -1.0950   -0.6052 C.ar    1  UNL1        0.0535
     21 C           2.7580   -0.8462    0.7245 C.ar    1  UNL1       -0.0370
     22 C           3.5395    0.0722    1.4306 C.ar    1  UNL1       -0.0521
     23 C           4.5727    0.7391    0.8204 C.ar    1  UNL1       -0.0178
     24 C           5.3742    1.6616    1.4899 C.ar    1  UNL1       -0.0540
     25 C           6.4022    2.3115    0.8442 C.ar    1  UNL1       -0.0612
     26 C           6.6581    2.0575   -0.4895 C.ar    1  UNL1       -0.0612
     27 C           5.8628    1.1386   -1.1641 C.ar    1  UNL1       -0.0540
     28 C           4.8378    0.4985   -0.4980 C.ar    1  UNL1       -0.0159
     29 C           4.0626   -0.4087   -1.1876 C.ar    1  UNL1       -0.0299
     30 H           1.5971   -4.6205   -3.1178 H       1  UNL1        0.1937
     31 H           1.3717    0.6398   -1.4883 H       1  UNL1        0.0640
     32 H          -0.1565    2.3700   -0.6403 H       1  UNL1        0.0830
     33 H          -3.6138   -1.6929    0.5310 H       1  UNL1        0.1477
     34 H          -3.7968    0.7780    1.8847 H       1  UNL1        0.0499
     35 H          -4.2320    0.9557   -1.0070 H       1  UNL1        0.0305
     36 H          -4.3440    2.2642    0.2796 H       1  UNL1        0.0305
     37 H          -6.4261    2.0594   -0.9412 H       1  UNL1        0.0560
     38 H          -6.5005    0.3052   -0.7665 H       1  UNL1        0.0560
     39 H          -5.8285    1.4196    2.6199 H       1  UNL1        0.0560
     40 H          -7.2649    0.2820    2.5872 H       1  UNL1        0.0560
     41 H          -6.0202   -0.9747    0.7412 H       1  UNL1        0.0305
     42 H          -5.3198   -1.0348    2.4078 H       1  UNL1        0.0305
     43 H          -1.4698   -2.3253   -0.4906 H       1  UNL1        0.0659
     44 H           1.9677   -1.3294    1.2671 H       1  UNL1        0.0638
     45 H           3.3462    0.2755    2.4706 H       1  UNL1        0.0624
     46 H           5.1737    1.8571    2.5252 H       1  UNL1        0.0624
     47 H           7.0314    3.0285    1.3496 H       1  UNL1        0.0618
     48 H           7.4614    2.5594   -1.0111 H       1  UNL1        0.0618
     49 H           6.0848    0.9573   -2.2110 H       1  UNL1        0.0624
     50 H           4.2850   -0.5855   -2.2228 H       1  UNL1        0.0644
@<TRIPOS>BOND
     1     1     2    2
     2     2     3   ar
     3     3     4   ar
     4     4     5   ar
     5     5     6    1
     6     6     7   ar
     7     7     8   ar
     8     8     9   ar
     9     9    10   ar
    10    10    11    1
    11    11    12    1
    12    12    13    1
    13    13    14    1
    14    14    15    1
    15    15    16    1
    16    16    17    1
    17    10    18   ar
    18     5    19   ar
    19    19    20    1
    20    20    21   ar
    21    21    22   ar
    22    22    23   ar
    23    23    24   ar
    24    24    25   ar
    25    25    26   ar
    26    26    27   ar
    27    27    28   ar
    28    28    29   ar
    29    19     2   ar
    30    29    20   ar
    31    18     6   ar
    32    28    23   ar
    33    17    12    1
    34     3    30    1
    35     7    31    1
    36     8    32    1
    37    11    33    1
    38    12    34    1
    39    13    35    1
    40    13    36    1
    41    14    37    1
    42    14    38    1
    43    16    39    1
    44    16    40    1
    45    17    41    1
    46    17    42    1
    47    18    43    1
    48    21    44    1
    49    22    45    1
    50    24    46    1
    51    25    47    1
    52    26    48    1
    53    27    49    1
    54    29    50    1
