
     RDKit          3D

 50 54  0  0  0  0  0  0  0  0999 V2000
    3.8801   -3.5267   -2.0147 O   0  0  0  0  0  0  0  0  0  0  0  0
    2.6911   -3.1390   -1.9747 C   0  0  0  0  0  0  0  0  0  0  0  0
    1.6644   -3.7530   -2.5492 N   0  0  0  0  0  0  0  0  0  0  0  0
    0.5750   -3.0208   -2.2705 N   0  0  0  0  0  0  0  0  0  0  0  0
    0.9217   -1.9622   -1.5301 C   0  0  0  0  0  0  0  0  0  0  0  0
    0.0262   -0.9420   -1.0325 C   0  0  0  0  0  0  0  0  0  0  0  0
    0.4030    0.3870   -1.0771 C   0  0  0  0  0  0  0  0  0  0  0  0
   -0.4803    1.3227   -0.5930 C   0  0  0  0  0  0  0  0  0  0  0  0
   -1.6767    0.9788   -0.0882 N   0  0  0  0  0  0  0  0  0  0  0  0
   -2.0849   -0.2971   -0.0245 C   0  0  0  0  0  0  0  0  0  0  0  0
   -3.3339   -0.6930    0.4990 N   0  0  0  0  0  0  0  0  0  0  0  0
   -4.2760    0.2832    1.0133 C   0  0  0  0  0  0  0  0  0  0  0  0
   -4.6865    1.2784   -0.0417 C   0  0  0  0  0  0  0  0  0  0  0  0
   -6.1776    1.2200   -0.2321 C   0  0  0  0  0  0  0  0  0  0  0  0
   -6.8984    1.4812    0.9185 O   0  0  0  0  0  0  0  0  0  0  0  0
   -6.4606    0.7365    2.0039 C   0  0  0  0  0  0  0  0  0  0  0  0
   -5.5276   -0.3860    1.5319 C   0  0  0  0  0  0  0  0  0  0  0  0
   -1.2295   -1.2646   -0.4991 C   0  0  0  0  0  0  0  0  0  0  0  0
    2.2383   -2.0210   -1.3365 N   0  0  0  0  0  0  0  0  0  0  0  0
    3.0183   -1.0950   -0.6052 C   0  0  0  0  0  0  0  0  0  0  0  0
    2.7580   -0.8462    0.7245 C   0  0  0  0  0  0  0  0  0  0  0  0
    3.5395    0.0722    1.4306 C   0  0  0  0  0  0  0  0  0  0  0  0
    4.5727    0.7391    0.8204 C   0  0  0  0  0  0  0  0  0  0  0  0
    5.3742    1.6616    1.4899 C   0  0  0  0  0  0  0  0  0  0  0  0
    6.4022    2.3115    0.8442 C   0  0  0  0  0  0  0  0  0  0  0  0
    6.6581    2.0575   -0.4895 C   0  0  0  0  0  0  0  0  0  0  0  0
    5.8628    1.1386   -1.1641 C   0  0  0  0  0  0  0  0  0  0  0  0
    4.8378    0.4985   -0.4980 C   0  0  0  0  0  0  0  0  0  0  0  0
    4.0626   -0.4087   -1.1876 C   0  0  0  0  0  0  0  0  0  0  0  0
    1.5971   -4.6205   -3.1178 H   0  0  0  0  0  0  0  0  0  0  0  0
    1.3717    0.6398   -1.4883 H   0  0  0  0  0  0  0  0  0  0  0  0
   -0.1565    2.3700   -0.6403 H   0  0  0  0  0  0  0  0  0  0  0  0
   -3.6138   -1.6929    0.5310 H   0  0  0  0  0  0  0  0  0  0  0  0
   -3.7968    0.7780    1.8847 H   0  0  0  0  0  0  0  0  0  0  0  0
   -4.2320    0.9557   -1.0070 H   0  0  0  0  0  0  0  0  0  0  0  0
   -4.3440    2.2642    0.2796 H   0  0  0  0  0  0  0  0  0  0  0  0
   -6.4261    2.0594   -0.9412 H   0  0  0  0  0  0  0  0  0  0  0  0
   -6.5005    0.3052   -0.7665 H   0  0  0  0  0  0  0  0  0  0  0  0
   -5.8285    1.4196    2.6199 H   0  0  0  0  0  0  0  0  0  0  0  0
   -7.2649    0.2820    2.5872 H   0  0  0  0  0  0  0  0  0  0  0  0
   -6.0202   -0.9747    0.7412 H   0  0  0  0  0  0  0  0  0  0  0  0
   -5.3198   -1.0348    2.4078 H   0  0  0  0  0  0  0  0  0  0  0  0
   -1.4698   -2.3253   -0.4906 H   0  0  0  0  0  0  0  0  0  0  0  0
    1.9677   -1.3294    1.2671 H   0  0  0  0  0  0  0  0  0  0  0  0
    3.3462    0.2755    2.4706 H   0  0  0  0  0  0  0  0  0  0  0  0
    5.1737    1.8571    2.5252 H   0  0  0  0  0  0  0  0  0  0  0  0
    7.0314    3.0285    1.3496 H   0  0  0  0  0  0  0  0  0  0  0  0
    7.4614    2.5594   -1.0111 H   0  0  0  0  0  0  0  0  0  0  0  0
    6.0848    0.9573   -2.2110 H   0  0  0  0  0  0  0  0  0  0  0  0
    4.2850   -0.5855   -2.2228 H   0  0  0  0  0  0  0  0  0  0  0  0
  1  2  2  0
  2  3  1  0
  3  4  1  0
  4  5  2  0
  5  6  1  0
  6  7  2  0
  7  8  1  0
  8  9  2  0
  9 10  1  0
 10 11  1  0
 11 12  1  0
 12 13  1  0
 13 14  1  0
 14 15  1  0
 15 16  1  0
 16 17  1  0
 10 18  2  0
  5 19  1  0
 19 20  1  0
 20 21  2  0
 21 22  1  0
 22 23  2  0
 23 24  1  0
 24 25  2  0
 25 26  1  0
 26 27  2  0
 27 28  1  0
 28 29  2  0
 19  2  1  0
 29 20  1  0
 18  6  1  0
 28 23  1  0
 17 12  1  0
  3 30  1  0
  7 31  1  0
  8 32  1  0
 11 33  1  0
 12 34  1  0
 13 35  1  0
 13 36  1  0
 14 37  1  0
 14 38  1  0
 16 39  1  0
 16 40  1  0
 17 41  1  0
 17 42  1  0
 18 43  1  0
 21 44  1  0
 22 45  1  0
 24 46  1  0
 25 47  1  0
 26 48  1  0
 27 49  1  0
 29 50  1  0
M  END
$$$$
