
     RDKit          3D

 63 66  0  0  0  0  0  0  0  0999 V2000
   -1.5314    2.9828   -0.1637 C   0  0  0  0  0  0  0  0  0  0  0  0
   -2.7111    3.6812    0.4016 C   0  0  0  0  0  0  0  0  0  0  0  0
   -3.5942    2.7925    1.2005 C   0  0  0  0  0  0  0  0  0  0  0  0
   -4.1431    1.6738    0.4172 C   0  0  0  0  0  0  0  0  0  0  0  0
   -5.3574    1.5805   -0.1677 N   0  0  0  0  0  0  0  0  0  0  0  0
   -5.4961    0.4384   -0.8008 N   0  0  0  0  0  0  0  0  0  0  0  0
   -6.6409   -0.0535   -1.5547 C   0  0  0  0  0  0  0  0  0  0  0  0
   -4.3343   -0.2512   -0.6305 C   0  0  0  0  0  0  0  0  0  0  0  0
   -3.9169   -1.4876   -1.0538 C   0  0  0  0  0  0  0  0  0  0  0  0
   -4.6868   -2.1842   -1.7444 O   0  0  0  0  0  0  0  0  0  0  0  0
   -2.6857   -1.9422   -0.7247 N   0  0  0  0  0  0  0  0  0  0  0  0
   -1.8435   -1.2188    0.0118 C   0  0  0  0  0  0  0  0  0  0  0  0
   -0.5196   -1.6844    0.3842 C   0  0  0  0  0  0  0  0  0  0  0  0
    0.2709   -0.8222    1.1436 C   0  0  0  0  0  0  0  0  0  0  0  0
    1.5397   -1.1122    1.5774 C   0  0  0  0  0  0  0  0  0  0  0  0
    2.4334    0.0776    2.5363 S   0  0  0  0  0  6  0  0  0  0  0  0
    1.4504    0.8823    3.3185 O   0  0  0  0  0  0  0  0  0  0  0  0
    3.3849   -0.6592    3.4279 O   0  0  0  0  0  0  0  0  0  0  0  0
    3.3008    1.0558    1.4613 N   0  0  0  0  0  0  0  0  0  0  0  0
    2.5289    1.8010    0.5361 C   0  0  0  0  0  0  0  0  0  0  0  0
    3.3151    2.2718   -0.6679 C   0  0  0  0  0  0  0  0  0  0  0  0
    4.6300    2.6405   -0.1819 N   0  0  0  0  0  0  0  0  0  0  0  0
    5.3364    3.5116   -1.0636 C   0  0  0  0  0  0  0  0  0  0  0  0
    5.4040    1.5395    0.2961 C   0  0  0  0  0  0  0  0  0  0  0  0
    4.5292    0.5276    0.9886 C   0  0  0  0  0  0  0  0  0  0  0  0
    2.0840   -2.3194    1.2556 C   0  0  0  0  0  0  0  0  0  0  0  0
    1.3493   -3.2083    0.5084 C   0  0  0  0  0  0  0  0  0  0  0  0
    0.0465   -2.8870    0.0746 C   0  0  0  0  0  0  0  0  0  0  0  0
   -0.6652   -3.7842   -0.6674 O   0  0  0  0  0  0  0  0  0  0  0  0
   -0.2381   -5.0420   -1.0480 C   0  0  0  0  0  0  0  0  0  0  0  0
    0.0106   -5.9112    0.1518 C   0  0  0  0  0  0  0  0  0  0  0  0
   -2.2488    0.0243    0.4431 N   0  0  0  0  0  0  0  0  0  0  0  0
   -3.4546    0.4954    0.1331 C   0  0  0  0  0  0  0  0  0  0  0  0
   -0.8560    3.7847   -0.5983 H   0  0  0  0  0  0  0  0  0  0  0  0
   -1.7785    2.3178   -1.0009 H   0  0  0  0  0  0  0  0  0  0  0  0
   -0.9254    2.4349    0.5970 H   0  0  0  0  0  0  0  0  0  0  0  0
   -3.2791    4.1127   -0.4602 H   0  0  0  0  0  0  0  0  0  0  0  0
   -2.3789    4.5127    1.0631 H   0  0  0  0  0  0  0  0  0  0  0  0
   -4.4408    3.3321    1.6828 H   0  0  0  0  0  0  0  0  0  0  0  0
   -3.0016    2.3618    2.0607 H   0  0  0  0  0  0  0  0  0  0  0  0
   -7.5369    0.4404   -1.1467 H   0  0  0  0  0  0  0  0  0  0  0  0
   -6.5580    0.2685   -2.6176 H   0  0  0  0  0  0  0  0  0  0  0  0
   -6.7781   -1.1392   -1.4563 H   0  0  0  0  0  0  0  0  0  0  0  0
   -2.4548   -2.8813   -1.0867 H   0  0  0  0  0  0  0  0  0  0  0  0
   -0.1479    0.1404    1.4072 H   0  0  0  0  0  0  0  0  0  0  0  0
    1.6656    1.1540    0.2098 H   0  0  0  0  0  0  0  0  0  0  0  0
    2.0771    2.6757    1.0457 H   0  0  0  0  0  0  0  0  0  0  0  0
    3.3534    1.4476   -1.4154 H   0  0  0  0  0  0  0  0  0  0  0  0
    2.8398    3.1814   -1.0671 H   0  0  0  0  0  0  0  0  0  0  0  0
    4.5888    4.0909   -1.6507 H   0  0  0  0  0  0  0  0  0  0  0  0
    6.0038    3.0069   -1.7814 H   0  0  0  0  0  0  0  0  0  0  0  0
    5.9297    4.2344   -0.4959 H   0  0  0  0  0  0  0  0  0  0  0  0
    6.1792    1.9394    0.9876 H   0  0  0  0  0  0  0  0  0  0  0  0
    5.9446    1.0362   -0.5258 H   0  0  0  0  0  0  0  0  0  0  0  0
    5.1073    0.1640    1.8862 H   0  0  0  0  0  0  0  0  0  0  0  0
    4.3249   -0.3510    0.3447 H   0  0  0  0  0  0  0  0  0  0  0  0
    3.0752   -2.5875    1.5749 H   0  0  0  0  0  0  0  0  0  0  0  0
    1.7240   -4.1593    0.2160 H   0  0  0  0  0  0  0  0  0  0  0  0
    0.6663   -4.9646   -1.7034 H   0  0  0  0  0  0  0  0  0  0  0  0
   -1.0137   -5.4879   -1.7357 H   0  0  0  0  0  0  0  0  0  0  0  0
   -0.0816   -5.3784    1.1158 H   0  0  0  0  0  0  0  0  0  0  0  0
    0.9885   -6.3974    0.1086 H   0  0  0  0  0  0  0  0  0  0  0  0
   -0.7834   -6.6990    0.1346 H   0  0  0  0  0  0  0  0  0  0  0  0
  1  2  1  0
  2  3  1  0
  3  4  1  0
  4  5  2  0
  5  6  1  0
  6  7  1  0
  6  8  1  0
  8  9  1  0
  9 10  2  0
  9 11  1  0
 11 12  1  0
 12 13  1  0
 13 14  2  0
 14 15  1  0
 15 16  1  0
 16 17  2  0
 16 18  2  0
 16 19  1  0
 19 20  1  0
 20 21  1  0
 21 22  1  0
 22 23  1  0
 22 24  1  0
 24 25  1  0
 15 26  2  0
 26 27  1  0
 27 28  2  0
 28 29  1  0
 29 30  1  0
 30 31  1  0
 12 32  2  0
 32 33  1  0
 33  4  1  0
 33  8  2  0
 28 13  1  0
 25 19  1  0
  1 34  1  0
  1 35  1  0
  1 36  1  0
  2 37  1  0
  2 38  1  0
  3 39  1  0
  3 40  1  0
  7 41  1  0
  7 42  1  0
  7 43  1  0
 11 44  1  0
 14 45  1  0
 20 46  1  0
 20 47  1  0
 21 48  1  0
 21 49  1  0
 23 50  1  0
 23 51  1  0
 23 52  1  0
 24 53  1  0
 24 54  1  0
 25 55  1  0
 25 56  1  0
 26 57  1  0
 27 58  1  0
 30 59  1  0
 30 60  1  0
 31 61  1  0
 31 62  1  0
 31 63  1  0
M  END
$$$$
