@<TRIPOS>MOLECULE
*****
 63 66 0 0 0
SMALL
GASTEIGER

@<TRIPOS>ATOM
      1 C          -1.5314    2.9828   -0.1637 C.3     1  UNL1       -0.0649
      2 C          -2.7111    3.6812    0.4016 C.3     1  UNL1       -0.0504
      3 C          -3.5942    2.7925    1.2005 C.3     1  UNL1       -0.0068
      4 C          -4.1431    1.6738    0.4172 C.ar    1  UNL1        0.0891
      5 N          -5.3574    1.5805   -0.1677 N.ar    1  UNL1       -0.1736
      6 N          -5.4961    0.4384   -0.8008 N.ar    1  UNL1       -0.2598
      7 C          -6.6409   -0.0535   -1.5547 C.3     1  UNL1        0.0311
      8 C          -4.3343   -0.2512   -0.6305 C.ar    1  UNL1        0.1513
      9 C          -3.9169   -1.4876   -1.0538 C.ar    1  UNL1        0.2775
     10 O          -4.6868   -2.1842   -1.7444 O.2     1  UNL1       -0.2655
     11 N          -2.6857   -1.9422   -0.7247 N.ar    1  UNL1       -0.3051
     12 C          -1.8435   -1.2188    0.0118 C.ar    1  UNL1        0.1452
     13 C          -0.5196   -1.6844    0.3842 C.ar    1  UNL1        0.0608
     14 C           0.2709   -0.8222    1.1436 C.ar    1  UNL1       -0.0212
     15 C           1.5397   -1.1122    1.5774 C.ar    1  UNL1        0.1064
     16 S           2.4334    0.0776    2.5363 S.O2    1  UNL1        0.0610
     17 O           1.4504    0.8823    3.3185 O.2     1  UNL1       -0.1528
     18 O           3.3849   -0.6592    3.4279 O.2     1  UNL1       -0.1528
     19 N           3.3008    1.0558    1.4613 N.3     1  UNL1       -0.1741
     20 C           2.5289    1.8010    0.5361 C.3     1  UNL1        0.0333
     21 C           3.3151    2.2718   -0.6679 C.3     1  UNL1        0.0131
     22 N           4.6300    2.6405   -0.1819 N.3     1  UNL1       -0.3028
     23 C           5.3364    3.5116   -1.0636 C.3     1  UNL1       -0.0127
     24 C           5.4040    1.5395    0.2961 C.3     1  UNL1        0.0131
     25 C           4.5292    0.5276    0.9886 C.3     1  UNL1        0.0333
     26 C           2.0840   -2.3194    1.2556 C.ar    1  UNL1       -0.0319
     27 C           1.3493   -3.2083    0.5084 C.ar    1  UNL1       -0.0174
     28 C           0.0465   -2.8870    0.0746 C.ar    1  UNL1        0.1312
     29 O          -0.6652   -3.7842   -0.6674 O.3     1  UNL1       -0.4915
     30 C          -0.2381   -5.0420   -1.0480 C.3     1  UNL1        0.0868
     31 C           0.0106   -5.9112    0.1518 C.3     1  UNL1       -0.0307
     32 N          -2.2488    0.0243    0.4431 N.ar    1  UNL1       -0.2254
     33 C          -3.4546    0.4954    0.1331 C.ar    1  UNL1        0.1192
     34 H          -0.8560    3.7847   -0.5983 H       1  UNL1        0.0230
     35 H          -1.7785    2.3178   -1.0009 H       1  UNL1        0.0230
     36 H          -0.9254    2.4349    0.5970 H       1  UNL1        0.0230
     37 H          -3.2791    4.1127   -0.4602 H       1  UNL1        0.0266
     38 H          -2.3789    4.5127    1.0631 H       1  UNL1        0.0266
     39 H          -4.4408    3.3321    1.6828 H       1  UNL1        0.0329
     40 H          -3.0016    2.3618    2.0607 H       1  UNL1        0.0329
     41 H          -7.5369    0.4404   -1.1467 H       1  UNL1        0.0473
     42 H          -6.5580    0.2685   -2.6176 H       1  UNL1        0.0473
     43 H          -6.7781   -1.1392   -1.4563 H       1  UNL1        0.0473
     44 H          -2.4548   -2.8813   -1.0867 H       1  UNL1        0.1704
     45 H          -0.1479    0.1404    1.4072 H       1  UNL1        0.0645
     46 H           1.6656    1.1540    0.2098 H       1  UNL1        0.0456
     47 H           2.0771    2.6757    1.0457 H       1  UNL1        0.0456
     48 H           3.3534    1.4476   -1.4154 H       1  UNL1        0.0439
     49 H           2.8398    3.1814   -1.0671 H       1  UNL1        0.0439
     50 H           4.5888    4.0909   -1.6507 H       1  UNL1        0.0391
     51 H           6.0038    3.0069   -1.7814 H       1  UNL1        0.0391
     52 H           5.9297    4.2344   -0.4959 H       1  UNL1        0.0391
     53 H           6.1792    1.9394    0.9876 H       1  UNL1        0.0439
     54 H           5.9446    1.0362   -0.5258 H       1  UNL1        0.0439
     55 H           5.1073    0.1640    1.8862 H       1  UNL1        0.0456
     56 H           4.3249   -0.3510    0.3447 H       1  UNL1        0.0456
     57 H           3.0752   -2.5875    1.5749 H       1  UNL1        0.0638
     58 H           1.7240   -4.1593    0.2160 H       1  UNL1        0.0655
     59 H           0.6663   -4.9646   -1.7034 H       1  UNL1        0.0694
     60 H          -1.0137   -5.4879   -1.7357 H       1  UNL1        0.0694
     61 H          -0.0816   -5.3784    1.1158 H       1  UNL1        0.0262
     62 H           0.9885   -6.3974    0.1086 H       1  UNL1        0.0262
     63 H          -0.7834   -6.6990    0.1346 H       1  UNL1        0.0262
@<TRIPOS>BOND
     1     1     2    1
     2     2     3    1
     3     3     4    1
     4     4     5   ar
     5     5     6   ar
     6     6     7    1
     7     6     8   ar
     8     8     9   ar
     9     9    10    2
    10     9    11   ar
    11    11    12   ar
    12    12    13    1
    13    13    14   ar
    14    14    15   ar
    15    15    16    1
    16    16    17    2
    17    16    18    2
    18    16    19    1
    19    19    20    1
    20    20    21    1
    21    21    22    1
    22    22    23    1
    23    22    24    1
    24    24    25    1
    25    15    26   ar
    26    26    27   ar
    27    27    28   ar
    28    28    29    1
    29    29    30    1
    30    30    31    1
    31    12    32   ar
    32    32    33   ar
    33    33     4   ar
    34    33     8   ar
    35    28    13   ar
    36    25    19    1
    37     1    34    1
    38     1    35    1
    39     1    36    1
    40     2    37    1
    41     2    38    1
    42     3    39    1
    43     3    40    1
    44     7    41    1
    45     7    42    1
    46     7    43    1
    47    11    44    1
    48    14    45    1
    49    20    46    1
    50    20    47    1
    51    21    48    1
    52    21    49    1
    53    23    50    1
    54    23    51    1
    55    23    52    1
    56    24    53    1
    57    24    54    1
    58    25    55    1
    59    25    56    1
    60    26    57    1
    61    27    58    1
    62    30    59    1
    63    30    60    1
    64    31    61    1
    65    31    62    1
    66    31    63    1
