
     RDKit          3D

 44 47  0  0  0  0  0  0  0  0999 V2000
    6.3237    0.9199   -1.2989 C   0  0  0  0  0  0  0  0  0  0  0  0
    6.8283    0.8112    0.1007 C   0  0  0  0  0  0  0  0  0  0  0  0
    6.0315   -0.4997    1.0042 S   0  0  0  0  0  6  0  0  0  0  0  0
    6.6441   -0.6710    2.3632 O   0  0  0  0  0  0  0  0  0  0  0  0
    6.2946   -1.7846    0.2508 O   0  0  0  0  0  0  0  0  0  0  0  0
    4.3092   -0.2452    1.0983 C   0  0  0  0  0  0  0  0  0  0  0  0
    3.7356    0.4737    2.1200 C   0  0  0  0  0  0  0  0  0  0  0  0
    2.3560    0.6682    2.1826 C   0  0  0  0  0  0  0  0  0  0  0  0
    1.5438    0.1277    1.1973 C   0  0  0  0  0  0  0  0  0  0  0  0
    0.2215    0.1277    0.9657 N   0  0  0  0  0  0  0  0  0  0  0  0
   -0.0627   -0.5720   -0.1761 C   0  0  0  0  0  0  0  0  0  0  0  0
   -1.3957   -0.7759   -0.7284 C   0  0  0  0  0  0  0  0  0  0  0  0
   -2.5006   -0.2280   -0.0676 C   0  0  0  0  0  0  0  0  0  0  0  0
   -3.7936   -0.3706   -0.5175 C   0  0  0  0  0  0  0  0  0  0  0  0
   -4.9431    0.1881    0.1532 C   0  0  0  0  0  0  0  0  0  0  0  0
   -4.8243    1.3652    0.8444 C   0  0  0  0  0  0  0  0  0  0  0  0
   -5.9115    1.9396    1.5073 C   0  0  0  0  0  0  0  0  0  0  0  0
   -7.1125    1.3021    1.4563 C   0  0  0  0  0  0  0  0  0  0  0  0
   -7.2417    0.1188    0.7643 C   0  0  0  0  0  0  0  0  0  0  0  0
   -6.1503   -0.4546    0.1007 C   0  0  0  0  0  0  0  0  0  0  0  0
   -3.9736   -1.0965   -1.6818 C   0  0  0  0  0  0  0  0  0  0  0  0
   -2.9342   -1.6487   -2.3608 C   0  0  0  0  0  0  0  0  0  0  0  0
   -1.6426   -1.4828   -1.8748 C   0  0  0  0  0  0  0  0  0  0  0  0
   -0.6110   -2.0317   -2.5495 F   0  0  0  0  0  0  0  0  0  0  0  0
    1.1058   -0.9898   -0.6235 N   0  0  0  0  0  0  0  0  0  0  0  0
    2.1364   -0.5885    0.1833 C   0  0  0  0  0  0  0  0  0  0  0  0
    3.5019   -0.7806    0.1221 C   0  0  0  0  0  0  0  0  0  0  0  0
    5.4657    0.2594   -1.5343 H   0  0  0  0  0  0  0  0  0  0  0  0
    6.0396    1.9751   -1.5671 H   0  0  0  0  0  0  0  0  0  0  0  0
    7.1267    0.6277   -2.0367 H   0  0  0  0  0  0  0  0  0  0  0  0
    7.9265    0.6597    0.1056 H   0  0  0  0  0  0  0  0  0  0  0  0
    6.6470    1.7456    0.7071 H   0  0  0  0  0  0  0  0  0  0  0  0
    4.3551    0.9023    2.8971 H   0  0  0  0  0  0  0  0  0  0  0  0
    1.8888    1.2353    2.9857 H   0  0  0  0  0  0  0  0  0  0  0  0
   -2.3257    0.3343    0.8407 H   0  0  0  0  0  0  0  0  0  0  0  0
   -3.8903    1.9086    0.9134 H   0  0  0  0  0  0  0  0  0  0  0  0
   -5.7759    2.8717    2.0428 H   0  0  0  0  0  0  0  0  0  0  0  0
   -7.9760    1.7513    1.9788 H   0  0  0  0  0  0  0  0  0  0  0  0
   -8.2052   -0.3509    0.7490 H   0  0  0  0  0  0  0  0  0  0  0  0
   -6.3259   -1.3798   -0.4191 H   0  0  0  0  0  0  0  0  0  0  0  0
   -4.9881   -1.2229   -2.0575 H   0  0  0  0  0  0  0  0  0  0  0  0
   -3.1046   -2.2151   -3.2742 H   0  0  0  0  0  0  0  0  0  0  0  0
    1.2974   -1.5615   -1.4820 H   0  0  0  0  0  0  0  0  0  0  0  0
    3.9097   -1.3626   -0.7127 H   0  0  0  0  0  0  0  0  0  0  0  0
  1  2  1  0
  2  3  1  0
  3  4  2  0
  3  5  2  0
  3  6  1  0
  6  7  2  0
  7  8  1  0
  8  9  2  0
  9 10  1  0
 10 11  2  0
 11 12  1  0
 12 13  2  0
 13 14  1  0
 14 15  1  0
 15 16  2  0
 16 17  1  0
 17 18  2  0
 18 19  1  0
 19 20  2  0
 14 21  2  0
 21 22  1  0
 22 23  2  0
 23 24  1  0
 11 25  1  0
 25 26  1  0
 26 27  2  0
 27  6  1  0
 26  9  1  0
 23 12  1  0
 20 15  1  0
  1 28  1  0
  1 29  1  0
  1 30  1  0
  2 31  1  0
  2 32  1  0
  7 33  1  0
  8 34  1  0
 13 35  1  0
 16 36  1  0
 17 37  1  0
 18 38  1  0
 19 39  1  0
 20 40  1  0
 21 41  1  0
 22 42  1  0
 25 43  1  0
 27 44  1  0
M  END
$$$$
