@<TRIPOS>MOLECULE
*****
 44 47 0 0 0
SMALL
GASTEIGER

@<TRIPOS>ATOM
      1 C           6.3237    0.9199   -1.2989 C.3     1  UNL1       -0.0453
      2 C           6.8283    0.8112    0.1007 C.3     1  UNL1        0.0681
      3 S           6.0315   -0.4997    1.0042 S.O2    1  UNL1       -0.0033
      4 O           6.6441   -0.6710    2.3632 O.2     1  UNL1       -0.1694
      5 O           6.2946   -1.7846    0.2508 O.2     1  UNL1       -0.1694
      6 C           4.3092   -0.2452    1.0983 C.ar    1  UNL1        0.0902
      7 C           3.7356    0.4737    2.1200 C.ar    1  UNL1       -0.0347
      8 C           2.3560    0.6682    2.1826 C.ar    1  UNL1       -0.0324
      9 C           1.5438    0.1277    1.1973 C.ar    1  UNL1        0.0896
     10 N           0.2215    0.1277    0.9657 N.ar    1  UNL1       -0.2276
     11 C          -0.0627   -0.5720   -0.1761 C.ar    1  UNL1        0.1420
     12 C          -1.3957   -0.7759   -0.7284 C.ar    1  UNL1        0.0530
     13 C          -2.5006   -0.2280   -0.0676 C.ar    1  UNL1       -0.0406
     14 C          -3.7936   -0.3706   -0.5175 C.ar    1  UNL1       -0.0170
     15 C          -4.9431    0.1881    0.1532 C.ar    1  UNL1       -0.0179
     16 C          -4.8243    1.3652    0.8444 C.ar    1  UNL1       -0.0540
     17 C          -5.9115    1.9396    1.5073 C.ar    1  UNL1       -0.0612
     18 C          -7.1125    1.3021    1.4563 C.ar    1  UNL1       -0.0617
     19 C          -7.2417    0.1188    0.7643 C.ar    1  UNL1       -0.0612
     20 C          -6.1503   -0.4546    0.1007 C.ar    1  UNL1       -0.0540
     21 C          -3.9736   -1.0965   -1.6818 C.ar    1  UNL1       -0.0513
     22 C          -2.9342   -1.6487   -2.3608 C.ar    1  UNL1       -0.0252
     23 C          -1.6426   -1.4828   -1.8748 C.ar    1  UNL1        0.1340
     24 F          -0.6110   -2.0317   -2.5495 F       1  UNL1       -0.2047
     25 N           1.1058   -0.9898   -0.6235 N.ar    1  UNL1       -0.3378
     26 C           2.1364   -0.5885    0.1833 C.ar    1  UNL1        0.0683
     27 C           3.5019   -0.7806    0.1221 C.ar    1  UNL1       -0.0114
     28 H           5.4657    0.2594   -1.5343 H       1  UNL1        0.0245
     29 H           6.0396    1.9751   -1.5671 H       1  UNL1        0.0245
     30 H           7.1267    0.6277   -2.0367 H       1  UNL1        0.0245
     31 H           7.9265    0.6597    0.1056 H       1  UNL1        0.0501
     32 H           6.6470    1.7456    0.7071 H       1  UNL1        0.0501
     33 H           4.3551    0.9023    2.8971 H       1  UNL1        0.0637
     34 H           1.8888    1.2353    2.9857 H       1  UNL1        0.0640
     35 H          -2.3257    0.3343    0.8407 H       1  UNL1        0.0632
     36 H          -3.8903    1.9086    0.9134 H       1  UNL1        0.0624
     37 H          -5.7759    2.8717    2.0428 H       1  UNL1        0.0618
     38 H          -7.9760    1.7513    1.9788 H       1  UNL1        0.0618
     39 H          -8.2052   -0.3509    0.7490 H       1  UNL1        0.0618
     40 H          -6.3259   -1.3798   -0.4191 H       1  UNL1        0.0624
     41 H          -4.9881   -1.2229   -2.0575 H       1  UNL1        0.0624
     42 H          -3.1046   -2.2151   -3.2742 H       1  UNL1        0.0646
     43 H           1.2974   -1.5615   -1.4820 H       1  UNL1        0.1674
     44 H           3.9097   -1.3626   -0.7127 H       1  UNL1        0.0658
@<TRIPOS>BOND
     1     1     2    1
     2     2     3    1
     3     3     4    2
     4     3     5    2
     5     3     6    1
     6     6     7   ar
     7     7     8   ar
     8     8     9   ar
     9     9    10   ar
    10    10    11   ar
    11    11    12    1
    12    12    13   ar
    13    13    14   ar
    14    14    15    1
    15    15    16   ar
    16    16    17   ar
    17    17    18   ar
    18    18    19   ar
    19    19    20   ar
    20    14    21   ar
    21    21    22   ar
    22    22    23   ar
    23    23    24    1
    24    11    25   ar
    25    25    26   ar
    26    26    27   ar
    27    27     6   ar
    28    26     9   ar
    29    23    12   ar
    30    20    15   ar
    31     1    28    1
    32     1    29    1
    33     1    30    1
    34     2    31    1
    35     2    32    1
    36     7    33    1
    37     8    34    1
    38    13    35    1
    39    16    36    1
    40    17    37    1
    41    18    38    1
    42    19    39    1
    43    20    40    1
    44    21    41    1
    45    22    42    1
    46    25    43    1
    47    27    44    1
