@<TRIPOS>MOLECULE
*****
 54 58 0 0 0
SMALL
GASTEIGER

@<TRIPOS>ATOM
      1 N          -2.8371   -3.0372    2.0975 N.3     1  UNL1       -0.3259
      2 C          -2.7497   -2.1633    0.9473 C.3     1  UNL1        0.0207
      3 C          -3.9530   -2.3266    0.0530 C.3     1  UNL1       -0.0349
      4 C          -3.8256   -1.4985   -1.1868 C.3     1  UNL1       -0.0358
      5 C          -2.6008   -0.6528   -1.1247 C.3     1  UNL1        0.0124
      6 N          -2.4098    0.0422    0.1271 N.pl3   1  UNL1       -0.3264
      7 C          -2.1052    1.4106    0.0809 C.ar    1  UNL1        0.0620
      8 C          -0.7651    1.7971    0.0101 C.ar    1  UNL1        0.0739
      9 N           0.1964    0.7649    0.0098 N.am    1  UNL1       -0.2775
     10 C           1.5986    0.9189   -0.0870 C.2     1  UNL1        0.2672
     11 O           2.0716    2.0710   -0.1844 O.2     1  UNL1       -0.2682
     12 C           2.5250   -0.2172   -0.0782 C.ar    1  UNL1        0.1335
     13 C           2.0273   -1.5743    0.0325 C.ar    1  UNL1        0.0082
     14 S           3.5621   -2.5258   -0.0074 S.2     1  UNL1       -0.0747
     15 C           4.6497   -0.9882   -0.1654 C.ar    1  UNL1        0.1146
     16 C           6.0796   -1.1487   -0.2451 C.ar    1  UNL1        0.0774
     17 C           6.6807   -2.3774   -0.2106 C.ar    1  UNL1        0.1358
     18 F           5.9658   -3.5089   -0.0998 F       1  UNL1       -0.2047
     19 C           8.0652   -2.4941   -0.2901 C.ar    1  UNL1       -0.0256
     20 C           8.8466   -1.3639   -0.4049 C.ar    1  UNL1       -0.0563
     21 C           8.2592   -0.1296   -0.4406 C.ar    1  UNL1       -0.0256
     22 C           6.8777   -0.0390   -0.3598 C.ar    1  UNL1        0.1358
     23 F           6.3202    1.1863   -0.3969 F       1  UNL1       -0.2047
     24 N           3.8154   -0.1695   -0.1614 N.ar    1  UNL1       -0.2342
     25 C          -0.5010    3.1447   -0.0425 C.ar    1  UNL1        0.0513
     26 N          -1.5164    4.0704   -0.0255 N.ar    1  UNL1       -0.2530
     27 C          -2.7914    3.6734    0.0434 C.ar    1  UNL1        0.0729
     28 C          -3.7840    4.6432    0.0623 C.ar    1  UNL1       -0.0357
     29 C          -5.1041    4.2493    0.1375 C.ar    1  UNL1       -0.0597
     30 C          -5.4511    2.8959    0.1946 C.ar    1  UNL1       -0.0610
     31 C          -4.4670    1.9392    0.1756 C.ar    1  UNL1       -0.0507
     32 C          -3.1400    2.3232    0.0999 C.ar    1  UNL1        0.0232
     33 C          -2.5470   -0.7190    1.3491 C.3     1  UNL1        0.0274
     34 H          -2.8942   -2.4989    2.9842 H       1  UNL1        0.1185
     35 H          -3.6222   -3.7351    1.9908 H       1  UNL1        0.1185
     36 H          -1.8603   -2.4860    0.3706 H       1  UNL1        0.0474
     37 H          -4.8964   -2.0347    0.5565 H       1  UNL1        0.0281
     38 H          -4.0435   -3.4246   -0.1566 H       1  UNL1        0.0281
     39 H          -3.7787   -2.1453   -2.1077 H       1  UNL1        0.0281
     40 H          -4.7247   -0.8506   -1.3888 H       1  UNL1        0.0281
     41 H          -1.7055   -1.3076   -1.2836 H       1  UNL1        0.0464
     42 H          -2.5978    0.0466   -1.9915 H       1  UNL1        0.0464
     43 H          -0.1056   -0.2531    0.0920 H       1  UNL1        0.1553
     44 H           1.0239   -1.9211    0.1154 H       1  UNL1        0.0717
     45 H           8.5031   -3.4812   -0.2595 H       1  UNL1        0.0646
     46 H           9.9209   -1.4751   -0.4654 H       1  UNL1        0.0619
     47 H           8.8596    0.7465   -0.5293 H       1  UNL1        0.0646
     48 H           0.5101    3.5072   -0.0968 H       1  UNL1        0.0849
     49 H          -3.5525    5.6935    0.0199 H       1  UNL1        0.0639
     50 H          -5.9183    4.9562    0.1555 H       1  UNL1        0.0618
     51 H          -6.4750    2.5631    0.2539 H       1  UNL1        0.0618
     52 H          -4.6648    0.8807    0.2226 H       1  UNL1        0.0625
     53 H          -1.5993   -0.6322    1.9109 H       1  UNL1        0.0479
     54 H          -3.3718   -0.3449    1.9880 H       1  UNL1        0.0479
@<TRIPOS>BOND
     1     1     2    1
     2     2     3    1
     3     3     4    1
     4     4     5    1
     5     5     6    1
     6     6     7    1
     7     7     8   ar
     8     8     9    1
     9     9    10   am
    10    10    11    2
    11    10    12    1
    12    12    13   ar
    13    13    14   ar
    14    14    15   ar
    15    15    16    1
    16    16    17   ar
    17    17    18    1
    18    17    19   ar
    19    19    20   ar
    20    20    21   ar
    21    21    22   ar
    22    22    23    1
    23    15    24   ar
    24     8    25   ar
    25    25    26   ar
    26    26    27   ar
    27    27    28   ar
    28    28    29   ar
    29    29    30   ar
    30    30    31   ar
    31    31    32   ar
    32     6    33    1
    33    33     2    1
    34    32     7   ar
    35    24    12   ar
    36    32    27   ar
    37    22    16   ar
    38     1    34    1
    39     1    35    1
    40     2    36    1
    41     3    37    1
    42     3    38    1
    43     4    39    1
    44     4    40    1
    45     5    41    1
    46     5    42    1
    47     9    43    1
    48    13    44    1
    49    19    45    1
    50    20    46    1
    51    21    47    1
    52    25    48    1
    53    28    49    1
    54    29    50    1
    55    30    51    1
    56    31    52    1
    57    33    53    1
    58    33    54    1
