
     RDKit          3D

 54 58  0  0  0  0  0  0  0  0999 V2000
   -2.8371   -3.0372    2.0975 N   0  0  0  0  0  0  0  0  0  0  0  0
   -2.7497   -2.1633    0.9473 C   0  0  1  0  0  0  0  0  0  0  0  0
   -3.9530   -2.3266    0.0530 C   0  0  0  0  0  0  0  0  0  0  0  0
   -3.8256   -1.4985   -1.1868 C   0  0  0  0  0  0  0  0  0  0  0  0
   -2.6008   -0.6528   -1.1247 C   0  0  0  0  0  0  0  0  0  0  0  0
   -2.4098    0.0422    0.1271 N   0  0  0  0  0  0  0  0  0  0  0  0
   -2.1052    1.4106    0.0809 C   0  0  0  0  0  0  0  0  0  0  0  0
   -0.7651    1.7971    0.0101 C   0  0  0  0  0  0  0  0  0  0  0  0
    0.1964    0.7649    0.0098 N   0  0  0  0  0  0  0  0  0  0  0  0
    1.5986    0.9189   -0.0870 C   0  0  0  0  0  0  0  0  0  0  0  0
    2.0716    2.0710   -0.1844 O   0  0  0  0  0  0  0  0  0  0  0  0
    2.5250   -0.2172   -0.0782 C   0  0  0  0  0  0  0  0  0  0  0  0
    2.0273   -1.5743    0.0325 C   0  0  0  0  0  0  0  0  0  0  0  0
    3.5621   -2.5258   -0.0074 S   0  0  0  0  0  0  0  0  0  0  0  0
    4.6497   -0.9882   -0.1654 C   0  0  0  0  0  0  0  0  0  0  0  0
    6.0796   -1.1487   -0.2451 C   0  0  0  0  0  0  0  0  0  0  0  0
    6.6807   -2.3774   -0.2106 C   0  0  0  0  0  0  0  0  0  0  0  0
    5.9658   -3.5089   -0.0998 F   0  0  0  0  0  0  0  0  0  0  0  0
    8.0652   -2.4941   -0.2901 C   0  0  0  0  0  0  0  0  0  0  0  0
    8.8466   -1.3639   -0.4049 C   0  0  0  0  0  0  0  0  0  0  0  0
    8.2592   -0.1296   -0.4406 C   0  0  0  0  0  0  0  0  0  0  0  0
    6.8777   -0.0390   -0.3598 C   0  0  0  0  0  0  0  0  0  0  0  0
    6.3202    1.1863   -0.3969 F   0  0  0  0  0  0  0  0  0  0  0  0
    3.8154   -0.1695   -0.1614 N   0  0  0  0  0  0  0  0  0  0  0  0
   -0.5010    3.1447   -0.0425 C   0  0  0  0  0  0  0  0  0  0  0  0
   -1.5164    4.0704   -0.0255 N   0  0  0  0  0  0  0  0  0  0  0  0
   -2.7914    3.6734    0.0434 C   0  0  0  0  0  0  0  0  0  0  0  0
   -3.7840    4.6432    0.0623 C   0  0  0  0  0  0  0  0  0  0  0  0
   -5.1041    4.2493    0.1375 C   0  0  0  0  0  0  0  0  0  0  0  0
   -5.4511    2.8959    0.1946 C   0  0  0  0  0  0  0  0  0  0  0  0
   -4.4670    1.9392    0.1756 C   0  0  0  0  0  0  0  0  0  0  0  0
   -3.1400    2.3232    0.0999 C   0  0  0  0  0  0  0  0  0  0  0  0
   -2.5470   -0.7190    1.3491 C   0  0  0  0  0  0  0  0  0  0  0  0
   -2.8942   -2.4989    2.9842 H   0  0  0  0  0  0  0  0  0  0  0  0
   -3.6222   -3.7351    1.9908 H   0  0  0  0  0  0  0  0  0  0  0  0
   -1.8603   -2.4860    0.3706 H   0  0  0  0  0  0  0  0  0  0  0  0
   -4.8964   -2.0347    0.5565 H   0  0  0  0  0  0  0  0  0  0  0  0
   -4.0435   -3.4246   -0.1566 H   0  0  0  0  0  0  0  0  0  0  0  0
   -3.7787   -2.1453   -2.1077 H   0  0  0  0  0  0  0  0  0  0  0  0
   -4.7247   -0.8506   -1.3888 H   0  0  0  0  0  0  0  0  0  0  0  0
   -1.7055   -1.3076   -1.2836 H   0  0  0  0  0  0  0  0  0  0  0  0
   -2.5978    0.0466   -1.9915 H   0  0  0  0  0  0  0  0  0  0  0  0
   -0.1056   -0.2531    0.0920 H   0  0  0  0  0  0  0  0  0  0  0  0
    1.0239   -1.9211    0.1154 H   0  0  0  0  0  0  0  0  0  0  0  0
    8.5031   -3.4812   -0.2595 H   0  0  0  0  0  0  0  0  0  0  0  0
    9.9209   -1.4751   -0.4654 H   0  0  0  0  0  0  0  0  0  0  0  0
    8.8596    0.7465   -0.5293 H   0  0  0  0  0  0  0  0  0  0  0  0
    0.5101    3.5072   -0.0968 H   0  0  0  0  0  0  0  0  0  0  0  0
   -3.5525    5.6935    0.0199 H   0  0  0  0  0  0  0  0  0  0  0  0
   -5.9183    4.9562    0.1555 H   0  0  0  0  0  0  0  0  0  0  0  0
   -6.4750    2.5631    0.2539 H   0  0  0  0  0  0  0  0  0  0  0  0
   -4.6648    0.8807    0.2226 H   0  0  0  0  0  0  0  0  0  0  0  0
   -1.5993   -0.6322    1.9109 H   0  0  0  0  0  0  0  0  0  0  0  0
   -3.3718   -0.3449    1.9880 H   0  0  0  0  0  0  0  0  0  0  0  0
  1  2  1  0
  2  3  1  0
  3  4  1  0
  4  5  1  0
  5  6  1  0
  6  7  1  0
  7  8  1  0
  8  9  1  0
  9 10  1  0
 10 11  2  0
 10 12  1  0
 12 13  2  0
 13 14  1  0
 14 15  1  0
 15 16  1  0
 16 17  2  0
 17 18  1  0
 17 19  1  0
 19 20  2  0
 20 21  1  0
 21 22  2  0
 22 23  1  0
 15 24  2  0
  8 25  2  0
 25 26  1  0
 26 27  2  0
 27 28  1  0
 28 29  2  0
 29 30  1  0
 30 31  2  0
 31 32  1  0
  6 33  1  0
 33  2  1  0
 32  7  2  0
 24 12  1  0
 32 27  1  0
 22 16  1  0
  1 34  1  0
  1 35  1  0
  2 36  1  6
  3 37  1  0
  3 38  1  0
  4 39  1  0
  4 40  1  0
  5 41  1  0
  5 42  1  0
  9 43  1  0
 13 44  1  0
 19 45  1  0
 20 46  1  0
 21 47  1  0
 25 48  1  0
 28 49  1  0
 29 50  1  0
 30 51  1  0
 31 52  1  0
 33 53  1  0
 33 54  1  0
M  END
$$$$
