@<TRIPOS>MOLECULE
*****
 102 109 0 0 0
SMALL
GASTEIGER

@<TRIPOS>ATOM
      1 C           6.9073   -5.9790    0.0527 C.3     1  UNL1        0.0788
      2 O           5.7786   -5.1896   -0.0669 O.3     1  UNL1       -0.4950
      3 C           5.7012   -3.8166   -0.1837 C.ar    1  UNL1        0.1226
      4 C           4.4953   -3.1780   -0.2936 C.ar    1  UNL1        0.0013
      5 C           4.3678   -1.7835   -0.4150 C.ar    1  UNL1        0.0378
      6 N           3.1207   -1.1858   -0.5348 N.pl3   1  UNL1       -0.2834
      7 C           2.8377    0.1786   -0.5976 C.ar    1  UNL1        0.2226
      8 N           3.6959    1.2027   -0.5118 N.ar    1  UNL1       -0.2225
      9 C           3.3873    2.4911   -0.5722 C.ar    1  UNL1        0.0362
     10 C           2.0614    2.8161   -0.7386 C.ar    1  UNL1        0.0186
     11 C           1.1038    1.7989   -0.8371 C.ar    1  UNL1        0.2249
     12 O          -0.1857    2.1871   -1.0019 O.3     1  UNL1       -0.4373
     13 C          -1.3184    1.4366   -1.1541 C.ar    1  UNL1        0.1381
     14 C          -2.0451    1.4570   -2.3528 C.ar    1  UNL1       -0.0169
     15 C          -3.1870    0.7093   -2.5027 C.ar    1  UNL1       -0.0363
     16 C          -3.6670   -0.0841   -1.4970 C.ar    1  UNL1        0.0427
     17 N          -4.8694   -0.8639   -1.6157 N.am    1  UNL1       -0.2686
     18 C          -6.1131   -0.2016   -1.3355 C.2     1  UNL1        0.3092
     19 O          -6.0682    1.0280   -1.0014 O.2     1  UNL1       -0.2521
     20 N          -7.3823   -0.8489   -1.4170 N.am    1  UNL1       -0.2538
     21 C          -8.5395   -0.0543   -1.1485 C.ar    1  UNL1        0.1299
     22 C          -9.1848    0.6488   -2.1678 C.ar    1  UNL1        0.0021
     23 C         -10.2261    1.3108   -1.5445 C.ar    1  UNL1        0.0712
     24 C         -11.2301    2.2156   -2.1509 C.3     1  UNL1        0.0120
     25 C         -10.7906    3.6656   -2.2010 C.3     1  UNL1       -0.0540
     26 C         -12.6731    2.0082   -1.6939 C.3     1  UNL1       -0.0413
     27 C         -12.2583    1.7160   -3.0874 C.3     1  UNL1       -0.0413
     28 N         -10.1673    0.9937   -0.2493 N.ar    1  UNL1       -0.1691
     29 N          -9.1533    0.1675    0.0144 N.ar    1  UNL1       -0.2181
     30 C          -8.8062   -0.3645    1.2984 C.ar    1  UNL1        0.0674
     31 C          -8.6384    0.4835    2.3710 C.ar    1  UNL1       -0.0359
     32 C          -8.3061    0.0211    3.6278 C.ar    1  UNL1       -0.0568
     33 C          -8.1265   -1.3246    3.8640 C.ar    1  UNL1       -0.0503
     34 C          -7.7578   -1.8382    5.2249 C.3     1  UNL1       -0.0397
     35 C          -8.2919   -2.1873    2.7978 C.ar    1  UNL1       -0.0568
     36 C          -8.6279   -1.7077    1.5306 C.ar    1  UNL1       -0.0359
     37 C          -2.9678   -0.1165   -0.3179 C.ar    1  UNL1        0.0069
     38 C          -3.4451   -0.9054    0.7018 C.ar    1  UNL1       -0.0521
     39 C          -2.7627   -0.9494    1.9042 C.ar    1  UNL1       -0.0611
     40 C          -1.6126   -0.2153    2.0967 C.ar    1  UNL1       -0.0611
     41 C          -1.1486    0.5681    1.0686 C.ar    1  UNL1       -0.0505
     42 C          -1.8020    0.6347   -0.1406 C.ar    1  UNL1        0.0262
     43 N           1.5369    0.5356   -0.7624 N.ar    1  UNL1       -0.1789
     44 C           5.5482   -1.1029   -0.4149 C.ar    1  UNL1       -0.0281
     45 C           6.7922   -1.7164   -0.3052 C.ar    1  UNL1        0.0419
     46 C           8.0272   -0.9471   -0.2898 C.2     1  UNL1        0.2443
     47 O           7.9266    0.3074   -0.0606 O.2     1  UNL1       -0.2702
     48 N           9.3113   -1.4572   -0.5053 N.am    1  UNL1       -0.3101
     49 C          10.5532   -0.7076   -0.4854 C.3     1  UNL1        0.0247
     50 C          10.7639   -0.1333    0.8677 C.3     1  UNL1        0.0146
     51 N          11.9874    0.6164    0.9968 N.3     1  UNL1       -0.2965
     52 C          12.2174    1.0842    2.3447 C.3     1  UNL1        0.0225
     53 C          11.7782    2.4886    2.5957 C.3     1  UNL1        0.0604
     54 O          10.8525    2.9374    1.6572 O.3     1  UNL1       -0.3772
     55 C          11.3375    2.9147    0.3701 C.3     1  UNL1        0.0604
     56 C          12.1433    1.6793    0.0250 C.3     1  UNL1        0.0225
     57 C           6.8683   -3.0864   -0.1888 C.ar    1  UNL1       -0.0077
     58 H           7.2176   -6.3290   -0.9768 H       1  UNL1        0.0660
     59 H           7.7946   -5.4907    0.4939 H       1  UNL1        0.0660
     60 H           6.7380   -6.9105    0.6472 H       1  UNL1        0.0660
     61 H           3.5679   -3.7427   -0.2888 H       1  UNL1        0.0673
     62 H           2.2853   -1.8612   -0.5816 H       1  UNL1        0.1550
     63 H           4.0999    3.2843   -0.5005 H       1  UNL1        0.0832
     64 H           1.7049    3.8444   -0.8019 H       1  UNL1        0.0686
     65 H          -1.6811    2.0764   -3.1527 H       1  UNL1        0.0655
     66 H          -3.7657    0.7121   -3.4328 H       1  UNL1        0.0637
     67 H          -4.8926   -1.8610   -1.8861 H       1  UNL1        0.1564
     68 H          -7.4069   -1.8452   -1.6811 H       1  UNL1        0.1578
     69 H          -8.9481    0.6875   -3.2206 H       1  UNL1        0.0671
     70 H         -11.4020    4.2589   -2.9233 H       1  UNL1        0.0239
     71 H         -10.8469    4.0790   -1.1727 H       1  UNL1        0.0239
     72 H          -9.7195    3.7114   -2.5095 H       1  UNL1        0.0239
     73 H         -12.8784    1.1585   -1.0171 H       1  UNL1        0.0274
     74 H         -13.2614    2.9086   -1.4327 H       1  UNL1        0.0274
     75 H         -12.2536    0.6589   -3.4308 H       1  UNL1        0.0274
     76 H         -12.5522    2.4189   -3.8954 H       1  UNL1        0.0274
     77 H          -8.7792    1.5394    2.1832 H       1  UNL1        0.0639
     78 H          -8.1803    0.7008    4.4577 H       1  UNL1        0.0621
     79 H          -8.5237   -1.5827    5.9842 H       1  UNL1        0.0278
     80 H          -6.7815   -1.3778    5.5475 H       1  UNL1        0.0278
     81 H          -7.6813   -2.9214    5.1735 H       1  UNL1        0.0278
     82 H          -8.1533   -3.2528    2.9718 H       1  UNL1        0.0621
     83 H          -8.7461   -2.4192    0.7268 H       1  UNL1        0.0639
     84 H          -4.3520   -1.4887    0.5564 H       1  UNL1        0.0624
     85 H          -3.1609   -1.5732    2.6760 H       1  UNL1        0.0618
     86 H          -1.1106   -0.2868    3.0679 H       1  UNL1        0.0618
     87 H          -0.2664    1.1436    1.2167 H       1  UNL1        0.0625
     88 H           5.5697   -0.0129   -0.5051 H       1  UNL1        0.0644
     89 H           9.3612   -2.5054   -0.7073 H       1  UNL1        0.1490
     90 H          10.5337    0.0607   -1.2933 H       1  UNL1        0.0475
     91 H          11.3781   -1.4045   -0.7551 H       1  UNL1        0.0475
     92 H          10.8060   -0.9681    1.5928 H       1  UNL1        0.0442
     93 H           9.8761    0.4691    1.1738 H       1  UNL1        0.0442
     94 H          13.3381    1.0431    2.4911 H       1  UNL1        0.0449
     95 H          11.7832    0.3841    3.0490 H       1  UNL1        0.0449
     96 H          11.3353    2.5862    3.5968 H       1  UNL1        0.0572
     97 H          12.6484    3.2058    2.5780 H       1  UNL1        0.0572
     98 H          11.9628    3.8354    0.2388 H       1  UNL1        0.0572
     99 H          10.4716    2.9364   -0.3276 H       1  UNL1        0.0572
    100 H          12.0615    1.3574   -1.0144 H       1  UNL1        0.0449
    101 H          13.2311    1.9913    0.1338 H       1  UNL1        0.0449
    102 H           7.8303   -3.5757   -0.0973 H       1  UNL1        0.0662
@<TRIPOS>BOND
     1     1     2    1
     2     2     3    1
     3     3     4   ar
     4     4     5   ar
     5     5     6    1
     6     6     7    1
     7     7     8   ar
     8     8     9   ar
     9     9    10   ar
    10    10    11   ar
    11    11    12    1
    12    12    13    1
    13    13    14   ar
    14    14    15   ar
    15    15    16   ar
    16    16    17    1
    17    17    18   am
    18    18    19    2
    19    18    20   am
    20    20    21    1
    21    21    22   ar
    22    22    23   ar
    23    23    24    1
    24    24    25    1
    25    24    26    1
    26    26    27    1
    27    23    28   ar
    28    28    29   ar
    29    29    30    1
    30    30    31   ar
    31    31    32   ar
    32    32    33   ar
    33    33    34    1
    34    33    35   ar
    35    35    36   ar
    36    16    37   ar
    37    37    38   ar
    38    38    39   ar
    39    39    40   ar
    40    40    41   ar
    41    41    42   ar
    42    11    43   ar
    43     5    44   ar
    44    44    45   ar
    45    45    46    1
    46    46    47    2
    47    46    48   am
    48    48    49    1
    49    49    50    1
    50    50    51    1
    51    51    52    1
    52    52    53    1
    53    53    54    1
    54    54    55    1
    55    55    56    1
    56    45    57   ar
    57    57     3   ar
    58    43     7   ar
    59    56    51    1
    60    42    13   ar
    61    29    21   ar
    62    36    30   ar
    63    42    37   ar
    64    27    24    1
    65     1    58    1
    66     1    59    1
    67     1    60    1
    68     4    61    1
    69     6    62    1
    70     9    63    1
    71    10    64    1
    72    14    65    1
    73    15    66    1
    74    17    67    1
    75    20    68    1
    76    22    69    1
    77    25    70    1
    78    25    71    1
    79    25    72    1
    80    26    73    1
    81    26    74    1
    82    27    75    1
    83    27    76    1
    84    31    77    1
    85    32    78    1
    86    34    79    1
    87    34    80    1
    88    34    81    1
    89    35    82    1
    90    36    83    1
    91    38    84    1
    92    39    85    1
    93    40    86    1
    94    41    87    1
    95    44    88    1
    96    48    89    1
    97    49    90    1
    98    49    91    1
    99    50    92    1
   100    50    93    1
   101    52    94    1
   102    52    95    1
   103    53    96    1
   104    53    97    1
   105    55    98    1
   106    55    99    1
   107    56   100    1
   108    56   101    1
   109    57   102    1
