@<TRIPOS>MOLECULE
*****
 47 48 0 0 0
SMALL
GASTEIGER

@<TRIPOS>ATOM
      1 C          -6.3159    1.0041   -1.2244 C.3     1  UNL1       -0.0332
      2 C          -5.7486    0.4420    0.0177 C.ar    1  UNL1        0.0302
      3 C          -4.4320    0.0474    0.0944 C.ar    1  UNL1        0.0199
      4 N          -3.8985   -0.4669    1.2186 N.ar    1  UNL1       -0.2737
      5 C          -2.5207   -0.8948    1.3421 C.3     1  UNL1        0.1420
      6 C          -2.1812   -1.6775    0.0682 C.3     1  UNL1        0.0244
      7 C          -1.0167   -0.8760   -0.4807 C.3     1  UNL1        0.1617
      8 N          -0.0378   -1.7086   -1.1417 N.2     1  UNL1        0.0825
      9 N           0.2218   -1.5762   -2.3349 N.2     1  UNL1       -0.0144
     10 N           0.4334   -1.6507   -3.5523 N.2     1  UNL1       -0.3282
     11 C          -0.4573   -0.3129    0.8338 C.3     1  UNL1        0.1139
     12 C           0.5363    0.7800    0.5611 C.3     1  UNL1        0.0876
     13 O           1.6602    0.1769   -0.0102 O.3     1  UNL1       -0.2837
     14 P           2.8721    1.2955   -0.3717 P.3     1  UNL1        0.4835
     15 O           2.2793    2.6468   -0.7034 O.2     1  UNL1       -0.2269
     16 O           3.7401    0.7786   -1.7114 O.3     1  UNL1       -0.3022
     17 O           3.9360    1.5019    0.9177 O.3     1  UNL1       -0.1858
     18 P           5.5070    1.2782    0.3900 P.3     1  UNL1        0.4918
     19 O           6.5276    1.5832    1.4378 O.2     1  UNL1       -0.2265
     20 O           5.8334    2.2543   -0.9762 O.3     1  UNL1       -0.3019
     21 O           5.7677   -0.3308   -0.1241 O.3     1  UNL1       -0.1859
     22 P           7.4398   -0.5511   -0.2105 P.3     1  UNL1        0.4808
     23 O           8.1493    0.2730    0.8384 O.2     1  UNL1       -0.2271
     24 O           7.8682   -2.1637    0.0473 O.3     1  UNL1       -0.3023
     25 O           8.0108   -0.1044   -1.7344 O.3     1  UNL1       -0.3023
     26 O          -1.6369    0.1561    1.4100 O.3     1  UNL1       -0.3485
     27 C          -4.7251   -0.5760    2.2712 C.ar    1  UNL1        0.3313
     28 O          -4.2709   -1.0562    3.3591 O.2     1  UNL1       -0.2464
     29 N          -6.0098   -0.2091    2.2522 N.ar    1  UNL1       -0.2747
     30 C          -6.5408    0.3041    1.1294 C.ar    1  UNL1        0.2568
     31 O          -7.7686    0.6552    1.1098 O.2     1  UNL1       -0.2674
     32 H          -7.3010    0.5520   -1.4822 H       1  UNL1        0.0280
     33 H          -5.6546    0.8218   -2.0999 H       1  UNL1        0.0280
     34 H          -6.4360    2.1105   -1.1640 H       1  UNL1        0.0280
     35 H          -3.7657    0.1391   -0.7646 H       1  UNL1        0.0816
     36 H          -2.3565   -1.5359    2.2196 H       1  UNL1        0.0840
     37 H          -3.0260   -1.7542   -0.6164 H       1  UNL1        0.0332
     38 H          -1.7664   -2.6666    0.3608 H       1  UNL1        0.0332
     39 H          -1.3288   -0.0071   -1.0692 H       1  UNL1        0.0643
     40 H          -0.0634   -1.1140    1.4645 H       1  UNL1        0.0644
     41 H           0.0777    1.5034   -0.1447 H       1  UNL1        0.0592
     42 H           0.8223    1.2293    1.5203 H       1  UNL1        0.0592
     43 H           3.5297   -0.1661   -1.8849 H       1  UNL1        0.2220
     44 H           6.1647    3.1435   -0.6925 H       1  UNL1        0.2220
     45 H           7.2329   -2.7392   -0.4570 H       1  UNL1        0.2220
     46 H           7.2958   -0.2424   -2.4117 H       1  UNL1        0.2220
     47 H          -6.6469   -0.2969    3.0755 H       1  UNL1        0.1734
@<TRIPOS>UNITY_ATOM_ATTR
9 1
charge 1
10 1
charge -1
@<TRIPOS>BOND
     1     1     2    1
     2     2     3   ar
     3     3     4   ar
     4     4     5    1
     5     5     6    1
     6     6     7    1
     7     7     8    1
     8     8     9    2
     9     9    10    2
    10     7    11    1
    11    11    12    1
    12    12    13    1
    13    14    13    1
    14    14    15    2
    15    14    16    1
    16    14    17    1
    17    18    17    1
    18    18    19    2
    19    18    20    1
    20    18    21    1
    21    21    22    1
    22    22    23    2
    23    22    24    1
    24    22    25    1
    25    11    26    1
    26     4    27   ar
    27    27    28    2
    28    27    29   ar
    29    29    30   ar
    30    30    31    2
    31    30     2   ar
    32    26     5    1
    33     1    32    1
    34     1    33    1
    35     1    34    1
    36     3    35    1
    37     5    36    1
    38     6    37    1
    39     6    38    1
    40     7    39    1
    41    11    40    1
    42    12    41    1
    43    12    42    1
    44    16    43    1
    45    20    44    1
    46    24    45    1
    47    25    46    1
    48    29    47    1
