
     RDKit          3D

 47 48  0  0  0  0  0  0  0  0999 V2000
   -6.3159    1.0041   -1.2244 C   0  0  0  0  0  0  0  0  0  0  0  0
   -5.7486    0.4420    0.0177 C   0  0  0  0  0  0  0  0  0  0  0  0
   -4.4320    0.0474    0.0944 C   0  0  0  0  0  0  0  0  0  0  0  0
   -3.8985   -0.4669    1.2186 N   0  0  0  0  0  0  0  0  0  0  0  0
   -2.5207   -0.8948    1.3421 C   0  0  1  0  0  0  0  0  0  0  0  0
   -2.1812   -1.6775    0.0682 C   0  0  0  0  0  0  0  0  0  0  0  0
   -1.0167   -0.8760   -0.4807 C   0  0  2  0  0  0  0  0  0  0  0  0
   -0.0378   -1.7086   -1.1417 N   0  0  0  0  0  0  0  0  0  0  0  0
    0.2218   -1.5762   -2.3349 N   0  0  0  0  0  4  0  0  0  0  0  0
    0.4334   -1.6507   -3.5523 N   0  0  0  0  0  2  0  0  0  0  0  0
   -0.4573   -0.3129    0.8338 C   0  0  1  0  0  0  0  0  0  0  0  0
    0.5363    0.7800    0.5611 C   0  0  0  0  0  0  0  0  0  0  0  0
    1.6602    0.1769   -0.0102 O   0  0  0  0  0  0  0  0  0  0  0  0
    2.8721    1.2955   -0.3717 P   0  0  2  0  0  5  0  0  0  0  0  0
    2.2793    2.6468   -0.7034 O   0  0  0  0  0  0  0  0  0  0  0  0
    3.7401    0.7786   -1.7114 O   0  0  0  0  0  0  0  0  0  0  0  0
    3.9360    1.5019    0.9177 O   0  0  0  0  0  0  0  0  0  0  0  0
    5.5070    1.2782    0.3900 P   0  0  2  0  0  5  0  0  0  0  0  0
    6.5276    1.5832    1.4378 O   0  0  0  0  0  0  0  0  0  0  0  0
    5.8334    2.2543   -0.9762 O   0  0  0  0  0  0  0  0  0  0  0  0
    5.7677   -0.3308   -0.1241 O   0  0  0  0  0  0  0  0  0  0  0  0
    7.4398   -0.5511   -0.2105 P   0  0  0  0  0  5  0  0  0  0  0  0
    8.1493    0.2730    0.8384 O   0  0  0  0  0  0  0  0  0  0  0  0
    7.8682   -2.1637    0.0473 O   0  0  0  0  0  0  0  0  0  0  0  0
    8.0108   -0.1044   -1.7344 O   0  0  0  0  0  0  0  0  0  0  0  0
   -1.6369    0.1561    1.4100 O   0  0  0  0  0  0  0  0  0  0  0  0
   -4.7251   -0.5760    2.2712 C   0  0  0  0  0  0  0  0  0  0  0  0
   -4.2709   -1.0562    3.3591 O   0  0  0  0  0  0  0  0  0  0  0  0
   -6.0098   -0.2091    2.2522 N   0  0  0  0  0  0  0  0  0  0  0  0
   -6.5408    0.3041    1.1294 C   0  0  0  0  0  0  0  0  0  0  0  0
   -7.7686    0.6552    1.1098 O   0  0  0  0  0  0  0  0  0  0  0  0
   -7.3010    0.5520   -1.4822 H   0  0  0  0  0  0  0  0  0  0  0  0
   -5.6546    0.8218   -2.0999 H   0  0  0  0  0  0  0  0  0  0  0  0
   -6.4360    2.1105   -1.1640 H   0  0  0  0  0  0  0  0  0  0  0  0
   -3.7657    0.1391   -0.7646 H   0  0  0  0  0  0  0  0  0  0  0  0
   -2.3565   -1.5359    2.2196 H   0  0  0  0  0  0  0  0  0  0  0  0
   -3.0260   -1.7542   -0.6164 H   0  0  0  0  0  0  0  0  0  0  0  0
   -1.7664   -2.6666    0.3608 H   0  0  0  0  0  0  0  0  0  0  0  0
   -1.3288   -0.0071   -1.0692 H   0  0  0  0  0  0  0  0  0  0  0  0
   -0.0634   -1.1140    1.4645 H   0  0  0  0  0  0  0  0  0  0  0  0
    0.0777    1.5034   -0.1447 H   0  0  0  0  0  0  0  0  0  0  0  0
    0.8223    1.2293    1.5203 H   0  0  0  0  0  0  0  0  0  0  0  0
    3.5297   -0.1661   -1.8849 H   0  0  0  0  0  0  0  0  0  0  0  0
    6.1647    3.1435   -0.6925 H   0  0  0  0  0  0  0  0  0  0  0  0
    7.2329   -2.7392   -0.4570 H   0  0  0  0  0  0  0  0  0  0  0  0
    7.2958   -0.2424   -2.4117 H   0  0  0  0  0  0  0  0  0  0  0  0
   -6.6469   -0.2969    3.0755 H   0  0  0  0  0  0  0  0  0  0  0  0
  1  2  1  0
  2  3  2  0
  3  4  1  0
  4  5  1  0
  5  6  1  0
  6  7  1  0
  7  8  1  0
  8  9  2  0
  9 10  2  0
  7 11  1  0
 11 12  1  0
 12 13  1  0
 14 13  1  1
 14 15  2  0
 14 16  1  0
 14 17  1  0
 18 17  1  1
 18 19  2  0
 18 20  1  0
 18 21  1  0
 21 22  1  0
 22 23  2  0
 22 24  1  0
 22 25  1  0
 11 26  1  0
  4 27  1  0
 27 28  2  0
 27 29  1  0
 29 30  1  0
 30 31  2  0
 30  2  1  0
 26  5  1  0
  1 32  1  0
  1 33  1  0
  1 34  1  0
  3 35  1  0
  5 36  1  1
  6 37  1  0
  6 38  1  0
  7 39  1  6
 11 40  1  1
 12 41  1  0
 12 42  1  0
 16 43  1  0
 20 44  1  0
 24 45  1  0
 25 46  1  0
 29 47  1  0
M  CHG  2   9   1  10  -1
M  END
$$$$
