
     RDKit          3D

 61 65  0  0  0  0  0  0  0  0999 V2000
   -5.9141    3.9952    2.3587 C   0  0  0  0  0  0  0  0  0  0  0  0
   -5.6805    2.8889    1.4329 N   0  0  0  0  0  0  0  0  0  0  0  0
   -4.5382    2.8454    0.5958 C   0  0  0  0  0  0  0  0  0  0  0  0
   -3.7458    3.8351    0.7164 O   0  0  0  0  0  0  0  0  0  0  0  0
   -4.2536    1.8044   -0.3210 N   0  0  0  0  0  0  0  0  0  0  0  0
   -5.0494    0.6471   -0.5540 C   0  0  0  0  0  0  0  0  0  0  0  0
   -4.2871   -0.6578   -0.4489 C   0  0  0  0  0  0  0  0  0  0  0  0
   -2.8100   -0.4700   -0.4770 C   0  0  0  0  0  0  0  0  0  0  0  0
   -2.2242    0.7304   -0.7887 C   0  0  0  0  0  0  0  0  0  0  0  0
   -0.8702    0.5320   -0.7160 C   0  0  0  0  0  0  0  0  0  0  0  0
    0.1464    1.4970   -0.9587 N   0  0  0  0  0  0  0  0  0  0  0  0
    1.5182    1.1456   -0.8449 C   0  0  0  0  0  0  0  0  0  0  0  0
    2.3721    1.7618    0.0421 C   0  0  0  0  0  0  0  0  0  0  0  0
    3.7238    1.4097    0.1484 C   0  0  0  0  0  0  0  0  0  0  0  0
    4.5605    2.1391    1.1057 C   0  0  0  0  0  0  0  0  0  0  0  0
    4.0835    1.9102    2.3836 F   0  0  0  0  0  0  0  0  0  0  0  0
    4.4248    3.4951    0.8170 F   0  0  0  0  0  0  0  0  0  0  0  0
    4.1788    0.4137   -0.6723 C   0  0  0  0  0  0  0  0  0  0  0  0
    5.5638   -0.0257   -0.6048 C   0  0  0  0  0  0  0  0  0  0  0  0
    6.4518   -0.1619   -1.6830 C   0  0  0  0  0  0  0  0  0  0  0  0
    7.6085   -0.6068   -1.1882 N   0  0  0  0  0  0  0  0  0  0  0  0
    7.5467   -0.7698    0.1097 N   0  0  0  0  0  0  0  0  0  0  0  0
    8.6276   -1.2412    0.9672 C   0  0  0  0  0  0  0  0  0  0  0  0
    6.3129   -0.4243    0.4973 C   0  0  0  0  0  0  0  0  0  0  0  0
    3.3175   -0.2036   -1.5633 C   0  0  0  0  0  0  0  0  0  0  0  0
    1.9873    0.1478   -1.6639 C   0  0  0  0  0  0  0  0  0  0  0  0
    1.1555   -0.4649   -2.5406 F   0  0  0  0  0  0  0  0  0  0  0  0
   -0.6924   -0.7236   -0.3784 N   0  0  0  0  0  0  0  0  0  0  0  0
   -1.8583   -1.3502   -0.2282 N   0  0  0  0  0  0  0  0  0  0  0  0
   -1.8720   -2.7331    0.1417 C   0  0  1  0  0  0  0  0  0  0  0  0
   -3.1908   -3.3100    0.5088 C   0  0  0  0  0  0  0  0  0  0  0  0
   -2.7646   -4.7959    0.5276 C   0  0  0  0  0  0  0  0  0  0  0  0
   -1.8139   -4.9275   -0.4501 O   0  0  0  0  0  0  0  0  0  0  0  0
   -1.4276   -3.6899   -0.9133 C   0  0  0  0  0  0  0  0  0  0  0  0
   -3.0195    1.9175   -1.1164 C   0  0  0  0  0  0  0  0  0  0  0  0
   -5.3317    4.8965    2.0724 H   0  0  0  0  0  0  0  0  0  0  0  0
   -6.9914    4.2340    2.4419 H   0  0  0  0  0  0  0  0  0  0  0  0
   -5.5351    3.6626    3.3460 H   0  0  0  0  0  0  0  0  0  0  0  0
   -6.3768    2.1378    1.4083 H   0  0  0  0  0  0  0  0  0  0  0  0
   -5.9278    0.6713    0.1188 H   0  0  0  0  0  0  0  0  0  0  0  0
   -5.4983    0.7804   -1.5845 H   0  0  0  0  0  0  0  0  0  0  0  0
   -4.6362   -1.1310    0.4915 H   0  0  0  0  0  0  0  0  0  0  0  0
   -4.5400   -1.2369   -1.3620 H   0  0  0  0  0  0  0  0  0  0  0  0
   -0.0986    2.4720   -1.2224 H   0  0  0  0  0  0  0  0  0  0  0  0
    1.9828    2.5515    0.6842 H   0  0  0  0  0  0  0  0  0  0  0  0
    5.6181    1.8388    1.1055 H   0  0  0  0  0  0  0  0  0  0  0  0
    6.1952    0.0656   -2.7064 H   0  0  0  0  0  0  0  0  0  0  0  0
    8.6215   -0.6413    1.8900 H   0  0  0  0  0  0  0  0  0  0  0  0
    8.4322   -2.3108    1.2269 H   0  0  0  0  0  0  0  0  0  0  0  0
    9.5854   -1.1524    0.4215 H   0  0  0  0  0  0  0  0  0  0  0  0
    5.9562   -0.4591    1.5207 H   0  0  0  0  0  0  0  0  0  0  0  0
    3.6857   -0.9764   -2.1960 H   0  0  0  0  0  0  0  0  0  0  0  0
   -1.1932   -2.9032    1.0305 H   0  0  0  0  0  0  0  0  0  0  0  0
   -3.5610   -3.0116    1.5072 H   0  0  0  0  0  0  0  0  0  0  0  0
   -3.9545   -3.2850   -0.2867 H   0  0  0  0  0  0  0  0  0  0  0  0
   -2.2795   -4.9438    1.5143 H   0  0  0  0  0  0  0  0  0  0  0  0
   -3.6377   -5.4477    0.4078 H   0  0  0  0  0  0  0  0  0  0  0  0
   -1.9737   -3.4951   -1.8599 H   0  0  0  0  0  0  0  0  0  0  0  0
   -0.3395   -3.6108   -1.1029 H   0  0  0  0  0  0  0  0  0  0  0  0
   -3.2676    1.8718   -2.1983 H   0  0  0  0  0  0  0  0  0  0  0  0
   -2.5016    2.8628   -0.9098 H   0  0  0  0  0  0  0  0  0  0  0  0
  1  2  1  0
  2  3  1  0
  3  4  2  0
  3  5  1  0
  5  6  1  0
  6  7  1  0
  7  8  1  0
  8  9  2  0
  9 10  1  0
 10 11  1  0
 11 12  1  0
 12 13  2  0
 13 14  1  0
 14 15  1  0
 15 16  1  0
 15 17  1  0
 14 18  2  0
 18 19  1  0
 19 20  1  0
 20 21  2  0
 21 22  1  0
 22 23  1  0
 22 24  1  0
 18 25  1  0
 25 26  2  0
 26 27  1  0
 10 28  2  0
 28 29  1  0
 29 30  1  0
 30 31  1  0
 31 32  1  0
 32 33  1  0
 33 34  1  0
  9 35  1  0
 35  5  1  0
 29  8  1  0
 34 30  1  0
 26 12  1  0
 24 19  2  0
  1 36  1  0
  1 37  1  0
  1 38  1  0
  2 39  1  0
  6 40  1  0
  6 41  1  0
  7 42  1  0
  7 43  1  0
 11 44  1  0
 13 45  1  0
 15 46  1  0
 20 47  1  0
 23 48  1  0
 23 49  1  0
 23 50  1  0
 24 51  1  0
 25 52  1  0
 30 53  1  1
 31 54  1  0
 31 55  1  0
 32 56  1  0
 32 57  1  0
 34 58  1  0
 34 59  1  0
 35 60  1  0
 35 61  1  0
M  END
$$$$
