@<TRIPOS>MOLECULE
*****
 61 65 0 0 0
SMALL
GASTEIGER

@<TRIPOS>ATOM
      1 C          -5.9141    3.9952    2.3587 C.3     1  UNL1        0.0015
      2 N          -5.6805    2.8889    1.4329 N.am    1  UNL1       -0.3023
      3 C          -4.5382    2.8454    0.5958 C.2     1  UNL1        0.3023
      4 O          -3.7458    3.8351    0.7164 O.2     1  UNL1       -0.2526
      5 N          -4.2536    1.8044   -0.3210 N.am    1  UNL1       -0.2808
      6 C          -5.0494    0.6471   -0.5540 C.3     1  UNL1        0.0219
      7 C          -4.2871   -0.6578   -0.4489 C.3     1  UNL1        0.0056
      8 C          -2.8100   -0.4700   -0.4770 C.ar    1  UNL1        0.0477
      9 C          -2.2242    0.7304   -0.7887 C.ar    1  UNL1        0.0325
     10 C          -0.8702    0.5320   -0.7160 C.ar    1  UNL1        0.1499
     11 N           0.1464    1.4970   -0.9587 N.pl3   1  UNL1       -0.2955
     12 C           1.5182    1.1456   -0.8449 C.ar    1  UNL1        0.0686
     13 C           2.3721    1.7618    0.0421 C.ar    1  UNL1       -0.0286
     14 C           3.7238    1.4097    0.1484 C.ar    1  UNL1        0.0272
     15 C           4.5605    2.1391    1.1057 C.3     1  UNL1        0.2650
     16 F           4.0835    1.9102    2.3836 F       1  UNL1       -0.2039
     17 F           4.4248    3.4951    0.8170 F       1  UNL1       -0.2039
     18 C           4.1788    0.4137   -0.6723 C.ar    1  UNL1       -0.0036
     19 C           5.5638   -0.0257   -0.6048 C.ar    1  UNL1        0.0201
     20 C           6.4518   -0.1619   -1.6830 C.ar    1  UNL1        0.0571
     21 N           7.6085   -0.6068   -1.1882 N.ar    1  UNL1       -0.1793
     22 N           7.5467   -0.7698    0.1097 N.ar    1  UNL1       -0.2739
     23 C           8.6276   -1.2412    0.9672 C.3     1  UNL1        0.0302
     24 C           6.3129   -0.4243    0.4973 C.ar    1  UNL1        0.0329
     25 C           3.3175   -0.2036   -1.5633 C.ar    1  UNL1       -0.0164
     26 C           1.9873    0.1478   -1.6639 C.ar    1  UNL1        0.1451
     27 F           1.1555   -0.4649   -2.5406 F       1  UNL1       -0.2035
     28 N          -0.6924   -0.7236   -0.3784 N.ar    1  UNL1       -0.1551
     29 N          -1.8583   -1.3502   -0.2282 N.ar    1  UNL1       -0.2608
     30 C          -1.8720   -2.7331    0.1417 C.3     1  UNL1        0.0784
     31 C          -3.1908   -3.3100    0.5088 C.3     1  UNL1       -0.0048
     32 C          -2.7646   -4.7959    0.5276 C.3     1  UNL1        0.0498
     33 O          -1.8139   -4.9275   -0.4501 O.3     1  UNL1       -0.3776
     34 C          -1.4276   -3.6899   -0.9133 C.3     1  UNL1        0.0701
     35 C          -3.0195    1.9175   -1.1164 C.3     1  UNL1        0.0462
     36 H          -5.3317    4.8965    2.0724 H       1  UNL1        0.0426
     37 H          -6.9914    4.2340    2.4419 H       1  UNL1        0.0426
     38 H          -5.5351    3.6626    3.3460 H       1  UNL1        0.0426
     39 H          -6.3768    2.1378    1.4083 H       1  UNL1        0.1499
     40 H          -5.9278    0.6713    0.1188 H       1  UNL1        0.0469
     41 H          -5.4983    0.7804   -1.5845 H       1  UNL1        0.0469
     42 H          -4.6362   -1.1310    0.4915 H       1  UNL1        0.0343
     43 H          -4.5400   -1.2369   -1.3620 H       1  UNL1        0.0343
     44 H          -0.0986    2.4720   -1.2224 H       1  UNL1        0.1537
     45 H           1.9828    2.5515    0.6842 H       1  UNL1        0.0642
     46 H           5.6181    1.8388    1.1055 H       1  UNL1        0.1072
     47 H           6.1952    0.0656   -2.7064 H       1  UNL1        0.0854
     48 H           8.6215   -0.6413    1.8900 H       1  UNL1        0.0473
     49 H           8.4322   -2.3108    1.2269 H       1  UNL1        0.0473
     50 H           9.5854   -1.1524    0.4215 H       1  UNL1        0.0473
     51 H           5.9562   -0.4591    1.5207 H       1  UNL1        0.0832
     52 H           3.6857   -0.9764   -2.1960 H       1  UNL1        0.0653
     53 H          -1.1932   -2.9032    1.0305 H       1  UNL1        0.0568
     54 H          -3.5610   -3.0116    1.5072 H       1  UNL1        0.0309
     55 H          -3.9545   -3.2850   -0.2867 H       1  UNL1        0.0309
     56 H          -2.2795   -4.9438    1.5143 H       1  UNL1        0.0560
     57 H          -3.6377   -5.4477    0.4078 H       1  UNL1        0.0560
     58 H          -1.9737   -3.4951   -1.8599 H       1  UNL1        0.0581
     59 H          -0.3395   -3.6108   -1.1029 H       1  UNL1        0.0581
     60 H          -3.2676    1.8718   -2.1983 H       1  UNL1        0.0516
     61 H          -2.5016    2.8628   -0.9098 H       1  UNL1        0.0516
@<TRIPOS>BOND
     1     1     2    1
     2     2     3   am
     3     3     4    2
     4     3     5   am
     5     5     6    1
     6     6     7    1
     7     7     8    1
     8     8     9   ar
     9     9    10   ar
    10    10    11    1
    11    11    12    1
    12    12    13   ar
    13    13    14   ar
    14    14    15    1
    15    15    16    1
    16    15    17    1
    17    14    18   ar
    18    18    19    1
    19    19    20   ar
    20    20    21   ar
    21    21    22   ar
    22    22    23    1
    23    22    24   ar
    24    18    25   ar
    25    25    26   ar
    26    26    27    1
    27    10    28   ar
    28    28    29   ar
    29    29    30    1
    30    30    31    1
    31    31    32    1
    32    32    33    1
    33    33    34    1
    34     9    35    1
    35    35     5    1
    36    29     8   ar
    37    34    30    1
    38    26    12   ar
    39    24    19   ar
    40     1    36    1
    41     1    37    1
    42     1    38    1
    43     2    39    1
    44     6    40    1
    45     6    41    1
    46     7    42    1
    47     7    43    1
    48    11    44    1
    49    13    45    1
    50    15    46    1
    51    20    47    1
    52    23    48    1
    53    23    49    1
    54    23    50    1
    55    24    51    1
    56    25    52    1
    57    30    53    1
    58    31    54    1
    59    31    55    1
    60    32    56    1
    61    32    57    1
    62    34    58    1
    63    34    59    1
    64    35    60    1
    65    35    61    1
