@<TRIPOS>MOLECULE
*****
 50 52 0 0 0
SMALL
GASTEIGER

@<TRIPOS>ATOM
      1 C           7.8820    1.9912   -1.4291 C.3     1  UNL1        0.0004
      2 N           7.1849    0.9003   -0.7758 N.am    1  UNL1       -0.3143
      3 C           6.0142    1.0580   -0.0073 C.2     1  UNL1        0.2464
      4 O           5.5405    2.2176    0.1213 O.2     1  UNL1       -0.2701
      5 C           5.3329   -0.0633    0.6419 C.ar    1  UNL1        0.0691
      6 C           6.0276   -0.9385    1.4882 C.ar    1  UNL1        0.0429
      7 N           5.2927   -1.9126    2.0108 N.ar    1  UNL1       -0.2393
      8 C           3.9997   -2.1396    1.8212 C.ar    1  UNL1        0.1245
      9 N           3.4186   -3.2462    2.4860 N.pl3   1  UNL1       -0.3426
     10 C           3.2470   -1.2836    0.9735 C.ar    1  UNL1        0.0300
     11 C           1.9485   -1.3941    0.6973 C.ar    1  UNL1       -0.0359
     12 C           1.4140   -0.4136   -0.1810 C.ar    1  UNL1        0.0206
     13 C           0.0367   -0.3036   -0.6385 C.ar    1  UNL1       -0.0112
     14 C          -0.9040   -1.2157   -0.2450 C.ar    1  UNL1       -0.0517
     15 C          -2.2212   -1.1011   -0.6854 C.ar    1  UNL1       -0.0348
     16 C          -2.6457   -0.0911   -1.5202 C.ar    1  UNL1        0.1053
     17 S          -4.2873    0.0745   -2.0899 S.O2    1  UNL1        0.0589
     18 O          -4.9088   -1.3047   -2.3005 O.2     1  UNL1       -0.1530
     19 O          -4.2637    0.6711   -3.4946 O.2     1  UNL1       -0.1530
     20 N          -5.2731    1.0748   -1.1511 N.3     1  UNL1       -0.1846
     21 C          -5.5007    0.6980    0.1992 C.3     1  UNL1        0.0316
     22 C          -4.2744    0.6692    1.0767 C.3     1  UNL1       -0.0457
     23 C          -6.4300    1.7670    0.7968 C.3     1  UNL1       -0.0457
     24 C          -6.2725   -0.6072    0.2784 C.3     1  UNL1       -0.0457
     25 C          -1.6596    0.8194   -1.9001 C.ar    1  UNL1       -0.0348
     26 C          -0.3554    0.7197   -1.4741 C.ar    1  UNL1       -0.0517
     27 S           2.7765    0.5766   -0.5424 S.2     1  UNL1       -0.0873
     28 C           3.9831   -0.2788    0.4283 C.ar    1  UNL1        0.0367
     29 H           7.7859    2.9419   -0.8694 H       1  UNL1        0.0426
     30 H           8.9687    1.7312   -1.4124 H       1  UNL1        0.0426
     31 H           7.5739    2.1085   -2.4846 H       1  UNL1        0.0426
     32 H           7.5700   -0.0791   -0.8755 H       1  UNL1        0.1487
     33 H           7.0619   -0.7613    1.6434 H       1  UNL1        0.0838
     34 H           2.8095   -3.9433    2.0112 H       1  UNL1        0.1437
     35 H           3.6179   -3.3588    3.5026 H       1  UNL1        0.1437
     36 H           1.2515   -2.1838    1.0934 H       1  UNL1        0.0636
     37 H          -0.6318   -2.0303    0.4087 H       1  UNL1        0.0624
     38 H          -2.9686   -1.8194   -0.3775 H       1  UNL1        0.0637
     39 H          -5.2376    2.0811   -1.3263 H       1  UNL1        0.1486
     40 H          -4.4450    1.2343    2.0459 H       1  UNL1        0.0248
     41 H          -3.3983    1.1708    0.6361 H       1  UNL1        0.0248
     42 H          -4.0560   -0.3746    1.4064 H       1  UNL1        0.0248
     43 H          -7.1894    1.2803    1.4408 H       1  UNL1        0.0248
     44 H          -6.9816    2.3114    0.0067 H       1  UNL1        0.0248
     45 H          -5.8694    2.4492    1.4766 H       1  UNL1        0.0248
     46 H          -6.9637   -0.5625    1.1386 H       1  UNL1        0.0248
     47 H          -5.6245   -1.4794    0.4322 H       1  UNL1        0.0248
     48 H          -6.8244   -0.7167   -0.6763 H       1  UNL1        0.0248
     49 H          -1.9593    1.6262   -2.5559 H       1  UNL1        0.0637
     50 H           0.4079    1.4304   -1.7727 H       1  UNL1        0.0624
@<TRIPOS>BOND
     1     1     2    1
     2     2     3   am
     3     3     4    2
     4     3     5    1
     5     5     6   ar
     6     6     7   ar
     7     7     8   ar
     8     8     9    1
     9     8    10   ar
    10    10    11   ar
    11    11    12   ar
    12    12    13    1
    13    13    14   ar
    14    14    15   ar
    15    15    16   ar
    16    16    17    1
    17    17    18    2
    18    17    19    2
    19    17    20    1
    20    20    21    1
    21    21    22    1
    22    21    23    1
    23    21    24    1
    24    16    25   ar
    25    25    26   ar
    26    12    27   ar
    27    27    28   ar
    28    28     5   ar
    29    28    10   ar
    30    26    13   ar
    31     1    29    1
    32     1    30    1
    33     1    31    1
    34     2    32    1
    35     6    33    1
    36     9    34    1
    37     9    35    1
    38    11    36    1
    39    14    37    1
    40    15    38    1
    41    20    39    1
    42    22    40    1
    43    22    41    1
    44    22    42    1
    45    23    43    1
    46    23    44    1
    47    23    45    1
    48    24    46    1
    49    24    47    1
    50    24    48    1
    51    25    49    1
    52    26    50    1
