@<TRIPOS>MOLECULE
*****
 48 52 0 0 0
SMALL
GASTEIGER

@<TRIPOS>ATOM
      1 N          -0.8568    1.3379    1.8822 N.3     1  UNL1       -0.3266
      2 C          -1.0788    0.8289    0.5184 C.3     1  UNL1        0.0132
      3 C           0.2589    0.3100   -0.0325 C.3     1  UNL1       -0.0215
      4 C           0.0100    0.0609   -1.4873 C.3     1  UNL1        0.0126
      5 N           1.2085   -0.0931   -2.2605 N.3     1  UNL1       -0.2893
      6 C           1.9880    1.1231   -2.1518 C.3     1  UNL1        0.0439
      7 C           3.0650    0.8533   -1.1776 C.ar    1  UNL1        0.0839
      8 N           3.9871    1.4460   -0.4371 N.ar    1  UNL1       -0.1683
      9 N           4.6220    0.4849    0.2275 N.ar    1  UNL1       -0.2212
     10 C           5.6499    0.6557    1.1081 C.ar    1  UNL1        0.0329
     11 C           6.1732   -0.4645    1.6926 C.ar    1  UNL1       -0.0253
     12 C           5.6464   -1.6973    1.3705 C.ar    1  UNL1        0.0314
     13 N           4.6218   -1.8365    0.4893 N.ar    1  UNL1       -0.2358
     14 C           4.1219   -0.7168   -0.0747 C.ar    1  UNL1        0.1601
     15 C           3.0958   -0.5157   -0.9959 C.ar    1  UNL1        0.0349
     16 C           2.0537   -1.1645   -1.8350 C.3     1  UNL1        0.0300
     17 C          -0.9645   -1.0525   -1.6445 C.3     1  UNL1       -0.0367
     18 C          -1.7006   -1.4456   -0.4068 C.3     1  UNL1       -0.0433
     19 C          -2.0413   -0.3032    0.5122 C.3     1  UNL1        0.0022
     20 C          -3.4689    0.0651    0.4631 C.ar    1  UNL1       -0.0048
     21 C          -4.3984   -0.3507    1.4172 C.ar    1  UNL1       -0.0174
     22 C          -5.7266    0.0106    1.3606 C.ar    1  UNL1        0.1588
     23 F          -6.5923   -0.4078    2.2950 F       1  UNL1       -0.2025
     24 C          -6.1943    0.8103    0.3413 C.ar    1  UNL1        0.1611
     25 F          -7.5177    1.1761    0.2765 F       1  UNL1       -0.2024
     26 C          -5.2919    1.2294   -0.6083 C.ar    1  UNL1        0.0119
     27 C          -3.9492    0.8589   -0.5436 C.ar    1  UNL1        0.1298
     28 F          -3.1436    1.2982   -1.5079 F       1  UNL1       -0.2051
     29 H          -1.0532    0.5554    2.5461 H       1  UNL1        0.1185
     30 H          -1.5946    2.0658    2.0558 H       1  UNL1        0.1185
     31 H          -1.4273    1.6548   -0.1133 H       1  UNL1        0.0465
     32 H           1.0079    1.0994    0.1549 H       1  UNL1        0.0295
     33 H           0.4766   -0.6233    0.5382 H       1  UNL1        0.0295
     34 H          -0.4914    0.9931   -1.8836 H       1  UNL1        0.0463
     35 H           2.3894    1.4450   -3.1430 H       1  UNL1        0.0492
     36 H           1.3558    1.9299   -1.7385 H       1  UNL1        0.0492
     37 H           6.0381    1.6504    1.3358 H       1  UNL1        0.0831
     38 H           7.0038   -0.3567    2.4075 H       1  UNL1        0.0648
     39 H           6.0837   -2.5575    1.8503 H       1  UNL1        0.0831
     40 H           2.5754   -1.5727   -2.7495 H       1  UNL1        0.0478
     41 H           1.5128   -1.9669   -1.2921 H       1  UNL1        0.0478
     42 H          -1.6897   -0.8243   -2.4697 H       1  UNL1        0.0280
     43 H          -0.3939   -1.9455   -2.0178 H       1  UNL1        0.0280
     44 H          -2.6705   -1.9002   -0.7191 H       1  UNL1        0.0272
     45 H          -1.1313   -2.2590    0.0880 H       1  UNL1        0.0272
     46 H          -1.9126   -0.7657    1.5524 H       1  UNL1        0.0365
     47 H          -4.0003   -0.9834    2.2136 H       1  UNL1        0.0651
     48 H          -5.6563    1.8603   -1.4143 H       1  UNL1        0.0676
@<TRIPOS>BOND
     1     1     2    1
     2     2     3    1
     3     3     4    1
     4     4     5    1
     5     5     6    1
     6     6     7    1
     7     7     8   ar
     8     8     9   ar
     9     9    10   ar
    10    10    11   ar
    11    11    12   ar
    12    12    13   ar
    13    13    14   ar
    14    14    15   ar
    15    15    16    1
    16     4    17    1
    17    17    18    1
    18    18    19    1
    19    19    20    1
    20    20    21   ar
    21    21    22   ar
    22    22    23    1
    23    22    24   ar
    24    24    25    1
    25    24    26   ar
    26    26    27   ar
    27    27    28    1
    28    19     2    1
    29    27    20   ar
    30    16     5    1
    31    15     7   ar
    32    14     9   ar
    33     1    29    1
    34     1    30    1
    35     2    31    1
    36     3    32    1
    37     3    33    1
    38     4    34    1
    39     6    35    1
    40     6    36    1
    41    10    37    1
    42    11    38    1
    43    12    39    1
    44    16    40    1
    45    16    41    1
    46    17    42    1
    47    17    43    1
    48    18    44    1
    49    18    45    1
    50    19    46    1
    51    21    47    1
    52    26    48    1
