
     RDKit          3D

 48 52  0  0  0  0  0  0  0  0999 V2000
   -0.8568    1.3379    1.8822 N   0  0  0  0  0  0  0  0  0  0  0  0
   -1.0788    0.8289    0.5184 C   0  0  1  0  0  0  0  0  0  0  0  0
    0.2589    0.3100   -0.0325 C   0  0  0  0  0  0  0  0  0  0  0  0
    0.0100    0.0609   -1.4873 C   0  0  1  0  0  0  0  0  0  0  0  0
    1.2085   -0.0931   -2.2605 N   0  0  0  0  0  0  0  0  0  0  0  0
    1.9880    1.1231   -2.1518 C   0  0  0  0  0  0  0  0  0  0  0  0
    3.0650    0.8533   -1.1776 C   0  0  0  0  0  0  0  0  0  0  0  0
    3.9871    1.4460   -0.4371 N   0  0  0  0  0  0  0  0  0  0  0  0
    4.6220    0.4849    0.2275 N   0  0  0  0  0  0  0  0  0  0  0  0
    5.6499    0.6557    1.1081 C   0  0  0  0  0  0  0  0  0  0  0  0
    6.1732   -0.4645    1.6926 C   0  0  0  0  0  0  0  0  0  0  0  0
    5.6464   -1.6973    1.3705 C   0  0  0  0  0  0  0  0  0  0  0  0
    4.6218   -1.8365    0.4893 N   0  0  0  0  0  0  0  0  0  0  0  0
    4.1219   -0.7168   -0.0747 C   0  0  0  0  0  0  0  0  0  0  0  0
    3.0958   -0.5157   -0.9959 C   0  0  0  0  0  0  0  0  0  0  0  0
    2.0537   -1.1645   -1.8350 C   0  0  0  0  0  0  0  0  0  0  0  0
   -0.9645   -1.0525   -1.6445 C   0  0  0  0  0  0  0  0  0  0  0  0
   -1.7006   -1.4456   -0.4068 C   0  0  0  0  0  0  0  0  0  0  0  0
   -2.0413   -0.3032    0.5122 C   0  0  2  0  0  0  0  0  0  0  0  0
   -3.4689    0.0651    0.4631 C   0  0  0  0  0  0  0  0  0  0  0  0
   -4.3984   -0.3507    1.4172 C   0  0  0  0  0  0  0  0  0  0  0  0
   -5.7266    0.0106    1.3606 C   0  0  0  0  0  0  0  0  0  0  0  0
   -6.5923   -0.4078    2.2950 F   0  0  0  0  0  0  0  0  0  0  0  0
   -6.1943    0.8103    0.3413 C   0  0  0  0  0  0  0  0  0  0  0  0
   -7.5177    1.1761    0.2765 F   0  0  0  0  0  0  0  0  0  0  0  0
   -5.2919    1.2294   -0.6083 C   0  0  0  0  0  0  0  0  0  0  0  0
   -3.9492    0.8589   -0.5436 C   0  0  0  0  0  0  0  0  0  0  0  0
   -3.1436    1.2982   -1.5079 F   0  0  0  0  0  0  0  0  0  0  0  0
   -1.0532    0.5554    2.5461 H   0  0  0  0  0  0  0  0  0  0  0  0
   -1.5946    2.0658    2.0558 H   0  0  0  0  0  0  0  0  0  0  0  0
   -1.4273    1.6548   -0.1133 H   0  0  0  0  0  0  0  0  0  0  0  0
    1.0079    1.0994    0.1549 H   0  0  0  0  0  0  0  0  0  0  0  0
    0.4766   -0.6233    0.5382 H   0  0  0  0  0  0  0  0  0  0  0  0
   -0.4914    0.9931   -1.8836 H   0  0  0  0  0  0  0  0  0  0  0  0
    2.3894    1.4450   -3.1430 H   0  0  0  0  0  0  0  0  0  0  0  0
    1.3558    1.9299   -1.7385 H   0  0  0  0  0  0  0  0  0  0  0  0
    6.0381    1.6504    1.3358 H   0  0  0  0  0  0  0  0  0  0  0  0
    7.0038   -0.3567    2.4075 H   0  0  0  0  0  0  0  0  0  0  0  0
    6.0837   -2.5575    1.8503 H   0  0  0  0  0  0  0  0  0  0  0  0
    2.5754   -1.5727   -2.7495 H   0  0  0  0  0  0  0  0  0  0  0  0
    1.5128   -1.9669   -1.2921 H   0  0  0  0  0  0  0  0  0  0  0  0
   -1.6897   -0.8243   -2.4697 H   0  0  0  0  0  0  0  0  0  0  0  0
   -0.3939   -1.9455   -2.0178 H   0  0  0  0  0  0  0  0  0  0  0  0
   -2.6705   -1.9002   -0.7191 H   0  0  0  0  0  0  0  0  0  0  0  0
   -1.1313   -2.2590    0.0880 H   0  0  0  0  0  0  0  0  0  0  0  0
   -1.9126   -0.7657    1.5524 H   0  0  0  0  0  0  0  0  0  0  0  0
   -4.0003   -0.9834    2.2136 H   0  0  0  0  0  0  0  0  0  0  0  0
   -5.6563    1.8603   -1.4143 H   0  0  0  0  0  0  0  0  0  0  0  0
  1  2  1  0
  2  3  1  0
  3  4  1  0
  4  5  1  0
  5  6  1  0
  6  7  1  0
  7  8  2  0
  8  9  1  0
  9 10  1  0
 10 11  2  0
 11 12  1  0
 12 13  2  0
 13 14  1  0
 14 15  2  0
 15 16  1  0
  4 17  1  0
 17 18  1  0
 18 19  1  0
 19 20  1  0
 20 21  2  0
 21 22  1  0
 22 23  1  0
 22 24  2  0
 24 25  1  0
 24 26  1  0
 26 27  2  0
 27 28  1  0
 19  2  1  0
 27 20  1  0
 16  5  1  0
 15  7  1  0
 14  9  1  0
  1 29  1  0
  1 30  1  0
  2 31  1  6
  3 32  1  0
  3 33  1  0
  4 34  1  6
  6 35  1  0
  6 36  1  0
 10 37  1  0
 11 38  1  0
 12 39  1  0
 16 40  1  0
 16 41  1  0
 17 42  1  0
 17 43  1  0
 18 44  1  0
 18 45  1  0
 19 46  1  1
 21 47  1  0
 26 48  1  0
M  END
$$$$
