@<TRIPOS>MOLECULE
*****
 32 33 0 0 0
SMALL
GASTEIGER

@<TRIPOS>ATOM
      1 C           4.8339    2.0400    0.1676 C.3     1  UNL1       -0.0306
      2 C           3.4953    1.3852    0.1157 C.3     1  UNL1        0.0899
      3 O           3.5548   -0.0186    0.2560 O.3     1  UNL1       -0.4626
      4 C           2.3754   -0.7491    0.2251 C.ar    1  UNL1        0.3234
      5 N           2.4805   -2.0851    0.3629 N.ar    1  UNL1       -0.1652
      6 C           1.3795   -2.8507    0.3421 C.ar    1  UNL1        0.2392
      7 C           1.5150   -4.2632    0.4898 C.1     1  UNL1        0.1402
      8 N           1.6178   -5.4050    0.6110 N.1     1  UNL1       -0.1876
      9 N           0.1955   -2.2749    0.1849 N.ar    1  UNL1       -0.1849
     10 C           0.0239   -0.9416    0.0417 C.ar    1  UNL1        0.2247
     11 N          -1.2629   -0.3453   -0.1263 N.pl3   1  UNL1       -0.2995
     12 C          -2.4043   -1.2320   -0.1386 C.3     1  UNL1        0.0149
     13 C          -3.6863   -0.5818    0.2308 C.3     1  UNL1       -0.0371
     14 C          -3.8310    0.8160   -0.3100 C.3     1  UNL1       -0.0502
     15 C          -2.6549    1.6839   -0.0388 C.3     1  UNL1       -0.0371
     16 C          -1.3328    1.0710   -0.2692 C.3     1  UNL1        0.0149
     17 N           1.1612   -0.2022    0.0681 N.ar    1  UNL1       -0.1610
     18 H           4.7604    3.0232   -0.3379 H       1  UNL1        0.0262
     19 H           5.6336    1.4461   -0.3390 H       1  UNL1        0.0262
     20 H           5.1671    2.1608    1.2229 H       1  UNL1        0.0262
     21 H           2.8643    1.8036    0.9177 H       1  UNL1        0.0695
     22 H           3.0005    1.5972   -0.8526 H       1  UNL1        0.0695
     23 H          -2.4285   -1.7500   -1.1357 H       1  UNL1        0.0464
     24 H          -2.1977   -2.0365    0.6071 H       1  UNL1        0.0464
     25 H          -4.5166   -1.1908   -0.2328 H       1  UNL1        0.0280
     26 H          -3.8799   -0.6097    1.3239 H       1  UNL1        0.0280
     27 H          -4.7230    1.2665    0.1843 H       1  UNL1        0.0266
     28 H          -4.0988    0.7863   -1.4069 H       1  UNL1        0.0266
     29 H          -2.7919    2.6336   -0.6021 H       1  UNL1        0.0280
     30 H          -2.7115    1.9905    1.0467 H       1  UNL1        0.0280
     31 H          -1.0008    1.3184   -1.3125 H       1  UNL1        0.0464
     32 H          -0.5377    1.5140    0.3966 H       1  UNL1        0.0464
@<TRIPOS>BOND
     1     1     2    1
     2     2     3    1
     3     3     4    1
     4     4     5   ar
     5     5     6   ar
     6     6     7    1
     7     7     8    3
     8     6     9   ar
     9     9    10   ar
    10    10    11    1
    11    11    12    1
    12    12    13    1
    13    13    14    1
    14    14    15    1
    15    15    16    1
    16    10    17   ar
    17    17     4   ar
    18    16    11    1
    19     1    18    1
    20     1    19    1
    21     1    20    1
    22     2    21    1
    23     2    22    1
    24    12    23    1
    25    12    24    1
    26    13    25    1
    27    13    26    1
    28    14    27    1
    29    14    28    1
    30    15    29    1
    31    15    30    1
    32    16    31    1
    33    16    32    1
