
     RDKit          3D

 32 33  0  0  0  0  0  0  0  0999 V2000
    4.8339    2.0400    0.1676 C   0  0  0  0  0  0  0  0  0  0  0  0
    3.4953    1.3852    0.1157 C   0  0  0  0  0  0  0  0  0  0  0  0
    3.5548   -0.0186    0.2560 O   0  0  0  0  0  0  0  0  0  0  0  0
    2.3754   -0.7491    0.2251 C   0  0  0  0  0  0  0  0  0  0  0  0
    2.4805   -2.0851    0.3629 N   0  0  0  0  0  0  0  0  0  0  0  0
    1.3795   -2.8507    0.3421 C   0  0  0  0  0  0  0  0  0  0  0  0
    1.5150   -4.2632    0.4898 C   0  0  0  0  0  0  0  0  0  0  0  0
    1.6178   -5.4050    0.6110 N   0  0  0  0  0  0  0  0  0  0  0  0
    0.1955   -2.2749    0.1849 N   0  0  0  0  0  0  0  0  0  0  0  0
    0.0239   -0.9416    0.0417 C   0  0  0  0  0  0  0  0  0  0  0  0
   -1.2629   -0.3453   -0.1263 N   0  0  0  0  0  0  0  0  0  0  0  0
   -2.4043   -1.2320   -0.1386 C   0  0  0  0  0  0  0  0  0  0  0  0
   -3.6863   -0.5818    0.2308 C   0  0  0  0  0  0  0  0  0  0  0  0
   -3.8310    0.8160   -0.3100 C   0  0  0  0  0  0  0  0  0  0  0  0
   -2.6549    1.6839   -0.0388 C   0  0  0  0  0  0  0  0  0  0  0  0
   -1.3328    1.0710   -0.2692 C   0  0  0  0  0  0  0  0  0  0  0  0
    1.1612   -0.2022    0.0681 N   0  0  0  0  0  0  0  0  0  0  0  0
    4.7604    3.0232   -0.3379 H   0  0  0  0  0  0  0  0  0  0  0  0
    5.6336    1.4461   -0.3390 H   0  0  0  0  0  0  0  0  0  0  0  0
    5.1671    2.1608    1.2229 H   0  0  0  0  0  0  0  0  0  0  0  0
    2.8643    1.8036    0.9177 H   0  0  0  0  0  0  0  0  0  0  0  0
    3.0005    1.5972   -0.8526 H   0  0  0  0  0  0  0  0  0  0  0  0
   -2.4285   -1.7500   -1.1357 H   0  0  0  0  0  0  0  0  0  0  0  0
   -2.1977   -2.0365    0.6071 H   0  0  0  0  0  0  0  0  0  0  0  0
   -4.5166   -1.1908   -0.2328 H   0  0  0  0  0  0  0  0  0  0  0  0
   -3.8799   -0.6097    1.3239 H   0  0  0  0  0  0  0  0  0  0  0  0
   -4.7230    1.2665    0.1843 H   0  0  0  0  0  0  0  0  0  0  0  0
   -4.0988    0.7863   -1.4069 H   0  0  0  0  0  0  0  0  0  0  0  0
   -2.7919    2.6336   -0.6021 H   0  0  0  0  0  0  0  0  0  0  0  0
   -2.7115    1.9905    1.0467 H   0  0  0  0  0  0  0  0  0  0  0  0
   -1.0008    1.3184   -1.3125 H   0  0  0  0  0  0  0  0  0  0  0  0
   -0.5377    1.5140    0.3966 H   0  0  0  0  0  0  0  0  0  0  0  0
  1  2  1  0
  2  3  1  0
  3  4  1  0
  4  5  2  0
  5  6  1  0
  6  7  1  0
  7  8  3  0
  6  9  2  0
  9 10  1  0
 10 11  1  0
 11 12  1  0
 12 13  1  0
 13 14  1  0
 14 15  1  0
 15 16  1  0
 10 17  2  0
 17  4  1  0
 16 11  1  0
  1 18  1  0
  1 19  1  0
  1 20  1  0
  2 21  1  0
  2 22  1  0
 12 23  1  0
 12 24  1  0
 13 25  1  0
 13 26  1  0
 14 27  1  0
 14 28  1  0
 15 29  1  0
 15 30  1  0
 16 31  1  0
 16 32  1  0
M  END
$$$$
