@<TRIPOS>MOLECULE
*****
 42 45 0 0 0
SMALL
GASTEIGER

@<TRIPOS>ATOM
      1 C           2.4855    0.3630   -1.5780 C.3     1  UNL1       -0.0275
      2 C           1.8489    0.4533   -0.1630 C.3     1  UNL1        0.1021
      3 O           0.6412   -0.1016   -0.2302 O.3     1  UNL1       -0.4880
      4 C          -0.6561    0.0181   -0.1286 C.ar    1  UNL1        0.1322
      5 C          -1.4749   -1.1052   -0.3556 C.ar    1  UNL1       -0.0100
      6 C          -2.8397   -1.0516   -0.2662 C.ar    1  UNL1        0.0064
      7 C          -3.6304   -2.2943   -0.5238 C.ar    1  UNL1        0.0783
      8 C          -3.0137   -3.4635   -0.8423 C.ar    1  UNL1        0.0031
      9 S          -4.4373   -4.5997   -1.0386 S.2     1  UNL1       -0.0833
     10 C          -5.6805   -3.2632   -0.6445 C.ar    1  UNL1        0.0654
     11 N          -4.9290   -2.3012   -0.4529 N.ar    1  UNL1       -0.2474
     12 C          -3.4550    0.1357    0.0565 C.ar    1  UNL1       -0.0246
     13 C          -2.6922    1.2560    0.2859 C.ar    1  UNL1        0.0968
     14 N          -3.0295    2.5378    0.6161 N.ar    1  UNL1       -0.1713
     15 N          -1.9515    3.2750    0.7348 N.ar    1  UNL1       -0.2732
     16 C          -1.8381    4.6922    1.0727 C.3     1  UNL1        0.0302
     17 C          -0.8855    2.4677    0.4791 C.ar    1  UNL1        0.0364
     18 C          -1.3210    1.1820    0.1913 C.ar    1  UNL1        0.0614
     19 C           2.7991   -0.2525    0.8183 C.3     1  UNL1        0.0195
     20 C           3.0066   -1.6872    0.4655 C.3     1  UNL1        0.0182
     21 N           4.3986   -1.8181    0.0322 N.am    1  UNL1       -0.3149
     22 C           5.0216   -0.5396    0.0239 C.2     1  UNL1        0.2135
     23 O           6.1094   -0.3235   -0.5707 O.2     1  UNL1       -0.2758
     24 C           4.1679    0.3708    0.8010 C.3     1  UNL1        0.0315
     25 H           1.9066    1.1081   -2.1783 H       1  UNL1        0.0265
     26 H           3.5389    0.6442   -1.5498 H       1  UNL1        0.0265
     27 H           2.2788   -0.6268   -2.0244 H       1  UNL1        0.0265
     28 H           1.9689    1.5271    0.0912 H       1  UNL1        0.0733
     29 H          -0.9564   -2.0182   -0.6063 H       1  UNL1        0.0661
     30 H          -2.0005   -3.7587   -0.9706 H       1  UNL1        0.0715
     31 H          -6.7444   -3.4782   -0.6372 H       1  UNL1        0.0907
     32 H          -4.5293    0.1801    0.1274 H       1  UNL1        0.0646
     33 H          -0.9751    5.1089    0.5391 H       1  UNL1        0.0473
     34 H          -2.7841    5.2277    0.8635 H       1  UNL1        0.0473
     35 H          -1.6397    4.8248    2.1663 H       1  UNL1        0.0473
     36 H           0.1389    2.8070    0.5042 H       1  UNL1        0.0833
     37 H           2.3886   -0.1492    1.8426 H       1  UNL1        0.0356
     38 H           2.8876   -2.3246    1.3694 H       1  UNL1        0.0466
     39 H           2.3064   -2.0594   -0.3077 H       1  UNL1        0.0466
     40 H           4.8023   -2.7376   -0.2157 H       1  UNL1        0.1487
     41 H           4.1801    1.3869    0.3543 H       1  UNL1        0.0363
     42 H           4.5881    0.3875    1.8487 H       1  UNL1        0.0363
@<TRIPOS>BOND
     1     1     2    1
     2     2     3    1
     3     3     4    1
     4     4     5   ar
     5     5     6   ar
     6     6     7    1
     7     7     8   ar
     8     8     9   ar
     9     9    10   ar
    10    10    11   ar
    11     6    12   ar
    12    12    13   ar
    13    13    14   ar
    14    14    15   ar
    15    15    16    1
    16    15    17   ar
    17    17    18   ar
    18     2    19    1
    19    19    20    1
    20    20    21    1
    21    21    22   am
    22    22    23    2
    23    22    24    1
    24    18     4   ar
    25    24    19    1
    26    11     7   ar
    27    18    13   ar
    28     1    25    1
    29     1    26    1
    30     1    27    1
    31     2    28    1
    32     5    29    1
    33     8    30    1
    34    10    31    1
    35    12    32    1
    36    16    33    1
    37    16    34    1
    38    16    35    1
    39    17    36    1
    40    19    37    1
    41    20    38    1
    42    20    39    1
    43    21    40    1
    44    24    41    1
    45    24    42    1
