
     RDKit          3D

 27 28  0  0  0  0  0  0  0  0999 V2000
   -5.9005   -1.2720   -0.6819 F   0  0  0  0  0  0  0  0  0  0  0  0
   -4.6752   -0.7063   -0.7098 C   0  0  0  0  0  0  0  0  0  0  0  0
   -3.6646   -1.2757    0.0384 C   0  0  0  0  0  0  0  0  0  0  0  0
   -2.4053   -0.7186    0.0279 C   0  0  0  0  0  0  0  0  0  0  0  0
   -2.1016    0.4104   -0.7150 C   0  0  0  0  0  0  0  0  0  0  0  0
   -0.8030    0.6883   -0.5050 N   0  0  0  0  0  0  0  0  0  0  0  0
   -0.2407   -0.1993    0.3361 C   0  0  0  0  0  0  0  0  0  0  0  0
   -1.2500   -1.0832    0.6701 C   0  0  0  0  0  0  0  0  0  0  0  0
    1.1440   -0.2533    0.8208 C   0  0  0  0  0  0  0  0  0  0  0  0
    1.4866   -1.1769    1.6182 O   0  0  0  0  0  0  0  0  0  0  0  0
    2.0707    0.7272    0.3886 N   0  0  0  0  0  0  0  0  0  0  0  0
    3.4567    0.7424    0.8222 C   0  0  0  0  0  0  0  0  0  0  0  0
    4.1673   -0.5298    0.4294 C   0  0  0  0  0  0  0  0  0  0  0  0
    5.9009   -0.5087    0.9729 S   0  0  0  0  0  0  0  0  0  0  0  0
   -3.1058    0.9958   -1.4730 C   0  0  0  0  0  0  0  0  0  0  0  0
   -4.3796    0.4178   -1.4517 C   0  0  0  0  0  0  0  0  0  0  0  0
   -3.8584   -2.1669    0.6396 H   0  0  0  0  0  0  0  0  0  0  0  0
   -0.3184    1.5031   -0.9560 H   0  0  0  0  0  0  0  0  0  0  0  0
   -1.1311   -1.9274    1.3367 H   0  0  0  0  0  0  0  0  0  0  0  0
    1.7061    1.4690   -0.2805 H   0  0  0  0  0  0  0  0  0  0  0  0
    3.4899    0.8816    1.9239 H   0  0  0  0  0  0  0  0  0  0  0  0
    3.9643    1.5944    0.3444 H   0  0  0  0  0  0  0  0  0  0  0  0
    4.1378   -0.5675   -0.6872 H   0  0  0  0  0  0  0  0  0  0  0  0
    3.7016   -1.3993    0.9052 H   0  0  0  0  0  0  0  0  0  0  0  0
    6.6849    0.4068    0.2854 H   0  0  0  0  0  0  0  0  0  0  0  0
   -2.9002    1.8747   -2.0614 H   0  0  0  0  0  0  0  0  0  0  0  0
   -5.1761    0.8626   -2.0384 H   0  0  0  0  0  0  0  0  0  0  0  0
  1  2  1  0
  2  3  2  0
  3  4  1  0
  4  5  2  0
  5  6  1  0
  6  7  1  0
  7  8  2  0
  7  9  1  0
  9 10  2  0
  9 11  1  0
 11 12  1  0
 12 13  1  0
 13 14  1  0
  5 15  1  0
 15 16  2  0
 16  2  1  0
  8  4  1  0
  3 17  1  0
  6 18  1  0
  8 19  1  0
 11 20  1  0
 12 21  1  0
 12 22  1  0
 13 23  1  0
 13 24  1  0
 14 25  1  0
 15 26  1  0
 16 27  1  0
M  END
$$$$
