
     RDKit          3D

 85 87  0  0  0  0  0  0  0  0999 V2000
   -3.0809   -0.9314    0.1595 C   0  0  1  0  0  0  0  0  0  0  0  0
   -2.2955   -1.7047    1.2439 C   0  0  0  0  0  0  0  0  0  0  0  0
   -1.1024   -0.8055    1.4693 C   0  0  0  0  0  0  0  0  0  0  0  0
   -1.1656    0.2657    0.4255 C   0  0  1  0  0  0  0  0  0  0  0  0
    0.0906    0.7501   -0.1152 C   0  0  0  0  0  0  0  0  0  0  0  0
   -0.2397    1.8686   -1.0693 C   0  0  0  0  0  0  0  0  0  0  0  0
   -1.1776    1.4182   -2.1396 C   0  0  0  0  0  0  0  0  0  0  0  0
   -2.3020    0.5579   -1.6984 C   0  0  0  0  0  0  0  0  0  0  0  0
   -1.9192   -0.4522   -0.6749 C   0  0  2  0  0  0  0  0  0  0  0  0
   -1.0335   -1.4943   -1.2392 C   0  0  0  0  0  0  0  0  0  0  0  0
    1.3703    0.4148    0.0631 C   0  0  0  0  0  0  0  0  0  0  0  0
    2.4958    1.0438   -0.5931 C   0  0  0  0  0  0  0  0  0  0  0  0
    3.7386    0.6225   -0.3324 C   0  0  0  0  0  0  0  0  0  0  0  0
    4.9132    1.2774   -1.0214 C   0  0  0  0  0  0  0  0  0  0  0  0
    5.7800    0.1510   -1.5369 C   0  0  1  0  0  0  0  0  0  0  0  0
    6.8199    0.5843   -2.3338 O   0  0  0  0  0  0  0  0  0  0  0  0
    6.3233   -0.5716   -0.2793 C   0  0  1  0  0  0  0  0  0  0  0  0
    6.6307    0.4870    0.5862 O   0  0  0  0  0  0  0  0  0  0  0  0
    7.9785    0.6208    0.7909 C   0  0  0  0  0  0  0  0  0  0  0  0
    8.6386   -0.5147    1.5078 C   0  0  0  0  0  0  0  0  0  0  0  0
    8.1215   -0.6212    2.9014 C   0  0  0  0  0  0  0  0  0  0  0  0
    6.7719   -0.8236    2.9867 O   0  0  0  0  0  0  0  0  0  0  0  0
    5.1734   -1.3496    0.2443 C   0  0  2  0  0  0  0  0  0  0  0  0
    4.6993   -2.1450   -0.8378 O   0  0  0  0  0  0  0  0  0  0  0  0
    4.0316   -0.4701    0.6276 C   0  0  0  0  0  0  0  0  0  0  0  0
    3.2416   -0.4882    1.6868 C   0  0  0  0  0  0  0  0  0  0  0  0
   -4.0995   -1.7229   -0.4706 C   0  0  2  0  0  0  0  0  0  0  0  0
   -3.6346   -2.9639   -1.2156 C   0  0  0  0  0  0  0  0  0  0  0  0
   -5.2368   -1.1158   -1.1752 C   0  0  0  0  0  0  0  0  0  0  0  0
   -6.2648   -0.2905   -0.5327 C   0  0  0  0  0  0  0  0  0  0  0  0
   -5.8451    0.9387    0.1538 C   0  0  0  0  0  0  0  0  0  0  0  0
   -7.0823    1.7238    0.6731 C   0  0  0  0  0  0  0  0  0  0  0  0
   -6.5858    2.9721    1.3658 C   0  0  0  0  0  0  0  0  0  0  0  0
   -8.0058    2.1026   -0.4357 C   0  0  0  0  0  0  0  0  0  0  0  0
   -7.7507    0.9539    1.6216 O   0  0  0  0  0  0  0  0  0  0  0  0
   -3.4408   -0.0525    0.6723 H   0  0  0  0  0  0  0  0  0  0  0  0
   -2.9510   -1.7440    2.1603 H   0  0  0  0  0  0  0  0  0  0  0  0
   -2.0645   -2.7109    0.9046 H   0  0  0  0  0  0  0  0  0  0  0  0
   -0.2318   -1.4442    1.4853 H   0  0  0  0  0  0  0  0  0  0  0  0
   -1.2546   -0.2881    2.4581 H   0  0  0  0  0  0  0  0  0  0  0  0
   -1.8036    1.1085    0.7778 H   0  0  0  0  0  0  0  0  0  0  0  0
    0.6266    2.3303   -1.5109 H   0  0  0  0  0  0  0  0  0  0  0  0
   -0.7302    2.6591   -0.4255 H   0  0  0  0  0  0  0  0  0  0  0  0
   -0.5849    0.9795   -2.9725 H   0  0  0  0  0  0  0  0  0  0  0  0
   -1.6143    2.3544   -2.5863 H   0  0  0  0  0  0  0  0  0  0  0  0
   -2.6149   -0.0360   -2.6122 H   0  0  0  0  0  0  0  0  0  0  0  0
   -3.1394    1.1908   -1.4119 H   0  0  0  0  0  0  0  0  0  0  0  0
    0.0682   -1.2636   -1.1311 H   0  0  0  0  0  0  0  0  0  0  0  0
   -1.1296   -2.5082   -0.8628 H   0  0  0  0  0  0  0  0  0  0  0  0
   -1.1540   -1.4472   -2.3668 H   0  0  0  0  0  0  0  0  0  0  0  0
    1.2314   -0.3716    0.7517 H   0  0  0  0  0  0  0  0  0  0  0  0
    2.4598    1.8523   -1.3006 H   0  0  0  0  0  0  0  0  0  0  0  0
    5.4120    1.9144   -0.2802 H   0  0  0  0  0  0  0  0  0  0  0  0
    4.5555    1.9327   -1.8427 H   0  0  0  0  0  0  0  0  0  0  0  0
    5.1216   -0.5737   -2.0447 H   0  0  0  0  0  0  0  0  0  0  0  0
    6.4359    0.7450   -3.2405 H   0  0  0  0  0  0  0  0  0  0  0  0
    7.1944   -1.1513   -0.5972 H   0  0  0  0  0  0  0  0  0  0  0  0
    8.5448    0.7375   -0.1767 H   0  0  0  0  0  0  0  0  0  0  0  0
    8.2300    1.5504    1.3692 H   0  0  0  0  0  0  0  0  0  0  0  0
    9.7305   -0.3015    1.5046 H   0  0  0  0  0  0  0  0  0  0  0  0
    8.4923   -1.4608    0.9353 H   0  0  0  0  0  0  0  0  0  0  0  0
    8.3787    0.3361    3.4312 H   0  0  0  0  0  0  0  0  0  0  0  0
    8.6987   -1.4038    3.4790 H   0  0  0  0  0  0  0  0  0  0  0  0
    6.5375   -1.3734    3.7744 H   0  0  0  0  0  0  0  0  0  0  0  0
    5.4423   -2.0430    1.0476 H   0  0  0  0  0  0  0  0  0  0  0  0
    5.4085   -2.7528   -1.1414 H   0  0  0  0  0  0  0  0  0  0  0  0
    2.7691   -0.7606    2.6407 H   0  0  0  0  0  0  0  0  0  0  0  0
    2.8445   -0.8265    2.6222 H   0  0  0  0  0  0  0  0  0  0  0  0
   -4.6218   -2.2565    0.4513 H   0  0  0  0  0  0  0  0  0  0  0  0
   -3.1749   -3.6904   -0.5206 H   0  0  0  0  0  0  0  0  0  0  0  0
   -4.6041   -3.4683   -1.5099 H   0  0  0  0  0  0  0  0  0  0  0  0
   -3.1220   -2.7795   -2.1491 H   0  0  0  0  0  0  0  0  0  0  0  0
   -5.7934   -1.9675   -1.7513 H   0  0  0  0  0  0  0  0  0  0  0  0
   -4.8616   -0.4632   -2.0615 H   0  0  0  0  0  0  0  0  0  0  0  0
   -7.0042   -0.0103   -1.3453 H   0  0  0  0  0  0  0  0  0  0  0  0
   -6.8261   -0.9155    0.2365 H   0  0  0  0  0  0  0  0  0  0  0  0
   -5.3328    0.7316    1.1364 H   0  0  0  0  0  0  0  0  0  0  0  0
   -5.2760    1.6458   -0.4539 H   0  0  0  0  0  0  0  0  0  0  0  0
   -5.7933    3.3992    0.7412 H   0  0  0  0  0  0  0  0  0  0  0  0
   -7.4569    3.6596    1.5253 H   0  0  0  0  0  0  0  0  0  0  0  0
   -6.1319    2.6657    2.3359 H   0  0  0  0  0  0  0  0  0  0  0  0
   -8.4856    3.0680   -0.2070 H   0  0  0  0  0  0  0  0  0  0  0  0
   -7.4640    2.2383   -1.4087 H   0  0  0  0  0  0  0  0  0  0  0  0
   -8.8376    1.3605   -0.5329 H   0  0  0  0  0  0  0  0  0  0  0  0
   -8.6793    1.3167    1.6909 H   0  0  0  0  0  0  0  0  0  0  0  0
  1  2  1  0
  2  3  1  0
  3  4  1  0
  4  5  1  0
  5  6  1  0
  6  7  1  0
  7  8  1  0
  8  9  1  0
  9 10  1  6
  5 11  2  0
 11 12  1  0
 12 13  2  0
 13 14  1  0
 14 15  1  0
 15 16  1  0
 15 17  1  0
 17 18  1  0
 18 19  1  0
 19 20  1  0
 20 21  1  0
 21 22  1  0
 17 23  1  0
 23 24  1  0
 23 25  1  0
 25 26  2  0
  1 27  1  0
 27 28  1  0
 27 29  1  0
 29 30  1  0
 30 31  1  0
 31 32  1  0
 32 33  1  0
 32 34  1  0
 32 35  1  0
  9  1  1  0
 25 13  1  0
  9  4  1  0
  1 36  1  1
  2 37  1  0
  2 38  1  0
  3 39  1  0
  3 40  1  0
  4 41  1  1
  6 42  1  0
  6 43  1  0
  7 44  1  0
  7 45  1  0
  8 46  1  0
  8 47  1  0
 10 48  1  0
 10 49  1  0
 10 50  1  0
 11 51  1  0
 12 52  1  0
 14 53  1  0
 14 54  1  0
 15 55  1  6
 16 56  1  0
 17 57  1  6
 19 58  1  0
 19 59  1  0
 20 60  1  0
 20 61  1  0
 21 62  1  0
 21 63  1  0
 22 64  1  0
 23 65  1  1
 24 66  1  0
 26 67  1  0
 26 68  1  0
 27 69  1  1
 28 70  1  0
 28 71  1  0
 28 72  1  0
 29 73  1  0
 29 74  1  0
 30 75  1  0
 30 76  1  0
 31 77  1  0
 31 78  1  0
 33 79  1  0
 33 80  1  0
 33 81  1  0
 34 82  1  0
 34 83  1  0
 34 84  1  0
 35 85  1  0
M  END
$$$$
