
     RDKit          3D

 56 60  0  0  0  0  0  0  0  0999 V2000
    5.5452    3.6999   -0.1176 C   0  0  0  0  0  0  0  0  0  0  0  0
    5.0053    2.5447   -0.6567 O   0  0  0  0  0  0  0  0  0  0  0  0
    5.6659    1.4351   -0.1688 C   0  0  0  0  0  0  0  0  0  0  0  0
    5.0662    0.1930   -0.7647 C   0  0  2  0  0  0  0  0  0  0  0  0
    5.0061    0.3438   -2.2907 C   0  0  0  0  0  0  0  0  0  0  0  0
    4.0174   -0.7508   -2.6409 C   0  0  0  0  0  0  0  0  0  0  0  0
    3.3141   -1.0870   -1.3415 C   0  0  0  0  0  0  0  0  0  0  0  0
    3.6587    0.0372   -0.4569 N   0  0  0  0  0  0  0  0  0  0  0  0
    3.3845   -0.3803    1.1930 S   0  0  0  0  0  6  0  0  0  0  0  0
    3.7266    0.8351    2.0159 O   0  0  0  0  0  0  0  0  0  0  0  0
    4.2782   -1.5092    1.6235 O   0  0  0  0  0  0  0  0  0  0  0  0
    1.7047   -0.7325    1.4083 C   0  0  0  0  0  0  0  0  0  0  0  0
    0.8327    0.2730    1.7489 C   0  0  0  0  0  0  0  0  0  0  0  0
   -0.5297    0.0036    1.9266 C   0  0  0  0  0  0  0  0  0  0  0  0
   -1.0112   -1.2621    1.7638 C   0  0  0  0  0  0  0  0  0  0  0  0
   -0.1414   -2.2803    1.4213 C   0  0  0  0  0  0  0  0  0  0  0  0
    1.2004   -1.9984    1.2495 C   0  0  0  0  0  0  0  0  0  0  0  0
   -0.8968   -3.5462    1.3067 C   0  0  0  0  0  0  0  0  0  0  0  0
   -0.3906   -4.6500    1.0095 O   0  0  0  0  0  0  0  0  0  0  0  0
   -2.2701   -3.1863    1.6083 C   0  0  0  0  0  0  0  0  0  0  0  0
   -3.2425   -3.9890    1.6193 O   0  0  0  0  0  0  0  0  0  0  0  0
   -2.3313   -1.7752    1.8889 N   0  0  0  0  0  0  0  0  0  0  0  0
   -3.5317   -1.0529    2.2341 C   0  0  0  0  0  0  0  0  0  0  0  0
   -4.2759   -0.5362    1.0643 C   0  0  0  0  0  0  0  0  0  0  0  0
   -5.2534   -1.2606    0.4048 C   0  0  0  0  0  0  0  0  0  0  0  0
   -5.9276   -0.7347   -0.6871 C   0  0  0  0  0  0  0  0  0  0  0  0
   -5.6472    0.5297   -1.1540 C   0  0  0  0  0  0  0  0  0  0  0  0
   -6.3847    1.0958   -2.3427 C   0  0  0  0  0  0  0  0  0  0  0  0
   -7.3297    2.2206   -1.9890 C   0  0  0  0  0  0  0  0  0  0  0  0
   -7.7494    0.9435   -2.3999 O   0  0  0  0  0  0  0  0  0  0  0  0
   -4.6798    1.2620   -0.5107 C   0  0  0  0  0  0  0  0  0  0  0  0
   -4.0215    0.7224    0.5716 C   0  0  0  0  0  0  0  0  0  0  0  0
    5.4175    3.6218    0.9922 H   0  0  0  0  0  0  0  0  0  0  0  0
    6.6159    3.8047   -0.3912 H   0  0  0  0  0  0  0  0  0  0  0  0
    5.0025    4.5795   -0.5322 H   0  0  0  0  0  0  0  0  0  0  0  0
    5.7175    1.3604    0.9145 H   0  0  0  0  0  0  0  0  0  0  0  0
    6.7152    1.4923   -0.5511 H   0  0  0  0  0  0  0  0  0  0  0  0
    5.6511   -0.7110   -0.5689 H   0  0  0  0  0  0  0  0  0  0  0  0
    4.5436    1.3205   -2.4853 H   0  0  0  0  0  0  0  0  0  0  0  0
    5.9902    0.2047   -2.7527 H   0  0  0  0  0  0  0  0  0  0  0  0
    4.6368   -1.6144   -3.0000 H   0  0  0  0  0  0  0  0  0  0  0  0
    3.3155   -0.4475   -3.4398 H   0  0  0  0  0  0  0  0  0  0  0  0
    3.7222   -2.0322   -0.9612 H   0  0  0  0  0  0  0  0  0  0  0  0
    2.2159   -1.1572   -1.4757 H   0  0  0  0  0  0  0  0  0  0  0  0
    1.1270    1.3046    1.8981 H   0  0  0  0  0  0  0  0  0  0  0  0
   -1.2092    0.8071    2.1985 H   0  0  0  0  0  0  0  0  0  0  0  0
    1.8875   -2.7861    0.9820 H   0  0  0  0  0  0  0  0  0  0  0  0
   -3.3108   -0.2183    2.9621 H   0  0  0  0  0  0  0  0  0  0  0  0
   -4.2089   -1.7393    2.8224 H   0  0  0  0  0  0  0  0  0  0  0  0
   -5.4761   -2.2470    0.7644 H   0  0  0  0  0  0  0  0  0  0  0  0
   -6.6857   -1.3034   -1.1944 H   0  0  0  0  0  0  0  0  0  0  0  0
   -5.7963    1.2778   -3.2630 H   0  0  0  0  0  0  0  0  0  0  0  0
   -7.4923    2.4539   -0.9140 H   0  0  0  0  0  0  0  0  0  0  0  0
   -7.4694    3.0496   -2.7039 H   0  0  0  0  0  0  0  0  0  0  0  0
   -4.4536    2.2507   -0.8680 H   0  0  0  0  0  0  0  0  0  0  0  0
   -3.2474    1.3212    1.0813 H   0  0  0  0  0  0  0  0  0  0  0  0
  1  2  1  0
  2  3  1  0
  3  4  1  0
  4  5  1  0
  5  6  1  0
  6  7  1  0
  7  8  1  0
  8  9  1  0
  9 10  2  0
  9 11  2  0
  9 12  1  0
 12 13  2  0
 13 14  1  0
 14 15  2  0
 15 16  1  0
 16 17  2  0
 16 18  1  0
 18 19  2  0
 18 20  1  0
 20 21  2  0
 20 22  1  0
 22 23  1  0
 23 24  1  0
 24 25  2  0
 25 26  1  0
 26 27  2  0
 27 28  1  0
 28 29  1  0
 29 30  1  0
 27 31  1  0
 31 32  2  0
  8  4  1  0
 17 12  1  0
 32 24  1  0
 22 15  1  0
 30 28  1  0
  1 33  1  0
  1 34  1  0
  1 35  1  0
  3 36  1  0
  3 37  1  0
  4 38  1  6
  5 39  1  0
  5 40  1  0
  6 41  1  0
  6 42  1  0
  7 43  1  0
  7 44  1  0
 13 45  1  0
 14 46  1  0
 17 47  1  0
 23 48  1  0
 23 49  1  0
 25 50  1  0
 26 51  1  0
 28 52  1  0
 29 53  1  0
 29 54  1  0
 31 55  1  0
 32 56  1  0
M  END
$$$$
