@<TRIPOS>MOLECULE
*****
 56 60 0 0 0
SMALL
GASTEIGER

@<TRIPOS>ATOM
      1 C           5.5452    3.6999   -0.1176 C.3     1  UNL1        0.0365
      2 O           5.0053    2.5447   -0.6567 O.3     1  UNL1       -0.3814
      3 C           5.6659    1.4351   -0.1688 C.3     1  UNL1        0.0645
      4 C           5.0662    0.1930   -0.7647 C.3     1  UNL1        0.0552
      5 C           5.0061    0.3438   -2.2907 C.3     1  UNL1       -0.0323
      6 C           4.0174   -0.7508   -2.6409 C.3     1  UNL1       -0.0370
      7 C           3.3141   -1.0870   -1.3415 C.3     1  UNL1        0.0209
      8 N           3.6587    0.0372   -0.4569 N.3     1  UNL1       -0.1713
      9 S           3.3845   -0.3803    1.1930 S.O2    1  UNL1        0.0612
     10 O           3.7266    0.8351    2.0159 O.2     1  UNL1       -0.1528
     11 O           4.2782   -1.5092    1.6235 O.2     1  UNL1       -0.1528
     12 C           1.7047   -0.7325    1.4083 C.ar    1  UNL1        0.1063
     13 C           0.8327    0.2730    1.7489 C.ar    1  UNL1       -0.0335
     14 C          -0.5297    0.0036    1.9266 C.ar    1  UNL1       -0.0377
     15 C          -1.0112   -1.2621    1.7638 C.ar    1  UNL1        0.0481
     16 C          -0.1414   -2.2803    1.4213 C.ar    1  UNL1        0.0502
     17 C           1.2004   -1.9984    1.2495 C.ar    1  UNL1       -0.0226
     18 C          -0.8968   -3.5462    1.3067 C.2     1  UNL1        0.2496
     19 O          -0.3906   -4.6500    1.0095 O.2     1  UNL1       -0.2817
     20 C          -2.2701   -3.1863    1.6083 C.2     1  UNL1        0.2915
     21 O          -3.2425   -3.9890    1.6193 O.2     1  UNL1       -0.2661
     22 N          -2.3313   -1.7752    1.8889 N.am    1  UNL1       -0.2598
     23 C          -3.5317   -1.0529    2.2341 C.3     1  UNL1        0.0452
     24 C          -4.2759   -0.5362    1.0643 C.ar    1  UNL1       -0.0297
     25 C          -5.2534   -1.2606    0.4048 C.ar    1  UNL1       -0.0567
     26 C          -5.9276   -0.7347   -0.6871 C.ar    1  UNL1       -0.0557
     27 C          -5.6472    0.5297   -1.1540 C.ar    1  UNL1       -0.0167
     28 C          -6.3847    1.0958   -2.3427 C.3     1  UNL1        0.1070
     29 C          -7.3297    2.2206   -1.9890 C.3     1  UNL1        0.0789
     30 O          -7.7494    0.9435   -2.3999 O.3     1  UNL1       -0.3668
     31 C          -4.6798    1.2620   -0.5107 C.ar    1  UNL1       -0.0557
     32 C          -4.0215    0.7224    0.5716 C.ar    1  UNL1       -0.0567
     33 H           5.4175    3.6218    0.9922 H       1  UNL1        0.0523
     34 H           6.6159    3.8047   -0.3912 H       1  UNL1        0.0523
     35 H           5.0025    4.5795   -0.5322 H       1  UNL1        0.0523
     36 H           5.7175    1.3604    0.9145 H       1  UNL1        0.0576
     37 H           6.7152    1.4923   -0.5511 H       1  UNL1        0.0576
     38 H           5.6511   -0.7110   -0.5689 H       1  UNL1        0.0502
     39 H           4.5436    1.3205   -2.4853 H       1  UNL1        0.0282
     40 H           5.9902    0.2047   -2.7527 H       1  UNL1        0.0282
     41 H           4.6368   -1.6144   -3.0000 H       1  UNL1        0.0279
     42 H           3.3155   -0.4475   -3.4398 H       1  UNL1        0.0279
     43 H           3.7222   -2.0322   -0.9612 H       1  UNL1        0.0444
     44 H           2.2159   -1.1572   -1.4757 H       1  UNL1        0.0444
     45 H           1.1270    1.3046    1.8981 H       1  UNL1        0.0638
     46 H          -1.2092    0.8071    2.1985 H       1  UNL1        0.0637
     47 H           1.8875   -2.7861    0.9820 H       1  UNL1        0.0645
     48 H          -3.3108   -0.2183    2.9621 H       1  UNL1        0.0518
     49 H          -4.2089   -1.7393    2.8224 H       1  UNL1        0.0518
     50 H          -5.4761   -2.2470    0.7644 H       1  UNL1        0.0621
     51 H          -6.6857   -1.3034   -1.1944 H       1  UNL1        0.0621
     52 H          -5.7963    1.2778   -3.2630 H       1  UNL1        0.0669
     53 H          -7.4923    2.4539   -0.9140 H       1  UNL1        0.0589
     54 H          -7.4694    3.0496   -2.7039 H       1  UNL1        0.0589
     55 H          -4.4536    2.2507   -0.8680 H       1  UNL1        0.0621
     56 H          -3.2474    1.3212    1.0813 H       1  UNL1        0.0621
@<TRIPOS>BOND
     1     1     2    1
     2     2     3    1
     3     3     4    1
     4     4     5    1
     5     5     6    1
     6     6     7    1
     7     7     8    1
     8     8     9    1
     9     9    10    2
    10     9    11    2
    11     9    12    1
    12    12    13   ar
    13    13    14   ar
    14    14    15   ar
    15    15    16   ar
    16    16    17   ar
    17    16    18    1
    18    18    19    2
    19    18    20    1
    20    20    21    2
    21    20    22   am
    22    22    23    1
    23    23    24    1
    24    24    25   ar
    25    25    26   ar
    26    26    27   ar
    27    27    28    1
    28    28    29    1
    29    29    30    1
    30    27    31   ar
    31    31    32   ar
    32     8     4    1
    33    17    12   ar
    34    32    24   ar
    35    22    15    1
    36    30    28    1
    37     1    33    1
    38     1    34    1
    39     1    35    1
    40     3    36    1
    41     3    37    1
    42     4    38    1
    43     5    39    1
    44     5    40    1
    45     6    41    1
    46     6    42    1
    47     7    43    1
    48     7    44    1
    49    13    45    1
    50    14    46    1
    51    17    47    1
    52    23    48    1
    53    23    49    1
    54    25    50    1
    55    26    51    1
    56    28    52    1
    57    29    53    1
    58    29    54    1
    59    31    55    1
    60    32    56    1
