
     RDKit          3D

 72 75  0  0  0  0  0  0  0  0999 V2000
    0.2215    3.3068   -0.4197 C   0  0  0  0  0  0  0  0  0  0  0  0
   -0.0910    2.5982   -1.6880 C   0  0  0  0  0  0  0  0  0  0  0  0
    0.0931    1.0998   -1.6615 C   0  0  1  0  0  0  0  0  0  0  0  0
    1.4693    0.6780   -1.3366 C   0  0  0  0  0  0  0  0  0  0  0  0
    2.3823    0.5520   -2.3909 C   0  0  0  0  0  0  0  0  0  0  0  0
    3.6897    0.1592   -2.1961 C   0  0  0  0  0  0  0  0  0  0  0  0
    4.1580   -0.1303   -0.9321 C   0  0  0  0  0  0  0  0  0  0  0  0
    5.5571   -0.5459   -0.7226 C   0  0  0  0  0  0  0  0  0  0  0  0
    6.5389   -0.0380   -1.5672 C   0  0  0  0  0  0  0  0  0  0  0  0
    7.8547   -0.4060   -1.3950 C   0  0  0  0  0  0  0  0  0  0  0  0
    8.1530   -1.2815   -0.3710 C   0  0  0  0  0  0  0  0  0  0  0  0
    9.3483   -1.6285   -0.1986 O   0  0  0  0  0  0  0  0  0  0  0  0
    7.2184   -1.7831    0.4555 N   0  0  0  0  0  0  0  0  0  0  0  0
    7.6079   -2.7086    1.5243 C   0  0  0  0  0  0  0  0  0  0  0  0
    7.9342   -1.9304    2.7924 C   0  0  0  0  0  0  0  0  0  0  0  0
    5.9433   -1.4028    0.2591 C   0  0  0  0  0  0  0  0  0  0  0  0
    3.2767   -0.0125    0.1128 C   0  0  0  0  0  0  0  0  0  0  0  0
    1.9445    0.3883   -0.0902 C   0  0  0  0  0  0  0  0  0  0  0  0
   -0.9654    0.4811   -0.9698 N   0  0  0  0  0  0  0  0  0  0  0  0
   -1.2797    0.5449    0.4470 C   0  0  0  0  0  0  0  0  0  0  0  0
   -2.7879    0.8991    0.5190 C   0  0  0  0  0  0  0  0  0  0  0  0
   -3.6496   -0.1716   -0.0025 C   0  0  2  0  0  0  0  0  0  0  0  0
   -4.8666    0.3278   -0.6975 C   0  0  0  0  0  0  0  0  0  0  0  0
   -5.8559    1.1422    0.0355 C   0  0  0  0  0  0  0  0  0  0  0  0
   -7.0401    1.4354   -0.9571 C   0  0  0  0  0  0  0  0  0  0  0  0
   -5.3379    2.5530    0.2959 C   0  0  0  0  0  0  0  0  0  0  0  0
   -6.3161    0.6234    1.2105 O   0  0  0  0  0  0  0  0  0  0  0  0
   -3.9910   -1.2168    1.0097 C   0  0  0  0  0  0  0  0  0  0  0  0
   -4.8000   -2.2522    0.5902 C   0  0  0  0  0  0  0  0  0  0  0  0
   -5.1754   -3.2765    1.4547 C   0  0  0  0  0  0  0  0  0  0  0  0
   -4.7457   -3.2825    2.7594 C   0  0  0  0  0  0  0  0  0  0  0  0
   -3.9350   -2.2329    3.1554 C   0  0  0  0  0  0  0  0  0  0  0  0
   -3.5607   -1.2190    2.3077 C   0  0  0  0  0  0  0  0  0  0  0  0
   -2.9382   -0.9271   -1.0209 O   0  0  0  0  0  0  0  0  0  0  0  0
   -1.9066   -0.3234   -1.7243 C   0  0  0  0  0  0  0  0  0  0  0  0
   -1.8304   -0.4942   -2.9606 O   0  0  0  0  0  0  0  0  0  0  0  0
    0.7432    4.2994   -0.6098 H   0  0  0  0  0  0  0  0  0  0  0  0
   -0.6746    3.5582    0.2070 H   0  0  0  0  0  0  0  0  0  0  0  0
    0.9332    2.7686    0.2356 H   0  0  0  0  0  0  0  0  0  0  0  0
   -1.0847    2.8839   -2.0912 H   0  0  0  0  0  0  0  0  0  0  0  0
    0.6377    2.9669   -2.4679 H   0  0  0  0  0  0  0  0  0  0  0  0
   -0.0822    0.8202   -2.7829 H   0  0  0  0  0  0  0  0  0  0  0  0
    2.0263    0.7786   -3.3924 H   0  0  0  0  0  0  0  0  0  0  0  0
    4.3852    0.0669   -3.0262 H   0  0  0  0  0  0  0  0  0  0  0  0
    6.2623    0.6461   -2.3574 H   0  0  0  0  0  0  0  0  0  0  0  0
    8.6564   -0.0392   -2.0241 H   0  0  0  0  0  0  0  0  0  0  0  0
    6.8746   -3.5062    1.6792 H   0  0  0  0  0  0  0  0  0  0  0  0
    8.5622   -3.1893    1.2207 H   0  0  0  0  0  0  0  0  0  0  0  0
    8.4911   -1.0157    2.4882 H   0  0  0  0  0  0  0  0  0  0  0  0
    8.4771   -2.5792    3.4851 H   0  0  0  0  0  0  0  0  0  0  0  0
    6.9953   -1.5609    3.2694 H   0  0  0  0  0  0  0  0  0  0  0  0
    5.1962   -1.8145    0.9325 H   0  0  0  0  0  0  0  0  0  0  0  0
    3.6279   -0.2368    1.1123 H   0  0  0  0  0  0  0  0  0  0  0  0
    1.3029    0.4599    0.7534 H   0  0  0  0  0  0  0  0  0  0  0  0
   -1.1068   -0.4337    0.9483 H   0  0  0  0  0  0  0  0  0  0  0  0
   -0.7941    1.3418    0.9995 H   0  0  0  0  0  0  0  0  0  0  0  0
   -3.0338    1.1896    1.5542 H   0  0  0  0  0  0  0  0  0  0  0  0
   -2.8607    1.7990   -0.1147 H   0  0  0  0  0  0  0  0  0  0  0  0
   -5.4110   -0.5380   -1.2081 H   0  0  0  0  0  0  0  0  0  0  0  0
   -4.5023    0.9020   -1.6285 H   0  0  0  0  0  0  0  0  0  0  0  0
   -7.9014    1.7822   -0.3704 H   0  0  0  0  0  0  0  0  0  0  0  0
   -6.6650    2.1656   -1.6915 H   0  0  0  0  0  0  0  0  0  0  0  0
   -7.2825    0.5041   -1.5068 H   0  0  0  0  0  0  0  0  0  0  0  0
   -4.8170    2.9087   -0.6149 H   0  0  0  0  0  0  0  0  0  0  0  0
   -6.2575    3.2252    0.4467 H   0  0  0  0  0  0  0  0  0  0  0  0
   -4.6930    2.6529    1.1531 H   0  0  0  0  0  0  0  0  0  0  0  0
   -5.7428    0.8959    1.9683 H   0  0  0  0  0  0  0  0  0  0  0  0
   -5.1961   -2.3553   -0.4155 H   0  0  0  0  0  0  0  0  0  0  0  0
   -5.8086   -4.0796    1.1144 H   0  0  0  0  0  0  0  0  0  0  0  0
   -5.0318   -4.0817    3.4543 H   0  0  0  0  0  0  0  0  0  0  0  0
   -3.6074   -2.2649    4.2031 H   0  0  0  0  0  0  0  0  0  0  0  0
   -2.9362   -0.4460    2.6682 H   0  0  0  0  0  0  0  0  0  0  0  0
  1  2  1  0
  2  3  1  0
  3  4  1  0
  4  5  2  0
  5  6  1  0
  6  7  2  0
  7  8  1  0
  8  9  1  0
  9 10  2  0
 10 11  1  0
 11 12  2  0
 11 13  1  0
 13 14  1  0
 14 15  1  0
 13 16  1  0
  7 17  1  0
 17 18  2  0
  3 19  1  0
 19 20  1  0
 20 21  1  0
 21 22  1  0
 22 23  1  6
 23 24  1  0
 24 25  1  0
 24 26  1  0
 24 27  1  0
 22 28  1  0
 28 29  2  0
 29 30  1  0
 30 31  2  0
 31 32  1  0
 32 33  2  0
 22 34  1  0
 34 35  1  0
 35 36  2  0
 18  4  1  0
 35 19  1  0
 16  8  2  0
 33 28  1  0
  1 37  1  0
  1 38  1  0
  1 39  1  0
  2 40  1  0
  2 41  1  0
  3 42  1  6
  5 43  1  0
  6 44  1  0
  9 45  1  0
 10 46  1  0
 14 47  1  0
 14 48  1  0
 15 49  1  0
 15 50  1  0
 15 51  1  0
 16 52  1  0
 17 53  1  0
 18 54  1  0
 20 55  1  0
 20 56  1  0
 21 57  1  0
 21 58  1  0
 23 59  1  0
 23 60  1  0
 25 61  1  0
 25 62  1  0
 25 63  1  0
 26 64  1  0
 26 65  1  0
 26 66  1  0
 27 67  1  0
 29 68  1  0
 30 69  1  0
 31 70  1  0
 32 71  1  0
 33 72  1  0
M  END
$$$$
