@<TRIPOS>MOLECULE
*****
 72 75 0 0 0
SMALL
GASTEIGER

@<TRIPOS>ATOM
      1 C           0.2215    3.3068   -0.4197 C.3     1  UNL1       -0.0633
      2 C          -0.0910    2.5982   -1.6880 C.3     1  UNL1       -0.0329
      3 C           0.0931    1.0998   -1.6615 C.3     1  UNL1        0.0540
      4 C           1.4693    0.6780   -1.3366 C.ar    1  UNL1       -0.0269
      5 C           2.3823    0.5520   -2.3909 C.ar    1  UNL1       -0.0562
      6 C           3.6897    0.1592   -2.1961 C.ar    1  UNL1       -0.0537
      7 C           4.1580   -0.1303   -0.9321 C.ar    1  UNL1       -0.0165
      8 C           5.5571   -0.5459   -0.7226 C.ar    1  UNL1       -0.0015
      9 C           6.5389   -0.0380   -1.5672 C.ar    1  UNL1       -0.0475
     10 C           7.8547   -0.4060   -1.3950 C.ar    1  UNL1        0.0036
     11 C           8.1530   -1.2815   -0.3710 C.ar    1  UNL1        0.2513
     12 O           9.3483   -1.6285   -0.1986 O.2     1  UNL1       -0.2677
     13 N           7.2184   -1.7831    0.4555 N.ar    1  UNL1       -0.3149
     14 C           7.6079   -2.7086    1.5243 C.3     1  UNL1        0.0233
     15 C           7.9342   -1.9304    2.7924 C.3     1  UNL1       -0.0470
     16 C           5.9433   -1.4028    0.2591 C.ar    1  UNL1        0.0156
     17 C           3.2767   -0.0125    0.1128 C.ar    1  UNL1       -0.0537
     18 C           1.9445    0.3883   -0.0902 C.ar    1  UNL1       -0.0562
     19 N          -0.9654    0.4811   -0.9698 N.am    1  UNL1       -0.2602
     20 C          -1.2797    0.5449    0.4470 C.3     1  UNL1        0.0224
     21 C          -2.7879    0.8991    0.5190 C.3     1  UNL1        0.0076
     22 C          -3.6496   -0.1716   -0.0025 C.3     1  UNL1        0.1440
     23 C          -4.8666    0.3278   -0.6975 C.3     1  UNL1        0.0199
     24 C          -5.8559    1.1422    0.0355 C.3     1  UNL1        0.0645
     25 C          -7.0401    1.4354   -0.9571 C.3     1  UNL1       -0.0362
     26 C          -5.3379    2.5530    0.2959 C.3     1  UNL1       -0.0362
     27 O          -6.3161    0.6234    1.2105 O.3     1  UNL1       -0.3890
     28 C          -3.9910   -1.2168    1.0097 C.ar    1  UNL1       -0.0040
     29 C          -4.8000   -2.2522    0.5902 C.ar    1  UNL1       -0.0548
     30 C          -5.1754   -3.2765    1.4547 C.ar    1  UNL1       -0.0614
     31 C          -4.7457   -3.2825    2.7594 C.ar    1  UNL1       -0.0617
     32 C          -3.9350   -2.2329    3.1554 C.ar    1  UNL1       -0.0614
     33 C          -3.5607   -1.2190    2.3077 C.ar    1  UNL1       -0.0548
     34 O          -2.9382   -0.9271   -1.0209 O.3     1  UNL1       -0.4387
     35 C          -1.9066   -0.3234   -1.7243 C.2     1  UNL1        0.4042
     36 O          -1.8304   -0.4942   -2.9606 O.2     1  UNL1       -0.2262
     37 H           0.7432    4.2994   -0.6098 H       1  UNL1        0.0230
     38 H          -0.6746    3.5582    0.2070 H       1  UNL1        0.0230
     39 H           0.9332    2.7686    0.2356 H       1  UNL1        0.0230
     40 H          -1.0847    2.8839   -2.0912 H       1  UNL1        0.0284
     41 H           0.6377    2.9669   -2.4679 H       1  UNL1        0.0284
     42 H          -0.0822    0.8202   -2.7829 H       1  UNL1        0.0551
     43 H           2.0263    0.7786   -3.3924 H       1  UNL1        0.0621
     44 H           4.3852    0.0669   -3.0262 H       1  UNL1        0.0624
     45 H           6.2623    0.6461   -2.3574 H       1  UNL1        0.0626
     46 H           8.6564   -0.0392   -2.0241 H       1  UNL1        0.0672
     47 H           6.8746   -3.5062    1.6792 H       1  UNL1        0.0490
     48 H           8.5622   -3.1893    1.2207 H       1  UNL1        0.0490
     49 H           8.4911   -1.0157    2.4882 H       1  UNL1        0.0247
     50 H           8.4771   -2.5792    3.4851 H       1  UNL1        0.0247
     51 H           6.9953   -1.5609    3.2694 H       1  UNL1        0.0247
     52 H           5.1962   -1.8145    0.9325 H       1  UNL1        0.0816
     53 H           3.6279   -0.2368    1.1123 H       1  UNL1        0.0624
     54 H           1.3029    0.4599    0.7534 H       1  UNL1        0.0621
     55 H          -1.1068   -0.4337    0.9483 H       1  UNL1        0.0467
     56 H          -0.7941    1.3418    0.9995 H       1  UNL1        0.0467
     57 H          -3.0338    1.1896    1.5542 H       1  UNL1        0.0322
     58 H          -2.8607    1.7990   -0.1147 H       1  UNL1        0.0322
     59 H          -5.4110   -0.5380   -1.2081 H       1  UNL1        0.0335
     60 H          -4.5023    0.9020   -1.6285 H       1  UNL1        0.0335
     61 H          -7.9014    1.7822   -0.3704 H       1  UNL1        0.0257
     62 H          -6.6650    2.1656   -1.6915 H       1  UNL1        0.0257
     63 H          -7.2825    0.5041   -1.5068 H       1  UNL1        0.0257
     64 H          -4.8170    2.9087   -0.6149 H       1  UNL1        0.0257
     65 H          -6.2575    3.2252    0.4467 H       1  UNL1        0.0257
     66 H          -4.6930    2.6529    1.1531 H       1  UNL1        0.0257
     67 H          -5.7428    0.8959    1.9683 H       1  UNL1        0.2101
     68 H          -5.1961   -2.3553   -0.4155 H       1  UNL1        0.0622
     69 H          -5.8086   -4.0796    1.1144 H       1  UNL1        0.0618
     70 H          -5.0318   -4.0817    3.4543 H       1  UNL1        0.0618
     71 H          -3.6074   -2.2649    4.2031 H       1  UNL1        0.0618
     72 H          -2.9362   -0.4460    2.6682 H       1  UNL1        0.0622
@<TRIPOS>BOND
     1     1     2    1
     2     2     3    1
     3     3     4    1
     4     4     5   ar
     5     5     6   ar
     6     6     7   ar
     7     7     8    1
     8     8     9   ar
     9     9    10   ar
    10    10    11   ar
    11    11    12    2
    12    11    13   ar
    13    13    14    1
    14    14    15    1
    15    13    16   ar
    16     7    17   ar
    17    17    18   ar
    18     3    19    1
    19    19    20    1
    20    20    21    1
    21    21    22    1
    22    22    23    1
    23    23    24    1
    24    24    25    1
    25    24    26    1
    26    24    27    1
    27    22    28    1
    28    28    29   ar
    29    29    30   ar
    30    30    31   ar
    31    31    32   ar
    32    32    33   ar
    33    22    34    1
    34    34    35    1
    35    35    36    2
    36    18     4   ar
    37    35    19   am
    38    16     8   ar
    39    33    28   ar
    40     1    37    1
    41     1    38    1
    42     1    39    1
    43     2    40    1
    44     2    41    1
    45     3    42    1
    46     5    43    1
    47     6    44    1
    48     9    45    1
    49    10    46    1
    50    14    47    1
    51    14    48    1
    52    15    49    1
    53    15    50    1
    54    15    51    1
    55    16    52    1
    56    17    53    1
    57    18    54    1
    58    20    55    1
    59    20    56    1
    60    21    57    1
    61    21    58    1
    62    23    59    1
    63    23    60    1
    64    25    61    1
    65    25    62    1
    66    25    63    1
    67    26    64    1
    68    26    65    1
    69    26    66    1
    70    27    67    1
    71    29    68    1
    72    30    69    1
    73    31    70    1
    74    32    71    1
    75    33    72    1
