
     RDKit          3D

 43 45  0  0  0  0  0  0  0  0999 V2000
    8.5633   -0.4192    0.1529 C   0  0  0  0  0  0  0  0  0  0  0  0
    7.3323   -0.9537    0.5882 O   0  0  0  0  0  0  0  0  0  0  0  0
    6.1333   -0.3015    0.3163 C   0  0  0  0  0  0  0  0  0  0  0  0
    5.0212   -0.9555    0.8109 C   0  0  0  0  0  0  0  0  0  0  0  0
    3.7760   -0.4005    0.6008 C   0  0  0  0  0  0  0  0  0  0  0  0
    3.6978    0.7728   -0.0878 C   0  0  0  0  0  0  0  0  0  0  0  0
    2.3738    1.0705   -0.1390 N   0  0  0  0  0  0  0  0  0  0  0  0
    1.6516    0.1216    0.4924 C   0  0  0  0  0  0  0  0  0  0  0  0
    2.5346   -0.7897    0.9494 N   0  0  0  0  0  0  0  0  0  0  0  0
   -0.0806   -0.0045    0.7263 S   0  0  0  0  0  4  0  0  0  0  0  0
   -0.7626    1.3062    1.0129 O   0  0  0  0  0  0  0  0  0  0  0  0
   -0.9127   -0.9018   -0.5581 C   0  0  0  0  0  0  0  0  0  0  0  0
   -2.3712   -0.9783   -0.3188 C   0  0  0  0  0  0  0  0  0  0  0  0
   -2.8649   -2.1352    0.1884 N   0  0  0  0  0  0  0  0  0  0  0  0
   -4.1683   -2.3139    0.4540 C   0  0  0  0  0  0  0  0  0  0  0  0
   -5.0650   -1.2791    0.2045 C   0  0  0  0  0  0  0  0  0  0  0  0
   -6.4916   -1.5585    0.5266 C   0  0  0  0  0  0  0  0  0  0  0  0
   -4.5697   -0.0926   -0.3143 C   0  0  0  0  0  0  0  0  0  0  0  0
   -5.5481    0.8630   -0.5219 O   0  0  0  0  0  0  0  0  0  0  0  0
   -5.8638    1.7637    0.5127 C   0  0  0  0  0  0  0  0  0  0  0  0
   -3.2234    0.0496   -0.5729 C   0  0  0  0  0  0  0  0  0  0  0  0
   -2.8283    1.3486   -1.1315 C   0  0  0  0  0  0  0  0  0  0  0  0
    4.7845    1.4557   -0.5971 C   0  0  0  0  0  0  0  0  0  0  0  0
    6.0168    0.8953   -0.3825 C   0  0  0  0  0  0  0  0  0  0  0  0
    8.8983    0.4617    0.7329 H   0  0  0  0  0  0  0  0  0  0  0  0
    9.2906   -1.2551    0.1679 H   0  0  0  0  0  0  0  0  0  0  0  0
    8.4084   -0.0763   -0.9029 H   0  0  0  0  0  0  0  0  0  0  0  0
    5.0592   -1.8805    1.3560 H   0  0  0  0  0  0  0  0  0  0  0  0
    1.9410    1.9080   -0.5946 H   0  0  0  0  0  0  0  0  0  0  0  0
   -0.4921   -1.9353   -0.6978 H   0  0  0  0  0  0  0  0  0  0  0  0
   -0.7258   -0.4075   -1.5352 H   0  0  0  0  0  0  0  0  0  0  0  0
   -4.4299   -3.2849    0.8565 H   0  0  0  0  0  0  0  0  0  0  0  0
   -6.8756   -2.3944   -0.0946 H   0  0  0  0  0  0  0  0  0  0  0  0
   -7.1372   -0.6816    0.3061 H   0  0  0  0  0  0  0  0  0  0  0  0
   -6.6182   -1.8089    1.5996 H   0  0  0  0  0  0  0  0  0  0  0  0
   -5.0428    2.4661    0.7054 H   0  0  0  0  0  0  0  0  0  0  0  0
   -6.0698    1.1637    1.4270 H   0  0  0  0  0  0  0  0  0  0  0  0
   -6.8051    2.2992    0.2517 H   0  0  0  0  0  0  0  0  0  0  0  0
   -2.9240    2.1948   -0.3988 H   0  0  0  0  0  0  0  0  0  0  0  0
   -3.4867    1.6495   -1.9892 H   0  0  0  0  0  0  0  0  0  0  0  0
   -1.7914    1.2957   -1.5058 H   0  0  0  0  0  0  0  0  0  0  0  0
    4.7224    2.3869   -1.1435 H   0  0  0  0  0  0  0  0  0  0  0  0
    6.9437    1.3359   -0.7325 H   0  0  0  0  0  0  0  0  0  0  0  0
  1  2  1  0
  2  3  1  0
  3  4  2  0
  4  5  1  0
  5  6  2  0
  6  7  1  0
  7  8  1  0
  8  9  2  0
  8 10  1  0
 10 11  2  0
 10 12  1  6
 12 13  1  0
 13 14  2  0
 14 15  1  0
 15 16  2  0
 16 17  1  0
 16 18  1  0
 18 19  1  0
 19 20  1  0
 18 21  2  0
 21 22  1  0
  6 23  1  0
 23 24  2  0
 24  3  1  0
  9  5  1  0
 21 13  1  0
  1 25  1  0
  1 26  1  0
  1 27  1  0
  4 28  1  0
  7 29  1  0
 12 30  1  0
 12 31  1  0
 15 32  1  0
 17 33  1  0
 17 34  1  0
 17 35  1  0
 20 36  1  0
 20 37  1  0
 20 38  1  0
 22 39  1  0
 22 40  1  0
 22 41  1  0
 23 42  1  0
 24 43  1  0
M  END
$$$$
