@<TRIPOS>MOLECULE
*****
 43 45 0 0 0
SMALL
GASTEIGER

@<TRIPOS>ATOM
      1 C           8.5633   -0.4192    0.1529 C.3     1  UNL1        0.0788
      2 O           7.3323   -0.9537    0.5882 O.3     1  UNL1       -0.4950
      3 C           6.1333   -0.3015    0.3163 C.ar    1  UNL1        0.1222
      4 C           5.0212   -0.9555    0.8109 C.ar    1  UNL1        0.0075
      5 C           3.7760   -0.4005    0.6008 C.ar    1  UNL1        0.0935
      6 C           3.6978    0.7728   -0.0878 C.ar    1  UNL1        0.0671
      7 N           2.3738    1.0705   -0.1390 N.ar    1  UNL1       -0.3310
      8 C           1.6516    0.1216    0.4924 C.ar    1  UNL1        0.1981
      9 N           2.5346   -0.7897    0.9494 N.ar    1  UNL1       -0.2199
     10 S          -0.0806   -0.0045    0.7263 S.O     1  UNL1        0.0954
     11 O          -0.7626    1.3062    1.0129 O.2     1  UNL1       -0.2488
     12 C          -0.9127   -0.9018   -0.5581 C.3     1  UNL1        0.0734
     13 C          -2.3712   -0.9783   -0.3188 C.ar    1  UNL1        0.0603
     14 N          -2.8649   -2.1352    0.1884 N.ar    1  UNL1       -0.2582
     15 C          -4.1683   -2.3139    0.4540 C.ar    1  UNL1        0.0343
     16 C          -5.0650   -1.2791    0.2045 C.ar    1  UNL1        0.0095
     17 C          -6.4916   -1.5585    0.5266 C.3     1  UNL1       -0.0348
     18 C          -4.5697   -0.0926   -0.3143 C.ar    1  UNL1        0.1290
     19 O          -5.5481    0.8630   -0.5219 O.3     1  UNL1       -0.4945
     20 C          -5.8638    1.7637    0.5127 C.3     1  UNL1        0.0788
     21 C          -3.2234    0.0496   -0.5729 C.ar    1  UNL1        0.0136
     22 C          -2.8283    1.3486   -1.1315 C.3     1  UNL1       -0.0345
     23 C           4.7845    1.4557   -0.5971 C.ar    1  UNL1       -0.0328
     24 C           6.0168    0.8953   -0.3825 C.ar    1  UNL1       -0.0179
     25 H           8.8983    0.4617    0.7329 H       1  UNL1        0.0660
     26 H           9.2906   -1.2551    0.1679 H       1  UNL1        0.0660
     27 H           8.4084   -0.0763   -0.9029 H       1  UNL1        0.0660
     28 H           5.0592   -1.8805    1.3560 H       1  UNL1        0.0676
     29 H           1.9410    1.9080   -0.5946 H       1  UNL1        0.1679
     30 H          -0.4921   -1.9353   -0.6978 H       1  UNL1        0.0470
     31 H          -0.7258   -0.4075   -1.5352 H       1  UNL1        0.0470
     32 H          -4.4299   -3.2849    0.8565 H       1  UNL1        0.0833
     33 H          -6.8756   -2.3944   -0.0946 H       1  UNL1        0.0279
     34 H          -7.1372   -0.6816    0.3061 H       1  UNL1        0.0279
     35 H          -6.6182   -1.8089    1.5996 H       1  UNL1        0.0279
     36 H          -5.0428    2.4661    0.7054 H       1  UNL1        0.0660
     37 H          -6.0698    1.1637    1.4270 H       1  UNL1        0.0660
     38 H          -6.8051    2.2992    0.2517 H       1  UNL1        0.0660
     39 H          -2.9240    2.1948   -0.3988 H       1  UNL1        0.0279
     40 H          -3.4867    1.6495   -1.9892 H       1  UNL1        0.0279
     41 H          -1.7914    1.2957   -1.5058 H       1  UNL1        0.0279
     42 H           4.7224    2.3869   -1.1435 H       1  UNL1        0.0640
     43 H           6.9437    1.3359   -0.7325 H       1  UNL1        0.0655
@<TRIPOS>BOND
     1     1     2    1
     2     2     3    1
     3     3     4   ar
     4     4     5   ar
     5     5     6   ar
     6     6     7   ar
     7     7     8   ar
     8     8     9   ar
     9     8    10    1
    10    10    11    2
    11    10    12    1
    12    12    13    1
    13    13    14   ar
    14    14    15   ar
    15    15    16   ar
    16    16    17    1
    17    16    18   ar
    18    18    19    1
    19    19    20    1
    20    18    21   ar
    21    21    22    1
    22     6    23   ar
    23    23    24   ar
    24    24     3   ar
    25     9     5   ar
    26    21    13   ar
    27     1    25    1
    28     1    26    1
    29     1    27    1
    30     4    28    1
    31     7    29    1
    32    12    30    1
    33    12    31    1
    34    15    32    1
    35    17    33    1
    36    17    34    1
    37    17    35    1
    38    20    36    1
    39    20    37    1
    40    20    38    1
    41    22    39    1
    42    22    40    1
    43    22    41    1
    44    23    42    1
    45    24    43    1
