@<TRIPOS>MOLECULE
*****
 79 82 0 0 0
SMALL
GASTEIGER

@<TRIPOS>ATOM
      1 C          -1.8848    2.6298    4.0338 C.3     1  UNL1       -0.0457
      2 C          -3.1638    3.2120    3.4853 C.3     1  UNL1        0.0629
      3 S          -3.8921    2.1161    2.2723 S.O2    1  UNL1       -0.0309
      4 O          -5.1935    2.7209    1.8066 O.2     1  UNL1       -0.1744
      5 O          -4.2474    0.8668    3.0109 O.2     1  UNL1       -0.1744
      6 C          -2.7744    1.8654    0.9265 C.3     1  UNL1        0.0703
      7 C          -3.3046    0.9977   -0.1498 C.3     1  UNL1       -0.0016
      8 C          -3.6471   -0.3996    0.2636 C.3     1  UNL1       -0.0313
      9 C          -4.5673   -0.9842   -0.8201 C.3     1  UNL1        0.0108
     10 N          -4.9695   -2.2981   -0.5092 N.3     1  UNL1       -0.3000
     11 C          -4.0017   -3.3141   -0.4198 C.3     1  UNL1       -0.0122
     12 C          -6.2076   -2.7243   -1.0247 C.3     1  UNL1        0.0048
     13 C          -6.5400   -4.1603   -0.6551 C.3     1  UNL1       -0.0497
     14 C          -6.4043   -2.5860   -2.5076 C.3     1  UNL1       -0.0497
     15 C          -3.8851   -0.8257   -2.1487 C.3     1  UNL1       -0.0356
     16 C          -2.4377   -0.3924   -2.0374 C.3     1  UNL1       -0.0326
     17 C          -2.4210    0.9711   -1.3832 C.3     1  UNL1        0.0304
     18 N          -1.0659    1.4020   -1.1334 N.am    1  UNL1       -0.2965
     19 C          -0.5068    2.6167   -1.7490 C.3     1  UNL1        0.0172
     20 C           0.6707    2.9843   -0.8927 C.3     1  UNL1       -0.0101
     21 C           1.0215    1.7474   -0.0933 C.3     1  UNL1        0.1013
     22 N           2.2840    1.2434   -0.6080 N.am    1  UNL1       -0.3000
     23 C           3.4315    1.0449    0.1407 C.2     1  UNL1        0.2447
     24 O           3.4025    1.3181    1.3689 O.2     1  UNL1       -0.2702
     25 C           4.6669    0.5397   -0.4009 C.ar    1  UNL1        0.0373
     26 C           4.8174    0.2929   -1.7391 C.ar    1  UNL1       -0.0496
     27 C           6.0120   -0.2113   -2.2776 C.ar    1  UNL1       -0.0605
     28 C           7.0638   -0.4631   -1.4222 C.ar    1  UNL1       -0.0540
     29 C           6.9570   -0.2288   -0.0583 C.ar    1  UNL1       -0.0172
     30 C           8.0929   -0.5129    0.8113 C.ar    1  UNL1       -0.0179
     31 C           7.8826   -0.9108    2.1161 C.ar    1  UNL1       -0.0540
     32 C           8.9298   -1.1943    2.9713 C.ar    1  UNL1       -0.0612
     33 C          10.2433   -1.0908    2.5510 C.ar    1  UNL1       -0.0617
     34 C          10.4727   -0.6959    1.2527 C.ar    1  UNL1       -0.0612
     35 C           9.4159   -0.4122    0.3990 C.ar    1  UNL1       -0.0540
     36 C           5.7645    0.2627    0.3984 C.ar    1  UNL1       -0.0419
     37 C          -0.0851    0.8004   -0.3178 C.2     1  UNL1        0.2362
     38 O          -0.1424   -0.3519    0.1426 O.2     1  UNL1       -0.2736
     39 H          -1.2284    3.4278    4.4724 H       1  UNL1        0.0245
     40 H          -1.3175    2.0895    3.2399 H       1  UNL1        0.0245
     41 H          -2.1495    1.9238    4.8410 H       1  UNL1        0.0245
     42 H          -2.9832    4.2288    3.0522 H       1  UNL1        0.0497
     43 H          -3.8801    3.3463    4.3114 H       1  UNL1        0.0497
     44 H          -2.4410    2.8442    0.5107 H       1  UNL1        0.0503
     45 H          -1.8817    1.3482    1.3743 H       1  UNL1        0.0503
     46 H          -4.3183    1.4593   -0.4235 H       1  UNL1        0.0335
     47 H          -4.1214   -0.4248    1.2362 H       1  UNL1        0.0284
     48 H          -2.7572   -1.0624    0.2961 H       1  UNL1        0.0284
     49 H          -5.4597   -0.2991   -0.8163 H       1  UNL1        0.0463
     50 H          -2.9474   -2.9875   -0.3110 H       1  UNL1        0.0391
     51 H          -4.2382   -4.0518    0.3760 H       1  UNL1        0.0391
     52 H          -4.0162   -3.9015   -1.3732 H       1  UNL1        0.0391
     53 H          -7.0451   -2.1198   -0.5548 H       1  UNL1        0.0457
     54 H          -6.4698   -4.2998    0.4346 H       1  UNL1        0.0245
     55 H          -7.6003   -4.3192   -0.9461 H       1  UNL1        0.0245
     56 H          -5.9214   -4.8822   -1.2284 H       1  UNL1        0.0245
     57 H          -5.7142   -3.2316   -3.1042 H       1  UNL1        0.0245
     58 H          -7.4630   -2.9152   -2.7112 H       1  UNL1        0.0245
     59 H          -6.2436   -1.5426   -2.7961 H       1  UNL1        0.0245
     60 H          -4.3771   -0.0573   -2.7899 H       1  UNL1        0.0281
     61 H          -3.8688   -1.7779   -2.7194 H       1  UNL1        0.0281
     62 H          -2.0351   -0.2792   -3.0535 H       1  UNL1        0.0284
     63 H          -1.8034   -1.1282   -1.5042 H       1  UNL1        0.0284
     64 H          -2.9369    1.6680   -2.1085 H       1  UNL1        0.0504
     65 H          -0.1785    2.2884   -2.7696 H       1  UNL1        0.0465
     66 H          -1.2621    3.4020   -1.8459 H       1  UNL1        0.0465
     67 H           0.4805    3.8718   -0.2660 H       1  UNL1        0.0303
     68 H           1.4986    3.2756   -1.5955 H       1  UNL1        0.0303
     69 H           1.0927    2.0281    0.9600 H       1  UNL1        0.0595
     70 H           2.2755    1.0282   -1.6319 H       1  UNL1        0.1498
     71 H           4.0016    0.4865   -2.4210 H       1  UNL1        0.0625
     72 H           6.1022   -0.3980   -3.3448 H       1  UNL1        0.0618
     73 H           8.0171   -0.8552   -1.7858 H       1  UNL1        0.0624
     74 H           6.8413   -0.9893    2.4377 H       1  UNL1        0.0624
     75 H           8.7354   -1.5017    3.9831 H       1  UNL1        0.0618
     76 H          11.0736   -1.3103    3.2139 H       1  UNL1        0.0618
     77 H          11.5044   -0.6108    0.9115 H       1  UNL1        0.0618
     78 H           9.6083   -0.1065   -0.6086 H       1  UNL1        0.0624
     79 H           5.6411    0.4593    1.4553 H       1  UNL1        0.0631
@<TRIPOS>BOND
     1     1     2    1
     2     2     3    1
     3     3     4    2
     4     3     5    2
     5     3     6    1
     6     6     7    1
     7     7     8    1
     8     8     9    1
     9     9    10    1
    10    10    11    1
    11    10    12    1
    12    12    13    1
    13    12    14    1
    14     9    15    1
    15    15    16    1
    16    16    17    1
    17    17    18    1
    18    18    19    1
    19    19    20    1
    20    20    21    1
    21    21    22    1
    22    22    23   am
    23    23    24    2
    24    23    25    1
    25    25    26   ar
    26    26    27   ar
    27    27    28   ar
    28    28    29   ar
    29    29    30    1
    30    30    31   ar
    31    31    32   ar
    32    32    33   ar
    33    33    34   ar
    34    34    35   ar
    35    29    36   ar
    36    21    37    1
    37    37    38    2
    38    17     7    1
    39    37    18   am
    40    36    25   ar
    41    35    30   ar
    42     1    39    1
    43     1    40    1
    44     1    41    1
    45     2    42    1
    46     2    43    1
    47     6    44    1
    48     6    45    1
    49     7    46    1
    50     8    47    1
    51     8    48    1
    52     9    49    1
    53    11    50    1
    54    11    51    1
    55    11    52    1
    56    12    53    1
    57    13    54    1
    58    13    55    1
    59    13    56    1
    60    14    57    1
    61    14    58    1
    62    14    59    1
    63    15    60    1
    64    15    61    1
    65    16    62    1
    66    16    63    1
    67    17    64    1
    68    19    65    1
    69    19    66    1
    70    20    67    1
    71    20    68    1
    72    21    69    1
    73    22    70    1
    74    26    71    1
    75    27    72    1
    76    28    73    1
    77    31    74    1
    78    32    75    1
    79    33    76    1
    80    34    77    1
    81    35    78    1
    82    36    79    1
