
     RDKit          3D

 79 82  0  0  0  0  0  0  0  0999 V2000
   -1.8848    2.6298    4.0338 C   0  0  0  0  0  0  0  0  0  0  0  0
   -3.1638    3.2120    3.4853 C   0  0  0  0  0  0  0  0  0  0  0  0
   -3.8921    2.1161    2.2723 S   0  0  0  0  0  6  0  0  0  0  0  0
   -5.1935    2.7209    1.8066 O   0  0  0  0  0  0  0  0  0  0  0  0
   -4.2474    0.8668    3.0109 O   0  0  0  0  0  0  0  0  0  0  0  0
   -2.7744    1.8654    0.9265 C   0  0  0  0  0  0  0  0  0  0  0  0
   -3.3046    0.9977   -0.1498 C   0  0  2  0  0  0  0  0  0  0  0  0
   -3.6471   -0.3996    0.2636 C   0  0  0  0  0  0  0  0  0  0  0  0
   -4.5673   -0.9842   -0.8201 C   0  0  2  0  0  0  0  0  0  0  0  0
   -4.9695   -2.2981   -0.5092 N   0  0  0  0  0  0  0  0  0  0  0  0
   -4.0017   -3.3141   -0.4198 C   0  0  0  0  0  0  0  0  0  0  0  0
   -6.2076   -2.7243   -1.0247 C   0  0  0  0  0  0  0  0  0  0  0  0
   -6.5400   -4.1603   -0.6551 C   0  0  0  0  0  0  0  0  0  0  0  0
   -6.4043   -2.5860   -2.5076 C   0  0  0  0  0  0  0  0  0  0  0  0
   -3.8851   -0.8257   -2.1487 C   0  0  0  0  0  0  0  0  0  0  0  0
   -2.4377   -0.3924   -2.0374 C   0  0  0  0  0  0  0  0  0  0  0  0
   -2.4210    0.9711   -1.3832 C   0  0  2  0  0  0  0  0  0  0  0  0
   -1.0659    1.4020   -1.1334 N   0  0  0  0  0  0  0  0  0  0  0  0
   -0.5068    2.6167   -1.7490 C   0  0  0  0  0  0  0  0  0  0  0  0
    0.6707    2.9843   -0.8927 C   0  0  0  0  0  0  0  0  0  0  0  0
    1.0215    1.7474   -0.0933 C   0  0  2  0  0  0  0  0  0  0  0  0
    2.2840    1.2434   -0.6080 N   0  0  0  0  0  0  0  0  0  0  0  0
    3.4315    1.0449    0.1407 C   0  0  0  0  0  0  0  0  0  0  0  0
    3.4025    1.3181    1.3689 O   0  0  0  0  0  0  0  0  0  0  0  0
    4.6669    0.5397   -0.4009 C   0  0  0  0  0  0  0  0  0  0  0  0
    4.8174    0.2929   -1.7391 C   0  0  0  0  0  0  0  0  0  0  0  0
    6.0120   -0.2113   -2.2776 C   0  0  0  0  0  0  0  0  0  0  0  0
    7.0638   -0.4631   -1.4222 C   0  0  0  0  0  0  0  0  0  0  0  0
    6.9570   -0.2288   -0.0583 C   0  0  0  0  0  0  0  0  0  0  0  0
    8.0929   -0.5129    0.8113 C   0  0  0  0  0  0  0  0  0  0  0  0
    7.8826   -0.9108    2.1161 C   0  0  0  0  0  0  0  0  0  0  0  0
    8.9298   -1.1943    2.9713 C   0  0  0  0  0  0  0  0  0  0  0  0
   10.2433   -1.0908    2.5510 C   0  0  0  0  0  0  0  0  0  0  0  0
   10.4727   -0.6959    1.2527 C   0  0  0  0  0  0  0  0  0  0  0  0
    9.4159   -0.4122    0.3990 C   0  0  0  0  0  0  0  0  0  0  0  0
    5.7645    0.2627    0.3984 C   0  0  0  0  0  0  0  0  0  0  0  0
   -0.0851    0.8004   -0.3178 C   0  0  0  0  0  0  0  0  0  0  0  0
   -0.1424   -0.3519    0.1426 O   0  0  0  0  0  0  0  0  0  0  0  0
   -1.2284    3.4278    4.4724 H   0  0  0  0  0  0  0  0  0  0  0  0
   -1.3175    2.0895    3.2399 H   0  0  0  0  0  0  0  0  0  0  0  0
   -2.1495    1.9238    4.8410 H   0  0  0  0  0  0  0  0  0  0  0  0
   -2.9832    4.2288    3.0522 H   0  0  0  0  0  0  0  0  0  0  0  0
   -3.8801    3.3463    4.3114 H   0  0  0  0  0  0  0  0  0  0  0  0
   -2.4410    2.8442    0.5107 H   0  0  0  0  0  0  0  0  0  0  0  0
   -1.8817    1.3482    1.3743 H   0  0  0  0  0  0  0  0  0  0  0  0
   -4.3183    1.4593   -0.4235 H   0  0  0  0  0  0  0  0  0  0  0  0
   -4.1214   -0.4248    1.2362 H   0  0  0  0  0  0  0  0  0  0  0  0
   -2.7572   -1.0624    0.2961 H   0  0  0  0  0  0  0  0  0  0  0  0
   -5.4597   -0.2991   -0.8163 H   0  0  0  0  0  0  0  0  0  0  0  0
   -2.9474   -2.9875   -0.3110 H   0  0  0  0  0  0  0  0  0  0  0  0
   -4.2382   -4.0518    0.3760 H   0  0  0  0  0  0  0  0  0  0  0  0
   -4.0162   -3.9015   -1.3732 H   0  0  0  0  0  0  0  0  0  0  0  0
   -7.0451   -2.1198   -0.5548 H   0  0  0  0  0  0  0  0  0  0  0  0
   -6.4698   -4.2998    0.4346 H   0  0  0  0  0  0  0  0  0  0  0  0
   -7.6003   -4.3192   -0.9461 H   0  0  0  0  0  0  0  0  0  0  0  0
   -5.9214   -4.8822   -1.2284 H   0  0  0  0  0  0  0  0  0  0  0  0
   -5.7142   -3.2316   -3.1042 H   0  0  0  0  0  0  0  0  0  0  0  0
   -7.4630   -2.9152   -2.7112 H   0  0  0  0  0  0  0  0  0  0  0  0
   -6.2436   -1.5426   -2.7961 H   0  0  0  0  0  0  0  0  0  0  0  0
   -4.3771   -0.0573   -2.7899 H   0  0  0  0  0  0  0  0  0  0  0  0
   -3.8688   -1.7779   -2.7194 H   0  0  0  0  0  0  0  0  0  0  0  0
   -2.0351   -0.2792   -3.0535 H   0  0  0  0  0  0  0  0  0  0  0  0
   -1.8034   -1.1282   -1.5042 H   0  0  0  0  0  0  0  0  0  0  0  0
   -2.9369    1.6680   -2.1085 H   0  0  0  0  0  0  0  0  0  0  0  0
   -0.1785    2.2884   -2.7696 H   0  0  0  0  0  0  0  0  0  0  0  0
   -1.2621    3.4020   -1.8459 H   0  0  0  0  0  0  0  0  0  0  0  0
    0.4805    3.8718   -0.2660 H   0  0  0  0  0  0  0  0  0  0  0  0
    1.4986    3.2756   -1.5955 H   0  0  0  0  0  0  0  0  0  0  0  0
    1.0927    2.0281    0.9600 H   0  0  0  0  0  0  0  0  0  0  0  0
    2.2755    1.0282   -1.6319 H   0  0  0  0  0  0  0  0  0  0  0  0
    4.0016    0.4865   -2.4210 H   0  0  0  0  0  0  0  0  0  0  0  0
    6.1022   -0.3980   -3.3448 H   0  0  0  0  0  0  0  0  0  0  0  0
    8.0171   -0.8552   -1.7858 H   0  0  0  0  0  0  0  0  0  0  0  0
    6.8413   -0.9893    2.4377 H   0  0  0  0  0  0  0  0  0  0  0  0
    8.7354   -1.5017    3.9831 H   0  0  0  0  0  0  0  0  0  0  0  0
   11.0736   -1.3103    3.2139 H   0  0  0  0  0  0  0  0  0  0  0  0
   11.5044   -0.6108    0.9115 H   0  0  0  0  0  0  0  0  0  0  0  0
    9.6083   -0.1065   -0.6086 H   0  0  0  0  0  0  0  0  0  0  0  0
    5.6411    0.4593    1.4553 H   0  0  0  0  0  0  0  0  0  0  0  0
  1  2  1  0
  2  3  1  0
  3  4  2  0
  3  5  2  0
  3  6  1  0
  6  7  1  0
  7  8  1  0
  8  9  1  0
  9 10  1  0
 10 11  1  0
 10 12  1  0
 12 13  1  0
 12 14  1  0
  9 15  1  0
 15 16  1  0
 16 17  1  0
 17 18  1  0
 18 19  1  0
 19 20  1  0
 20 21  1  0
 21 22  1  0
 22 23  1  0
 23 24  2  0
 23 25  1  0
 25 26  2  0
 26 27  1  0
 27 28  2  0
 28 29  1  0
 29 30  1  0
 30 31  2  0
 31 32  1  0
 32 33  2  0
 33 34  1  0
 34 35  2  0
 29 36  2  0
 21 37  1  0
 37 38  2  0
 17  7  1  0
 37 18  1  0
 36 25  1  0
 35 30  1  0
  1 39  1  0
  1 40  1  0
  1 41  1  0
  2 42  1  0
  2 43  1  0
  6 44  1  0
  6 45  1  0
  7 46  1  6
  8 47  1  0
  8 48  1  0
  9 49  1  6
 11 50  1  0
 11 51  1  0
 11 52  1  0
 12 53  1  0
 13 54  1  0
 13 55  1  0
 13 56  1  0
 14 57  1  0
 14 58  1  0
 14 59  1  0
 15 60  1  0
 15 61  1  0
 16 62  1  0
 16 63  1  0
 17 64  1  6
 19 65  1  0
 19 66  1  0
 20 67  1  0
 20 68  1  0
 21 69  1  1
 22 70  1  0
 26 71  1  0
 27 72  1  0
 28 73  1  0
 31 74  1  0
 32 75  1  0
 33 76  1  0
 34 77  1  0
 35 78  1  0
 36 79  1  0
M  END
$$$$
