@<TRIPOS>MOLECULE
*****
 32 35 0 0 0
SMALL
GASTEIGER

@<TRIPOS>ATOM
      1 O          -6.3919    0.2274    0.4038 O.3     1  UNL1       -0.5066
      2 C          -5.0489    0.1684    0.0328 C.ar    1  UNL1        0.1205
      3 C          -4.7328    0.4270   -1.2853 C.ar    1  UNL1        0.0254
      4 C          -3.3931    0.3697   -1.6628 C.ar    1  UNL1        0.1713
      5 C          -2.4479    0.0567   -0.6976 C.ar    1  UNL1        0.0492
      6 C          -2.7842   -0.1976    0.6104 C.ar    1  UNL1       -0.0454
      7 C          -4.0966   -0.1404    0.9752 C.ar    1  UNL1       -0.0193
      8 C          -1.2144    0.0642   -1.3176 C.ar    1  UNL1        0.1211
      9 N          -1.4680    0.3798   -2.6223 N.ar    1  UNL1       -0.0770
     10 O          -2.7509    0.5502   -2.7827 O.2     1  UNL1       -0.3539
     11 C           0.1031   -0.2008   -0.7463 C.ar    1  UNL1        0.0048
     12 C           1.2044    0.5874   -1.0120 C.ar    1  UNL1       -0.0447
     13 C           2.4493    0.3490   -0.4810 C.ar    1  UNL1       -0.0170
     14 C           2.6328   -0.7287    0.3648 C.ar    1  UNL1       -0.0144
     15 C           1.5387   -1.5237    0.6376 C.ar    1  UNL1       -0.0533
     16 C           0.2953   -1.2740    0.0987 C.ar    1  UNL1       -0.0518
     17 C           3.8692   -0.9714    0.8966 C.ar    1  UNL1       -0.0125
     18 C           4.9014   -0.1375    0.5774 C.ar    1  UNL1        0.1175
     19 O           6.1359   -0.4328    1.1473 O.3     1  UNL1       -0.5067
     20 C           4.7154    0.9475   -0.2745 C.ar    1  UNL1       -0.0196
     21 C           3.4788    1.2154   -0.8249 C.ar    1  UNL1       -0.0506
     22 H          -6.8576    1.1345    0.5047 H       1  UNL1        0.2921
     23 H          -5.4955    0.6648   -1.9971 H       1  UNL1        0.0692
     24 H          -2.0688   -0.4395    1.3631 H       1  UNL1        0.0626
     25 H          -4.4095   -0.3330    1.9936 H       1  UNL1        0.0654
     26 H           1.0233    1.4218   -1.6781 H       1  UNL1        0.0630
     27 H           1.6892   -2.3733    1.3061 H       1  UNL1        0.0624
     28 H          -0.4894   -1.9514    0.3733 H       1  UNL1        0.0624
     29 H           3.9354   -1.8220    1.5417 H       1  UNL1        0.0660
     30 H           6.7464    0.3448    1.3799 H       1  UNL1        0.2921
     31 H           5.5907    1.5555   -0.4722 H       1  UNL1        0.0654
     32 H           3.3402    2.0619   -1.4877 H       1  UNL1        0.0625
@<TRIPOS>BOND
     1     1     2    1
     2     2     3   ar
     3     3     4   ar
     4     4     5   ar
     5     5     6   ar
     6     6     7   ar
     7     5     8   ar
     8     8     9   ar
     9     9    10   ar
    10     8    11    1
    11    11    12   ar
    12    12    13   ar
    13    13    14   ar
    14    14    15   ar
    15    15    16   ar
    16    14    17   ar
    17    17    18   ar
    18    18    19    1
    19    18    20   ar
    20    20    21   ar
    21     7     2   ar
    22    16    11   ar
    23    10     4   ar
    24    21    13   ar
    25     1    22    1
    26     3    23    1
    27     6    24    1
    28     7    25    1
    29    12    26    1
    30    15    27    1
    31    16    28    1
    32    17    29    1
    33    19    30    1
    34    20    31    1
    35    21    32    1
