
     RDKit          3D

 32 35  0  0  0  0  0  0  0  0999 V2000
   -6.3919    0.2274    0.4038 O   0  0  0  0  0  0  0  0  0  0  0  0
   -5.0489    0.1684    0.0328 C   0  0  0  0  0  0  0  0  0  0  0  0
   -4.7328    0.4270   -1.2853 C   0  0  0  0  0  0  0  0  0  0  0  0
   -3.3931    0.3697   -1.6628 C   0  0  0  0  0  0  0  0  0  0  0  0
   -2.4479    0.0567   -0.6976 C   0  0  0  0  0  0  0  0  0  0  0  0
   -2.7842   -0.1976    0.6104 C   0  0  0  0  0  0  0  0  0  0  0  0
   -4.0966   -0.1404    0.9752 C   0  0  0  0  0  0  0  0  0  0  0  0
   -1.2144    0.0642   -1.3176 C   0  0  0  0  0  0  0  0  0  0  0  0
   -1.4680    0.3798   -2.6223 N   0  0  0  0  0  0  0  0  0  0  0  0
   -2.7509    0.5502   -2.7827 O   0  0  0  0  0  0  0  0  0  0  0  0
    0.1031   -0.2008   -0.7463 C   0  0  0  0  0  0  0  0  0  0  0  0
    1.2044    0.5874   -1.0120 C   0  0  0  0  0  0  0  0  0  0  0  0
    2.4493    0.3490   -0.4810 C   0  0  0  0  0  0  0  0  0  0  0  0
    2.6328   -0.7287    0.3648 C   0  0  0  0  0  0  0  0  0  0  0  0
    1.5387   -1.5237    0.6376 C   0  0  0  0  0  0  0  0  0  0  0  0
    0.2953   -1.2740    0.0987 C   0  0  0  0  0  0  0  0  0  0  0  0
    3.8692   -0.9714    0.8966 C   0  0  0  0  0  0  0  0  0  0  0  0
    4.9014   -0.1375    0.5774 C   0  0  0  0  0  0  0  0  0  0  0  0
    6.1359   -0.4328    1.1473 O   0  0  0  0  0  0  0  0  0  0  0  0
    4.7154    0.9475   -0.2745 C   0  0  0  0  0  0  0  0  0  0  0  0
    3.4788    1.2154   -0.8249 C   0  0  0  0  0  0  0  0  0  0  0  0
   -6.8576    1.1345    0.5047 H   0  0  0  0  0  0  0  0  0  0  0  0
   -5.4955    0.6648   -1.9971 H   0  0  0  0  0  0  0  0  0  0  0  0
   -2.0688   -0.4395    1.3631 H   0  0  0  0  0  0  0  0  0  0  0  0
   -4.4095   -0.3330    1.9936 H   0  0  0  0  0  0  0  0  0  0  0  0
    1.0233    1.4218   -1.6781 H   0  0  0  0  0  0  0  0  0  0  0  0
    1.6892   -2.3733    1.3061 H   0  0  0  0  0  0  0  0  0  0  0  0
   -0.4894   -1.9514    0.3733 H   0  0  0  0  0  0  0  0  0  0  0  0
    3.9354   -1.8220    1.5417 H   0  0  0  0  0  0  0  0  0  0  0  0
    6.7464    0.3448    1.3799 H   0  0  0  0  0  0  0  0  0  0  0  0
    5.5907    1.5555   -0.4722 H   0  0  0  0  0  0  0  0  0  0  0  0
    3.3402    2.0619   -1.4877 H   0  0  0  0  0  0  0  0  0  0  0  0
  1  2  1  0
  2  3  2  0
  3  4  1  0
  4  5  2  0
  5  6  1  0
  6  7  2  0
  5  8  1  0
  8  9  2  0
  9 10  1  0
  8 11  1  0
 11 12  2  0
 12 13  1  0
 13 14  2  0
 14 15  1  0
 15 16  2  0
 14 17  1  0
 17 18  2  0
 18 19  1  0
 18 20  1  0
 20 21  2  0
  7  2  1  0
 16 11  1  0
 10  4  1  0
 21 13  1  0
  1 22  1  0
  3 23  1  0
  6 24  1  0
  7 25  1  0
 12 26  1  0
 15 27  1  0
 16 28  1  0
 17 29  1  0
 19 30  1  0
 20 31  1  0
 21 32  1  0
M  END
$$$$
