@<TRIPOS>MOLECULE
*****
 68 72 0 0 0
SMALL
GASTEIGER

@<TRIPOS>ATOM
      1 C          -5.2256   -4.2228    1.0180 C.3     1  UNL1       -0.0380
      2 C          -3.9400   -3.5952    0.6855 C.ar    1  UNL1       -0.0291
      3 C          -2.7938   -4.3338    0.7659 C.ar    1  UNL1       -0.0553
      4 C          -1.5692   -3.7815    0.4623 C.ar    1  UNL1       -0.0401
      5 C          -1.4898   -2.4768    0.0742 C.ar    1  UNL1        0.0354
      6 N          -0.2594   -1.8328   -0.2546 N.am    1  UNL1       -0.2814
      7 C           1.0009   -2.4357   -0.2217 C.2     1  UNL1        0.2483
      8 O           1.1395   -3.6327    0.1128 O.2     1  UNL1       -0.2699
      9 C           2.2065   -1.6666   -0.5838 C.ar    1  UNL1        0.0370
     10 C           2.2002   -0.3552   -0.9727 C.ar    1  UNL1       -0.0493
     11 C           3.3866    0.3161   -1.3029 C.ar    1  UNL1       -0.0566
     12 C           4.6104   -0.3101   -1.2519 C.ar    1  UNL1       -0.0333
     13 C           5.8744    0.3728   -1.5947 C.3     1  UNL1        0.0241
     14 N           6.5251    1.0126   -0.5182 N.3     1  UNL1       -0.2957
     15 C           6.9148    0.1909    0.5667 C.3     1  UNL1        0.0120
     16 C           7.6552    0.8802    1.6567 C.3     1  UNL1        0.0114
     17 N           8.7299    1.7201    1.1646 N.3     1  UNL1       -0.3029
     18 C           9.2502    2.4601    2.3159 C.3     1  UNL1       -0.0127
     19 C           8.1273    2.6934    0.2835 C.3     1  UNL1        0.0114
     20 C           7.3594    2.1078   -0.8442 C.3     1  UNL1        0.0120
     21 C           4.6081   -1.6307   -0.8595 C.ar    1  UNL1       -0.0566
     22 C           3.4512   -2.3054   -0.5314 C.ar    1  UNL1       -0.0493
     23 C          -2.6854   -1.7458    0.0017 C.ar    1  UNL1       -0.0190
     24 C          -3.9247   -2.2436    0.2912 C.ar    1  UNL1        0.0383
     25 N          -5.1333   -1.5325    0.2284 N.pl3   1  UNL1       -0.2833
     26 C          -5.3111   -0.1831   -0.1544 C.ar    1  UNL1        0.2200
     27 N          -4.3222    0.6336   -0.5342 N.ar    1  UNL1       -0.2226
     28 C          -4.5213    1.9082   -0.8913 C.ar    1  UNL1        0.0332
     29 C          -5.8201    2.4317   -0.8734 C.ar    1  UNL1       -0.0174
     30 C          -6.8584    1.6140   -0.4865 C.ar    1  UNL1        0.0775
     31 C          -8.2482    2.1131   -0.4484 C.ar    1  UNL1        0.0186
     32 C          -9.2380    1.2329   -0.0490 C.ar    1  UNL1       -0.0497
     33 C         -10.5608    1.5906    0.0223 C.ar    1  UNL1       -0.0430
     34 C         -10.8876    2.8804   -0.3221 C.ar    1  UNL1        0.0276
     35 N          -9.9267    3.7355   -0.7099 N.ar    1  UNL1       -0.2626
     36 C          -8.6092    3.3743   -0.7796 C.ar    1  UNL1        0.0367
     37 N          -6.5694    0.3578   -0.1472 N.ar    1  UNL1       -0.2142
     38 H          -5.8933   -4.1039    0.1397 H       1  UNL1        0.0278
     39 H          -5.6478   -3.8100    1.9421 H       1  UNL1        0.0278
     40 H          -5.1060   -5.3134    1.1661 H       1  UNL1        0.0278
     41 H          -2.8658   -5.3848    1.0792 H       1  UNL1        0.0621
     42 H          -0.7335   -4.4499    0.5585 H       1  UNL1        0.0636
     43 H          -0.3414   -0.8103   -0.5444 H       1  UNL1        0.1551
     44 H           1.2673    0.1754   -1.0272 H       1  UNL1        0.0625
     45 H           3.3290    1.3478   -1.6029 H       1  UNL1        0.0621
     46 H           6.5898   -0.3798   -2.0411 H       1  UNL1        0.0476
     47 H           5.7251    1.1314   -2.4105 H       1  UNL1        0.0476
     48 H           7.4791   -0.7165    0.2110 H       1  UNL1        0.0439
     49 H           5.9744   -0.2365    1.0250 H       1  UNL1        0.0439
     50 H           8.1281    0.1082    2.3019 H       1  UNL1        0.0439
     51 H           6.9628    1.4485    2.3327 H       1  UNL1        0.0439
     52 H           8.3843    3.0047    2.7768 H       1  UNL1        0.0391
     53 H           9.7410    1.8017    3.0422 H       1  UNL1        0.0391
     54 H           9.9443    3.2596    1.9567 H       1  UNL1        0.0391
     55 H           7.5412    3.4590    0.8685 H       1  UNL1        0.0439
     56 H           8.9818    3.2850   -0.1511 H       1  UNL1        0.0439
     57 H           8.0403    1.8512   -1.6894 H       1  UNL1        0.0439
     58 H           6.6988    2.9262   -1.2557 H       1  UNL1        0.0439
     59 H           5.5559   -2.1392   -0.8127 H       1  UNL1        0.0621
     60 H           3.4574   -3.3474   -0.2224 H       1  UNL1        0.0625
     61 H          -2.5804   -0.7135   -0.3097 H       1  UNL1        0.0655
     62 H          -6.0159   -2.0659    0.4990 H       1  UNL1        0.1550
     63 H          -3.7116    2.5567   -1.1962 H       1  UNL1        0.0831
     64 H          -5.9646    3.4449   -1.1591 H       1  UNL1        0.0654
     65 H          -8.9682    0.2158    0.2209 H       1  UNL1        0.0625
     66 H         -11.3149    0.8636    0.3440 H       1  UNL1        0.0633
     67 H         -11.9350    3.1614   -0.2653 H       1  UNL1        0.0829
     68 H          -7.8677    4.0881   -1.0950 H       1  UNL1        0.0836
@<TRIPOS>BOND
     1     1     2    1
     2     2     3   ar
     3     3     4   ar
     4     4     5   ar
     5     5     6    1
     6     6     7   am
     7     7     8    2
     8     7     9    1
     9     9    10   ar
    10    10    11   ar
    11    11    12   ar
    12    12    13    1
    13    13    14    1
    14    14    15    1
    15    15    16    1
    16    16    17    1
    17    17    18    1
    18    17    19    1
    19    19    20    1
    20    12    21   ar
    21    21    22   ar
    22     5    23   ar
    23    23    24   ar
    24    24    25    1
    25    25    26    1
    26    26    27   ar
    27    27    28   ar
    28    28    29   ar
    29    29    30   ar
    30    30    31    1
    31    31    32   ar
    32    32    33   ar
    33    33    34   ar
    34    34    35   ar
    35    35    36   ar
    36    30    37   ar
    37    24     2   ar
    38    37    26   ar
    39    22     9   ar
    40    36    31   ar
    41    20    14    1
    42     1    38    1
    43     1    39    1
    44     1    40    1
    45     3    41    1
    46     4    42    1
    47     6    43    1
    48    10    44    1
    49    11    45    1
    50    13    46    1
    51    13    47    1
    52    15    48    1
    53    15    49    1
    54    16    50    1
    55    16    51    1
    56    18    52    1
    57    18    53    1
    58    18    54    1
    59    19    55    1
    60    19    56    1
    61    20    57    1
    62    20    58    1
    63    21    59    1
    64    22    60    1
    65    23    61    1
    66    25    62    1
    67    28    63    1
    68    29    64    1
    69    32    65    1
    70    33    66    1
    71    34    67    1
    72    36    68    1
