
     RDKit          3D

 41 43  0  0  0  0  0  0  0  0999 V2000
    1.8181    0.6077   -0.1730 O   0  0  0  0  0  0  0  0  0  0  0  0
    1.9119   -0.1865   -1.1428 C   0  0  0  0  0  0  0  0  0  0  0  0
    0.7409   -0.3571   -2.0366 C   0  0  0  0  0  0  0  0  0  0  0  0
   -0.4034    0.4847   -1.6097 C   0  0  0  0  0  0  0  0  0  0  0  0
   -1.3117    0.0048   -0.7453 N   0  0  0  0  0  0  0  0  0  0  0  0
   -2.3650    0.7335   -0.3313 C   0  0  0  0  0  0  0  0  0  0  0  0
   -3.2991    0.1924    0.5793 N   0  0  0  0  0  0  0  0  0  0  0  0
   -4.4365    0.9424    1.0433 C   0  0  0  0  0  0  0  0  0  0  0  0
   -5.0855    0.1336    2.1442 C   0  0  0  0  0  0  0  0  0  0  0  0
   -5.4612   -1.1371    1.7296 O   0  0  0  0  0  0  0  0  0  0  0  0
   -4.4739   -1.8181    1.0679 C   0  0  0  0  0  0  0  0  0  0  0  0
   -3.1301   -1.1502    1.0740 C   0  0  0  0  0  0  0  0  0  0  0  0
   -2.5361    2.0286   -0.8028 C   0  0  0  0  0  0  0  0  0  0  0  0
   -1.6081    2.5119   -1.6827 C   0  0  0  0  0  0  0  0  0  0  0  0
   -1.7482    3.6948   -2.1247 O   0  0  0  0  0  0  0  0  0  0  0  0
   -0.5680    1.7373   -2.0663 N   0  0  0  0  0  0  0  0  0  0  0  0
    3.1353   -0.8716   -1.3220 N   0  0  0  0  0  0  0  0  0  0  0  0
    4.2621   -0.6952   -0.4463 C   0  0  0  0  0  0  0  0  0  0  0  0
    5.2124    0.2744   -0.6987 C   0  0  0  0  0  0  0  0  0  0  0  0
    6.3111    0.4862    0.1071 C   0  0  0  0  0  0  0  0  0  0  0  0
    6.4820   -0.3115    1.2352 C   0  0  0  0  0  0  0  0  0  0  0  0
    5.5447   -1.2859    1.5060 C   0  0  0  0  0  0  0  0  0  0  0  0
    4.4475   -1.4761    0.6756 C   0  0  0  0  0  0  0  0  0  0  0  0
    0.4391   -1.4365   -2.1009 H   0  0  0  0  0  0  0  0  0  0  0  0
    1.0765   -0.0835   -3.0615 H   0  0  0  0  0  0  0  0  0  0  0  0
   -4.1348    1.9039    1.4684 H   0  0  0  0  0  0  0  0  0  0  0  0
   -5.1334    1.1216    0.1980 H   0  0  0  0  0  0  0  0  0  0  0  0
   -5.9431    0.6718    2.5822 H   0  0  0  0  0  0  0  0  0  0  0  0
   -4.3292    0.0088    2.9465 H   0  0  0  0  0  0  0  0  0  0  0  0
   -4.7750   -2.1161    0.0358 H   0  0  0  0  0  0  0  0  0  0  0  0
   -4.3388   -2.8004    1.6104 H   0  0  0  0  0  0  0  0  0  0  0  0
   -2.4789   -1.7323    0.3723 H   0  0  0  0  0  0  0  0  0  0  0  0
   -2.6464   -1.1789    2.0484 H   0  0  0  0  0  0  0  0  0  0  0  0
   -3.3938    2.5830   -0.4477 H   0  0  0  0  0  0  0  0  0  0  0  0
    0.1166    2.1658   -2.7483 H   0  0  0  0  0  0  0  0  0  0  0  0
    3.2077   -1.5328   -2.1327 H   0  0  0  0  0  0  0  0  0  0  0  0
    5.1184    0.9194   -1.5682 H   0  0  0  0  0  0  0  0  0  0  0  0
    7.0520    1.2630   -0.1149 H   0  0  0  0  0  0  0  0  0  0  0  0
    7.3454   -0.1262    1.8458 H   0  0  0  0  0  0  0  0  0  0  0  0
    5.6621   -1.9218    2.3871 H   0  0  0  0  0  0  0  0  0  0  0  0
    3.7162   -2.2517    0.9054 H   0  0  0  0  0  0  0  0  0  0  0  0
  1  2  2  0
  2  3  1  0
  3  4  1  0
  4  5  2  0
  5  6  1  0
  6  7  1  0
  7  8  1  0
  8  9  1  0
  9 10  1  0
 10 11  1  0
 11 12  1  0
  6 13  2  0
 13 14  1  0
 14 15  2  0
 14 16  1  0
  2 17  1  0
 17 18  1  0
 18 19  2  0
 19 20  1  0
 20 21  2  0
 21 22  1  0
 22 23  2  0
 16  4  1  0
 23 18  1  0
 12  7  1  0
  3 24  1  0
  3 25  1  0
  8 26  1  0
  8 27  1  0
  9 28  1  0
  9 29  1  0
 11 30  1  0
 11 31  1  0
 12 32  1  0
 12 33  1  0
 13 34  1  0
 16 35  1  0
 17 36  1  0
 19 37  1  0
 20 38  1  0
 21 39  1  0
 22 40  1  0
 23 41  1  0
M  END
$$$$
