@<TRIPOS>MOLECULE
*****
 41 43 0 0 0
SMALL
GASTEIGER

@<TRIPOS>ATOM
      1 O           1.8181    0.6077   -0.1730 O.2     1  UNL1       -0.2750
      2 C           1.9119   -0.1865   -1.1428 C.2     1  UNL1        0.2245
      3 C           0.7409   -0.3571   -2.0366 C.3     1  UNL1        0.0824
      4 C          -0.4034    0.4847   -1.6097 C.ar    1  UNL1        0.1206
      5 N          -1.3117    0.0048   -0.7453 N.ar    1  UNL1       -0.2186
      6 C          -2.3650    0.7335   -0.3313 C.ar    1  UNL1        0.1285
      7 N          -3.2991    0.1924    0.5793 N.pl3   1  UNL1       -0.3106
      8 C          -4.4365    0.9424    1.0433 C.3     1  UNL1        0.0370
      9 C          -5.0855    0.1336    2.1442 C.3     1  UNL1        0.0634
     10 O          -5.4612   -1.1371    1.7296 O.3     1  UNL1       -0.3767
     11 C          -4.4739   -1.8181    1.0679 C.3     1  UNL1        0.0634
     12 C          -3.1301   -1.1502    1.0740 C.3     1  UNL1        0.0370
     13 C          -2.5361    2.0286   -0.8028 C.ar    1  UNL1        0.0427
     14 C          -1.6081    2.5119   -1.6827 C.ar    1  UNL1        0.2533
     15 O          -1.7482    3.6948   -2.1247 O.2     1  UNL1       -0.2677
     16 N          -0.5680    1.7373   -2.0663 N.ar    1  UNL1       -0.3104
     17 N           3.1353   -0.8716   -1.3220 N.am    1  UNL1       -0.2851
     18 C           4.2621   -0.6952   -0.4463 C.ar    1  UNL1        0.0334
     19 C           5.2124    0.2744   -0.6987 C.ar    1  UNL1       -0.0405
     20 C           6.3111    0.4862    0.1071 C.ar    1  UNL1       -0.0600
     21 C           6.4820   -0.3115    1.2352 C.ar    1  UNL1       -0.0616
     22 C           5.5447   -1.2859    1.5060 C.ar    1  UNL1       -0.0600
     23 C           4.4475   -1.4761    0.6756 C.ar    1  UNL1       -0.0405
     24 H           0.4391   -1.4365   -2.1009 H       1  UNL1        0.0438
     25 H           1.0765   -0.0835   -3.0615 H       1  UNL1        0.0438
     26 H          -4.1348    1.9039    1.4684 H       1  UNL1        0.0487
     27 H          -5.1334    1.1216    0.1980 H       1  UNL1        0.0487
     28 H          -5.9431    0.6718    2.5822 H       1  UNL1        0.0575
     29 H          -4.3292    0.0088    2.9465 H       1  UNL1        0.0575
     30 H          -4.7750   -2.1161    0.0358 H       1  UNL1        0.0575
     31 H          -4.3388   -2.8004    1.6104 H       1  UNL1        0.0575
     32 H          -2.4789   -1.7323    0.3723 H       1  UNL1        0.0487
     33 H          -2.6464   -1.1789    2.0484 H       1  UNL1        0.0487
     34 H          -3.3938    2.5830   -0.4477 H       1  UNL1        0.0706
     35 H           0.1166    2.1658   -2.7483 H       1  UNL1        0.1700
     36 H           3.2077   -1.5328   -2.1327 H       1  UNL1        0.1548
     37 H           5.1184    0.9194   -1.5682 H       1  UNL1        0.0636
     38 H           7.0520    1.2630   -0.1149 H       1  UNL1        0.0618
     39 H           7.3454   -0.1262    1.8458 H       1  UNL1        0.0618
     40 H           5.6621   -1.9218    2.3871 H       1  UNL1        0.0618
     41 H           3.7162   -2.2517    0.9054 H       1  UNL1        0.0636
@<TRIPOS>BOND
     1     1     2    2
     2     2     3    1
     3     3     4    1
     4     4     5   ar
     5     5     6   ar
     6     6     7    1
     7     7     8    1
     8     8     9    1
     9     9    10    1
    10    10    11    1
    11    11    12    1
    12     6    13   ar
    13    13    14   ar
    14    14    15    2
    15    14    16   ar
    16     2    17   am
    17    17    18    1
    18    18    19   ar
    19    19    20   ar
    20    20    21   ar
    21    21    22   ar
    22    22    23   ar
    23    16     4   ar
    24    23    18   ar
    25    12     7    1
    26     3    24    1
    27     3    25    1
    28     8    26    1
    29     8    27    1
    30     9    28    1
    31     9    29    1
    32    11    30    1
    33    11    31    1
    34    12    32    1
    35    12    33    1
    36    13    34    1
    37    16    35    1
    38    17    36    1
    39    19    37    1
    40    20    38    1
    41    21    39    1
    42    22    40    1
    43    23    41    1
