
     RDKit          3D

 44 46  0  0  0  0  0  0  0  0999 V2000
   -4.7037    2.0951   -1.1076 N   0  0  0  0  0  0  0  0  0  0  0  0
   -3.8566    0.9683   -0.8449 C   0  0  0  0  0  0  0  0  0  0  0  0
   -3.3111    0.7356    0.2536 N   0  0  0  0  0  0  0  0  0  0  0  0
   -2.4549   -0.3067    0.6986 C   0  0  2  0  0  0  0  0  0  0  0  0
   -2.9339   -1.1625    1.8228 C   0  0  0  0  0  0  0  0  0  0  0  0
   -3.2139   -0.5033    2.9967 F   0  0  0  0  0  0  0  0  0  0  0  0
   -1.1597    0.2925    1.1350 C   0  0  0  0  0  0  0  0  0  0  0  0
    0.0643   -0.0927    0.6631 C   0  0  0  0  0  0  0  0  0  0  0  0
    1.2307    0.4844    1.1681 C   0  0  0  0  0  0  0  0  0  0  0  0
    2.5160    0.1031    0.6949 N   0  0  0  0  0  0  0  0  0  0  0  0
    3.1715    0.7247   -0.3898 C   0  0  0  0  0  0  0  0  0  0  0  0
    2.5714    1.6702   -0.9619 O   0  0  0  0  0  0  0  0  0  0  0  0
    4.5098    0.2926   -0.8463 C   0  0  0  0  0  0  0  0  0  0  0  0
    5.0779    0.9552   -1.9146 C   0  0  0  0  0  0  0  0  0  0  0  0
    6.3200    0.5873   -2.3726 C   0  0  0  0  0  0  0  0  0  0  0  0
    6.9675   -0.4578   -1.7293 C   0  0  0  0  0  0  0  0  0  0  0  0
    8.1924   -0.8557   -2.1448 F   0  0  0  0  0  0  0  0  0  0  0  0
    6.3377   -1.0746   -0.6667 C   0  0  0  0  0  0  0  0  0  0  0  0
    5.1293   -0.7100   -0.2280 N   0  0  0  0  0  0  0  0  0  0  0  0
    1.1574    1.4482    2.1484 C   0  0  0  0  0  0  0  0  0  0  0  0
   -0.0509    1.8471    2.6335 C   0  0  0  0  0  0  0  0  0  0  0  0
   -1.1890    1.2578    2.1131 C   0  0  0  0  0  0  0  0  0  0  0  0
   -2.3617    1.7447    2.6407 F   0  0  0  0  0  0  0  0  0  0  0  0
   -2.2413   -1.2454   -0.4897 C   0  0  0  0  0  0  0  0  0  0  0  0
   -3.3597   -1.2565   -1.4748 C   0  0  1  0  0  0  0  0  0  0  0  0
   -4.6501   -1.8567   -1.0427 C   0  0  0  0  0  0  0  0  0  0  0  0
   -4.5548   -3.1807   -0.6559 F   0  0  0  0  0  0  0  0  0  0  0  0
   -5.4182   -1.9394   -2.2467 F   0  0  0  0  0  0  0  0  0  0  0  0
   -5.4199   -1.0776   -0.2275 F   0  0  0  0  0  0  0  0  0  0  0  0
   -3.6466    0.0841   -1.9190 O   0  0  0  0  0  0  0  0  0  0  0  0
   -4.2509    2.9206   -1.5588 H   0  0  0  0  0  0  0  0  0  0  0  0
   -5.7008    2.1354   -0.8840 H   0  0  0  0  0  0  0  0  0  0  0  0
   -2.0661   -1.8611    2.1173 H   0  0  0  0  0  0  0  0  0  0  0  0
   -3.7227   -1.8914    1.5526 H   0  0  0  0  0  0  0  0  0  0  0  0
    0.2042   -0.8457   -0.0855 H   0  0  0  0  0  0  0  0  0  0  0  0
    2.9921   -0.6826    1.1855 H   0  0  0  0  0  0  0  0  0  0  0  0
    4.5595    1.7675   -2.4043 H   0  0  0  0  0  0  0  0  0  0  0  0
    6.8221    1.0669   -3.2072 H   0  0  0  0  0  0  0  0  0  0  0  0
    6.8558   -1.8850   -0.1787 H   0  0  0  0  0  0  0  0  0  0  0  0
    2.0562    1.9112    2.5566 H   0  0  0  0  0  0  0  0  0  0  0  0
   -0.0993    2.5947    3.3938 H   0  0  0  0  0  0  0  0  0  0  0  0
   -1.9875   -2.2522   -0.1857 H   0  0  0  0  0  0  0  0  0  0  0  0
   -1.3794   -0.7668   -1.0553 H   0  0  0  0  0  0  0  0  0  0  0  0
   -3.0030   -1.7826   -2.3786 H   0  0  0  0  0  0  0  0  0  0  0  0
  1  2  1  0
  2  3  2  0
  3  4  1  0
  4  5  1  1
  5  6  1  0
  4  7  1  0
  7  8  2  0
  8  9  1  0
  9 10  1  0
 10 11  1  0
 11 12  2  0
 11 13  1  0
 13 14  2  0
 14 15  1  0
 15 16  2  0
 16 17  1  0
 16 18  1  0
 18 19  2  0
  9 20  2  0
 20 21  1  0
 21 22  2  0
 22 23  1  0
  4 24  1  0
 24 25  1  0
 25 26  1  0
 26 27  1  0
 26 28  1  0
 26 29  1  0
 25 30  1  0
 30  2  1  0
 22  7  1  0
 19 13  1  0
  1 31  1  0
  1 32  1  0
  5 33  1  0
  5 34  1  0
  8 35  1  0
 10 36  1  0
 14 37  1  0
 15 38  1  0
 18 39  1  0
 20 40  1  0
 21 41  1  0
 24 42  1  0
 24 43  1  0
 25 44  1  6
M  END
$$$$
