@<TRIPOS>MOLECULE
*****
 44 46 0 0 0
SMALL
GASTEIGER

@<TRIPOS>ATOM
      1 N          -4.7037    2.0951   -1.1076 N.pl3   1  UNL1       -0.3134
      2 C          -3.8566    0.9683   -0.8449 C.2     1  UNL1        0.2766
      3 N          -3.3111    0.7356    0.2536 N.2     1  UNL1       -0.2228
      4 C          -2.4549   -0.3067    0.6986 C.3     1  UNL1        0.1258
      5 C          -2.9339   -1.1625    1.8228 C.3     1  UNL1        0.1196
      6 F          -3.2139   -0.5033    2.9967 F       1  UNL1       -0.2462
      7 C          -1.1597    0.2925    1.1350 C.ar    1  UNL1        0.0196
      8 C           0.0643   -0.0927    0.6631 C.ar    1  UNL1       -0.0322
      9 C           1.2307    0.4844    1.1681 C.ar    1  UNL1        0.0342
     10 N           2.5160    0.1031    0.6949 N.am    1  UNL1       -0.2802
     11 C           3.1715    0.7247   -0.3898 C.2     1  UNL1        0.2666
     12 O           2.5714    1.6702   -0.9619 O.2     1  UNL1       -0.2682
     13 C           4.5098    0.2926   -0.8463 C.ar    1  UNL1        0.1258
     14 C           5.0779    0.9552   -1.9146 C.ar    1  UNL1       -0.0285
     15 C           6.3200    0.5873   -2.3726 C.ar    1  UNL1       -0.0228
     16 C           6.9675   -0.4578   -1.7293 C.ar    1  UNL1        0.1414
     17 F           8.1924   -0.8557   -2.1448 F       1  UNL1       -0.2039
     18 C           6.3377   -1.0746   -0.6667 C.ar    1  UNL1        0.0636
     19 N           5.1293   -0.7100   -0.2280 N.ar    1  UNL1       -0.2475
     20 C           1.1574    1.4482    2.1484 C.ar    1  UNL1       -0.0377
     21 C          -0.0509    1.8471    2.6335 C.ar    1  UNL1       -0.0243
     22 C          -1.1890    1.2578    2.1131 C.ar    1  UNL1        0.1291
     23 F          -2.3617    1.7447    2.6407 F       1  UNL1       -0.2051
     24 C          -2.2413   -1.2454   -0.4897 C.3     1  UNL1        0.0251
     25 C          -3.3597   -1.2565   -1.4748 C.3     1  UNL1        0.1998
     26 C          -4.6501   -1.8567   -1.0427 C.3     1  UNL1        0.4266
     27 F          -4.5548   -3.1807   -0.6559 F       1  UNL1       -0.1669
     28 F          -5.4182   -1.9394   -2.2467 F       1  UNL1       -0.1669
     29 F          -5.4199   -1.0776   -0.2275 F       1  UNL1       -0.1669
     30 O          -3.6466    0.0841   -1.9190 O.2     1  UNL1       -0.4534
     31 H          -4.2509    2.9206   -1.5588 H       1  UNL1        0.1466
     32 H          -5.7008    2.1354   -0.8840 H       1  UNL1        0.1466
     33 H          -2.0661   -1.8611    2.1173 H       1  UNL1        0.0643
     34 H          -3.7227   -1.8914    1.5526 H       1  UNL1        0.0643
     35 H           0.2042   -0.8457   -0.0855 H       1  UNL1        0.0640
     36 H           2.9921   -0.6826    1.1855 H       1  UNL1        0.1552
     37 H           4.5595    1.7675   -2.4043 H       1  UNL1        0.0641
     38 H           6.8221    1.0669   -3.2072 H       1  UNL1        0.0647
     39 H           6.8558   -1.8850   -0.1787 H       1  UNL1        0.0859
     40 H           2.0562    1.9112    2.5566 H       1  UNL1        0.0637
     41 H          -0.0993    2.5947    3.3938 H       1  UNL1        0.0647
     42 H          -1.9875   -2.2522   -0.1857 H       1  UNL1        0.0331
     43 H          -1.3794   -0.7668   -1.0553 H       1  UNL1        0.0331
     44 H          -3.0030   -1.7826   -2.3786 H       1  UNL1        0.0826
@<TRIPOS>BOND
     1     1     2    1
     2     2     3    2
     3     3     4    1
     4     4     5    1
     5     5     6    1
     6     4     7    1
     7     7     8   ar
     8     8     9   ar
     9     9    10    1
    10    10    11   am
    11    11    12    2
    12    11    13    1
    13    13    14   ar
    14    14    15   ar
    15    15    16   ar
    16    16    17    1
    17    16    18   ar
    18    18    19   ar
    19     9    20   ar
    20    20    21   ar
    21    21    22   ar
    22    22    23    1
    23     4    24    1
    24    24    25    1
    25    25    26    1
    26    26    27    1
    27    26    28    1
    28    26    29    1
    29    25    30    1
    30    30     2    1
    31    22     7   ar
    32    19    13   ar
    33     1    31    1
    34     1    32    1
    35     5    33    1
    36     5    34    1
    37     8    35    1
    38    10    36    1
    39    14    37    1
    40    15    38    1
    41    18    39    1
    42    20    40    1
    43    21    41    1
    44    24    42    1
    45    24    43    1
    46    25    44    1
