
     RDKit          3D

 33 34  0  0  0  0  0  0  0  0999 V2000
    0.9484   -1.0347   -0.8936 C   0  0  0  0  0  0  0  0  0  0  0  0
    1.6454   -0.3006    0.2323 C   0  0  1  0  0  0  0  0  0  0  0  0
    0.7019   -0.1865    1.3832 C   0  0  0  0  0  0  0  0  0  0  0  0
   -0.4652    0.5522    0.9469 N   0  0  0  0  0  0  0  0  0  0  0  0
   -0.4834    1.9116    1.0562 C   0  0  0  0  0  0  0  0  0  0  0  0
   -1.6797    2.3549    0.5790 N   0  0  0  0  0  0  0  0  0  0  0  0
   -2.4255    1.3201    0.1688 C   0  0  0  0  0  0  0  0  0  0  0  0
   -1.6469    0.2116    0.4087 C   0  0  0  0  0  0  0  0  0  0  0  0
   -2.0847   -1.0241    0.1151 N   0  0  0  0  0  0  0  0  0  0  0  0
   -3.3001   -1.2510   -0.4267 C   0  0  0  0  0  0  0  0  0  0  0  0
   -3.7354   -2.5709   -0.7265 N   0  0  0  0  0  0  0  0  0  0  0  0
   -4.0844   -0.1818   -0.6726 N   0  0  0  0  0  0  0  0  0  0  0  0
   -3.6634    1.0795   -0.3840 C   0  0  0  0  0  0  0  0  0  0  0  0
   -4.4701    2.2437   -0.6313 N   0  0  0  0  0  0  0  0  0  0  0  0
    2.8504   -0.9085    0.5668 O   0  0  0  0  0  0  0  0  0  0  0  0
    3.8280    0.0922    0.3618 C   0  0  0  0  0  0  0  0  0  0  0  0
    5.4909   -0.4678    0.7344 P   0  0  0  0  0  0  0  0  0  0  0  0
    6.5650    0.5505   -0.1245 O   0  0  0  0  0  1  0  0  0  0  0  0
    5.8875   -0.2864    2.3648 O   0  0  0  0  0  1  0  0  0  0  0  0
    5.7583   -1.8744    0.2456 O   0  0  0  0  0  0  0  0  0  0  0  0
    0.2031   -0.3430   -1.3370 H   0  0  0  0  0  0  0  0  0  0  0  0
    0.4594   -1.9527   -0.5635 H   0  0  0  0  0  0  0  0  0  0  0  0
    1.7064   -1.3569   -1.6556 H   0  0  0  0  0  0  0  0  0  0  0  0
    1.9060    0.7392   -0.0689 H   0  0  0  0  0  0  0  0  0  0  0  0
    1.1636    0.2666    2.2860 H   0  0  0  0  0  0  0  0  0  0  0  0
    0.3973   -1.2114    1.7083 H   0  0  0  0  0  0  0  0  0  0  0  0
    0.2745    2.5913    1.4411 H   0  0  0  0  0  0  0  0  0  0  0  0
   -4.7274   -2.8800   -0.6961 H   0  0  0  0  0  0  0  0  0  0  0  0
   -4.7592   -2.7923   -0.6693 H   0  0  0  0  0  0  0  0  0  0  0  0
   -5.3570    2.2151   -0.0930 H   0  0  0  0  0  0  0  0  0  0  0  0
   -4.3546    3.0889   -1.2225 H   0  0  0  0  0  0  0  0  0  0  0  0
    3.8271    0.4099   -0.7106 H   0  0  0  0  0  0  0  0  0  0  0  0
    3.6237    0.9958    0.9748 H   0  0  0  0  0  0  0  0  0  0  0  0
  1  2  1  0
  2  3  1  0
  3  4  1  0
  4  5  1  0
  5  6  2  0
  6  7  1  0
  7  8  2  0
  8  9  1  0
  9 10  2  0
 10 11  1  0
 10 12  1  0
 12 13  2  0
 13 14  1  0
  2 15  1  0
 15 16  1  0
 16 17  1  0
 17 18  1  0
 17 19  1  0
 17 20  2  0
  8  4  1  0
 13  7  1  0
  1 21  1  0
  1 22  1  0
  1 23  1  0
  2 24  1  6
  3 25  1  0
  3 26  1  0
  5 27  1  0
 11 28  1  0
 11 29  1  0
 14 30  1  0
 14 31  1  0
 16 32  1  0
 16 33  1  0
M  CHG  2  18  -1  19  -1
M  END
$$$$
