@<TRIPOS>MOLECULE
*****
 33 34 0 0 0
SMALL
GASTEIGER

@<TRIPOS>ATOM
      1 C           0.9484   -1.0347   -0.8936 C.3     1  UNL1       -0.0370
      2 C           1.6454   -0.3006    0.2323 C.3     1  UNL1        0.0744
      3 C           0.7019   -0.1865    1.3832 C.3     1  UNL1        0.0521
      4 N          -0.4652    0.5522    0.9469 N.ar    1  UNL1       -0.3124
      5 C          -0.4834    1.9116    1.0562 C.ar    1  UNL1        0.0984
      6 N          -1.6797    2.3549    0.5790 N.ar    1  UNL1       -0.2306
      7 C          -2.4255    1.3201    0.1688 C.ar    1  UNL1        0.1473
      8 C          -1.6469    0.2116    0.4087 C.ar    1  UNL1        0.1673
      9 N          -2.0847   -1.0241    0.1151 N.ar    1  UNL1       -0.1949
     10 C          -3.3001   -1.2510   -0.4267 C.ar    1  UNL1        0.2162
     11 N          -3.7354   -2.5709   -0.7265 N.pl3   1  UNL1       -0.3274
     12 N          -4.0844   -0.1818   -0.6726 N.ar    1  UNL1       -0.1978
     13 C          -3.6634    1.0795   -0.3840 C.ar    1  UNL1        0.1491
     14 N          -4.4701    2.2437   -0.6313 N.pl3   1  UNL1       -0.3413
     15 O           2.8504   -0.9085    0.5668 O.3     1  UNL1       -0.3677
     16 C           3.8280    0.0922    0.3618 C.3     1  UNL1        0.1012
     17 P           5.4909   -0.4678    0.7344 P.3     1  UNL1        0.1339
     18 O           6.5650    0.5505   -0.1245 O.co2   1  UNL1       -0.3560
     19 O           5.8875   -0.2864    2.3648 O.co2   1  UNL1       -0.3560
     20 O           5.7583   -1.8744    0.2456 O.2     1  UNL1       -0.4584
     21 H           0.2031   -0.3430   -1.3370 H       1  UNL1        0.0255
     22 H           0.4594   -1.9527   -0.5635 H       1  UNL1        0.0255
     23 H           1.7064   -1.3569   -1.6556 H       1  UNL1        0.0255
     24 H           1.9060    0.7392   -0.0689 H       1  UNL1        0.0611
     25 H           1.1636    0.2666    2.2860 H       1  UNL1        0.0518
     26 H           0.3973   -1.2114    1.7083 H       1  UNL1        0.0518
     27 H           0.2745    2.5913    1.4411 H       1  UNL1        0.1029
     28 H          -4.7274   -2.8800   -0.6961 H       1  UNL1        0.1452
     29 H          -4.7592   -2.7923   -0.6693 H       1  UNL1        0.1452
     30 H          -5.3570    2.2151   -0.0930 H       1  UNL1        0.1438
     31 H          -4.3546    3.0889   -1.2225 H       1  UNL1        0.1438
     32 H           3.8271    0.4099   -0.7106 H       1  UNL1        0.0639
     33 H           3.6237    0.9958    0.9748 H       1  UNL1        0.0639
@<TRIPOS>UNITY_ATOM_ATTR
18 1
charge -1
19 1
charge -1
@<TRIPOS>BOND
     1     1     2    1
     2     2     3    1
     3     3     4    1
     4     4     5   ar
     5     5     6   ar
     6     6     7   ar
     7     7     8   ar
     8     8     9   ar
     9     9    10   ar
    10    10    11    1
    11    10    12   ar
    12    12    13   ar
    13    13    14    1
    14     2    15    1
    15    15    16    1
    16    16    17    1
    17    17    18    1
    18    17    19    1
    19    17    20    2
    20     8     4   ar
    21    13     7   ar
    22     1    21    1
    23     1    22    1
    24     1    23    1
    25     2    24    1
    26     3    25    1
    27     3    26    1
    28     5    27    1
    29    11    28    1
    30    11    29    1
    31    14    30    1
    32    14    31    1
    33    16    32    1
    34    16    33    1
