@<TRIPOS>MOLECULE
*****
 33 35 0 0 0
SMALL
GASTEIGER

@<TRIPOS>ATOM
      1 O           0.3358   -1.8884    0.4506 O.2     1  UNL1       -0.2873
      2 C           0.2296   -0.6834    0.1972 C.2     1  UNL1        0.1867
      3 C          -1.1683   -0.1835    0.0758 C.2     1  UNL1       -0.0137
      4 C          -2.2123   -0.9989    0.2338 C.2     1  UNL1       -0.0495
      5 C          -3.5972   -0.6038    0.1345 C.ar    1  UNL1       -0.0068
      6 C          -4.0096    0.6768   -0.1385 C.ar    1  UNL1       -0.0517
      7 C          -5.3734    0.9908   -0.2206 C.ar    1  UNL1       -0.0430
      8 C          -6.3146    0.0079   -0.0263 C.ar    1  UNL1        0.0276
      9 N          -5.8855   -1.2348    0.2389 N.ar    1  UNL1       -0.2627
     10 C          -4.5820   -1.5465    0.3198 C.ar    1  UNL1        0.0347
     11 C           1.3136    0.2549    0.0139 C.ar    1  UNL1        0.0294
     12 C           1.0785    1.5921   -0.2687 C.ar    1  UNL1       -0.0503
     13 C           2.1106    2.4822   -0.4425 C.ar    1  UNL1       -0.0605
     14 C           3.3979    2.0508   -0.3368 C.ar    1  UNL1       -0.0540
     15 C           3.6697    0.7221   -0.0555 C.ar    1  UNL1       -0.0172
     16 C           4.9832    0.3065    0.0473 C.ar    1  UNL1       -0.0540
     17 C           5.2684   -1.0082    0.3258 C.ar    1  UNL1       -0.0612
     18 C           4.2727   -1.9419    0.5092 C.ar    1  UNL1       -0.0611
     19 C           2.9563   -1.4797    0.3967 C.ar    1  UNL1       -0.0533
     20 C           2.6370   -0.1815    0.1212 C.ar    1  UNL1       -0.0071
     21 H          -1.4072    0.8274   -0.1386 H       1  UNL1        0.0656
     22 H          -1.9691   -2.0370    0.4539 H       1  UNL1        0.0625
     23 H          -3.2990    1.4597   -0.2937 H       1  UNL1        0.0624
     24 H          -5.7213    1.9920   -0.4343 H       1  UNL1        0.0633
     25 H          -7.3768    0.2588   -0.0916 H       1  UNL1        0.0829
     26 H          -4.2831   -2.5670    0.5370 H       1  UNL1        0.0835
     27 H           0.0589    1.9313   -0.3520 H       1  UNL1        0.0625
     28 H           1.8749    3.5330   -0.6653 H       1  UNL1        0.0618
     29 H           4.2203    2.7520   -0.4736 H       1  UNL1        0.0624
     30 H           5.7676    1.0489   -0.0986 H       1  UNL1        0.0624
     31 H           6.3076   -1.3135    0.4022 H       1  UNL1        0.0618
     32 H           4.4957   -2.9816    0.7295 H       1  UNL1        0.0618
     33 H           2.2209   -2.2375    0.5464 H       1  UNL1        0.0624
@<TRIPOS>BOND
     1     1     2    2
     2     2     3    1
     3     3     4    2
     4     4     5    1
     5     5     6   ar
     6     6     7   ar
     7     7     8   ar
     8     8     9   ar
     9     9    10   ar
    10     2    11    1
    11    11    12   ar
    12    12    13   ar
    13    13    14   ar
    14    14    15   ar
    15    15    16   ar
    16    16    17   ar
    17    17    18   ar
    18    18    19   ar
    19    19    20   ar
    20    10     5   ar
    21    20    11   ar
    22    20    15   ar
    23     3    21    1
    24     4    22    1
    25     6    23    1
    26     7    24    1
    27     8    25    1
    28    10    26    1
    29    12    27    1
    30    13    28    1
    31    14    29    1
    32    16    30    1
    33    17    31    1
    34    18    32    1
    35    19    33    1
