
     RDKit          3D

 48 50  0  0  0  0  0  0  0  0999 V2000
    6.4579   -1.6390    0.7989 C   0  0  0  0  0  0  0  0  0  0  0  0
    5.0699   -1.2321    0.5293 N   0  0  0  0  0  0  0  0  0  0  0  0
    5.0812    0.2159    0.4067 C   0  0  0  0  0  0  0  0  0  0  0  0
    3.7208    0.7751    0.1289 C   0  0  0  0  0  0  0  0  0  0  0  0
    3.8227    2.1610    0.0270 O   0  0  0  0  0  0  0  0  0  0  0  0
    2.7323    0.4764    1.2293 C   0  0  0  0  0  0  0  0  0  0  0  0
    1.3349    0.8506    0.8880 C   0  0  0  0  0  0  0  0  0  0  0  0
    1.0151    0.8656   -0.5044 N   0  0  0  0  0  0  0  0  0  0  0  0
   -0.3361    0.5929   -0.8846 C   0  0  0  0  0  0  0  0  0  0  0  0
   -1.2926    0.3311   -0.0273 N   0  0  0  0  0  0  0  0  0  0  0  0
   -2.6048    0.0644   -0.3641 C   0  0  0  0  0  0  0  0  0  0  0  0
   -3.4674   -0.1823    0.5822 O   0  0  0  0  0  0  0  0  0  0  0  0
   -4.6612   -0.4703    1.0178 C   0  0  0  0  0  0  0  0  0  0  0  0
   -5.7692   -0.6645    0.2240 C   0  0  0  0  0  0  0  0  0  0  0  0
   -7.0287   -0.9720    0.7439 C   0  0  0  0  0  0  0  0  0  0  0  0
   -7.1759   -1.0872    2.1033 C   0  0  0  0  0  0  0  0  0  0  0  0
   -6.0942   -0.9009    2.9322 C   0  0  0  0  0  0  0  0  0  0  0  0
   -6.2677   -1.0218    4.2924 F   0  0  0  0  0  0  0  0  0  0  0  0
   -4.8660   -0.6006    2.4192 C   0  0  0  0  0  0  0  0  0  0  0  0
   -2.8760    0.0879   -1.7230 C   0  0  0  0  0  0  0  0  0  0  0  0
   -1.8910    0.3586   -2.6235 C   0  0  0  0  0  0  0  0  0  0  0  0
   -2.2131    0.3779   -4.0954 C   0  0  0  0  0  0  0  0  0  0  0  0
   -3.2155   -0.5045   -4.3598 F   0  0  0  0  0  0  0  0  0  0  0  0
   -1.0997    0.1764   -4.8599 F   0  0  0  0  0  0  0  0  0  0  0  0
   -2.6600    1.6777   -4.3499 F   0  0  0  0  0  0  0  0  0  0  0  0
   -0.6418    0.6068   -2.2088 N   0  0  0  0  0  0  0  0  0  0  0  0
    1.9852    1.1406   -1.5297 C   0  0  0  0  0  0  0  0  0  0  0  0
    3.2085    0.2739   -1.2044 C   0  0  0  0  0  0  0  0  0  0  0  0
    6.4117   -2.7635    0.8581 H   0  0  0  0  0  0  0  0  0  0  0  0
    7.1275   -1.3831   -0.0384 H   0  0  0  0  0  0  0  0  0  0  0  0
    6.7800   -1.2050    1.7537 H   0  0  0  0  0  0  0  0  0  0  0  0
    4.7864   -1.6498   -0.3744 H   0  0  0  0  0  0  0  0  0  0  0  0
    5.7356    0.4943   -0.4500 H   0  0  0  0  0  0  0  0  0  0  0  0
    5.5298    0.6996    1.2976 H   0  0  0  0  0  0  0  0  0  0  0  0
    4.4875    2.3952   -0.6687 H   0  0  0  0  0  0  0  0  0  0  0  0
    2.7746   -0.6320    1.4052 H   0  0  0  0  0  0  0  0  0  0  0  0
    3.0068    0.9534    2.1848 H   0  0  0  0  0  0  0  0  0  0  0  0
    1.1709    1.9018    1.2678 H   0  0  0  0  0  0  0  0  0  0  0  0
    0.5959    0.2393    1.4762 H   0  0  0  0  0  0  0  0  0  0  0  0
   -5.6700   -0.5777   -0.8426 H   0  0  0  0  0  0  0  0  0  0  0  0
   -7.8655   -1.1135    0.0586 H   0  0  0  0  0  0  0  0  0  0  0  0
   -8.1258   -1.3228    2.5558 H   0  0  0  0  0  0  0  0  0  0  0  0
   -4.0060   -0.4518    3.0673 H   0  0  0  0  0  0  0  0  0  0  0  0
   -3.8607   -0.1033   -2.1223 H   0  0  0  0  0  0  0  0  0  0  0  0
    2.3641    2.1946   -1.4742 H   0  0  0  0  0  0  0  0  0  0  0  0
    1.6298    0.9790   -2.5425 H   0  0  0  0  0  0  0  0  0  0  0  0
    2.8678   -0.7779   -1.0469 H   0  0  0  0  0  0  0  0  0  0  0  0
    3.9919    0.3657   -1.9644 H   0  0  0  0  0  0  0  0  0  0  0  0
  1  2  1  0
  2  3  1  0
  3  4  1  0
  4  5  1  0
  4  6  1  0
  6  7  1  0
  7  8  1  0
  8  9  1  0
  9 10  2  0
 10 11  1  0
 11 12  1  0
 12 13  1  0
 13 14  2  0
 14 15  1  0
 15 16  2  0
 16 17  1  0
 17 18  1  0
 17 19  2  0
 11 20  2  0
 20 21  1  0
 21 22  1  0
 22 23  1  0
 22 24  1  0
 22 25  1  0
 21 26  2  0
  8 27  1  0
 27 28  1  0
 28  4  1  0
 26  9  1  0
 19 13  1  0
  1 29  1  0
  1 30  1  0
  1 31  1  0
  2 32  1  0
  3 33  1  0
  3 34  1  0
  5 35  1  0
  6 36  1  0
  6 37  1  0
  7 38  1  0
  7 39  1  0
 14 40  1  0
 15 41  1  0
 16 42  1  0
 19 43  1  0
 20 44  1  0
 27 45  1  0
 27 46  1  0
 28 47  1  0
 28 48  1  0
M  END
$$$$
