@<TRIPOS>MOLECULE
*****
 48 50 0 0 0
SMALL
GASTEIGER

@<TRIPOS>ATOM
      1 C           6.4579   -1.6390    0.7989 C.3     1  UNL1       -0.0157
      2 N           5.0699   -1.2321    0.5293 N.3     1  UNL1       -0.3163
      3 C           5.0812    0.2159    0.4067 C.3     1  UNL1        0.0246
      4 C           3.7208    0.7751    0.1289 C.3     1  UNL1        0.0813
      5 O           3.8227    2.1610    0.0270 O.3     1  UNL1       -0.3872
      6 C           2.7323    0.4764    1.2293 C.3     1  UNL1       -0.0069
      7 C           1.3349    0.8506    0.8880 C.3     1  UNL1        0.0175
      8 N           1.0151    0.8656   -0.5044 N.pl3   1  UNL1       -0.2994
      9 C          -0.3361    0.5929   -0.8846 C.ar    1  UNL1        0.2214
     10 N          -1.2926    0.3311   -0.0273 N.ar    1  UNL1       -0.1790
     11 C          -2.6048    0.0644   -0.3641 C.ar    1  UNL1        0.2254
     12 O          -3.4674   -0.1823    0.5822 O.3     1  UNL1       -0.4378
     13 C          -4.6612   -0.4703    1.0178 C.ar    1  UNL1        0.1331
     14 C          -5.7692   -0.6645    0.2240 C.ar    1  UNL1       -0.0191
     15 C          -7.0287   -0.9720    0.7439 C.ar    1  UNL1       -0.0556
     16 C          -7.1759   -1.0872    2.1033 C.ar    1  UNL1       -0.0262
     17 C          -6.0942   -0.9009    2.9322 C.ar    1  UNL1        0.1269
     18 F          -6.2677   -1.0218    4.2924 F       1  UNL1       -0.2054
     19 C          -4.8660   -0.6006    2.4192 C.ar    1  UNL1        0.0160
     20 C          -2.8760    0.0879   -1.7230 C.ar    1  UNL1        0.0305
     21 C          -1.8910    0.3586   -2.6235 C.ar    1  UNL1        0.1522
     22 C          -2.2131    0.3779   -4.0954 C.3     1  UNL1        0.4345
     23 F          -3.2155   -0.5045   -4.3598 F       1  UNL1       -0.1644
     24 F          -1.0997    0.1764   -4.8599 F       1  UNL1       -0.1644
     25 F          -2.6600    1.6777   -4.3499 F       1  UNL1       -0.1644
     26 N          -0.6418    0.6068   -2.2088 N.ar    1  UNL1       -0.2101
     27 C           1.9852    1.1406   -1.5297 C.3     1  UNL1        0.0175
     28 C           3.2085    0.2739   -1.2044 C.3     1  UNL1       -0.0069
     29 H           6.4117   -2.7635    0.8581 H       1  UNL1        0.0388
     30 H           7.1275   -1.3831   -0.0384 H       1  UNL1        0.0388
     31 H           6.7800   -1.2050    1.7537 H       1  UNL1        0.0388
     32 H           4.7864   -1.6498   -0.3744 H       1  UNL1        0.1217
     33 H           5.7356    0.4943   -0.4500 H       1  UNL1        0.0452
     34 H           5.5298    0.6996    1.2976 H       1  UNL1        0.0452
     35 H           4.4875    2.3952   -0.6687 H       1  UNL1        0.2102
     36 H           2.7746   -0.6320    1.4052 H       1  UNL1        0.0308
     37 H           3.0068    0.9534    2.1848 H       1  UNL1        0.0308
     38 H           1.1709    1.9018    1.2678 H       1  UNL1        0.0465
     39 H           0.5959    0.2393    1.4762 H       1  UNL1        0.0465
     40 H          -5.6700   -0.5777   -0.8426 H       1  UNL1        0.0654
     41 H          -7.8655   -1.1135    0.0586 H       1  UNL1        0.0620
     42 H          -8.1258   -1.3228    2.5558 H       1  UNL1        0.0646
     43 H          -4.0060   -0.4518    3.0673 H       1  UNL1        0.0683
     44 H          -3.8607   -0.1033   -2.1223 H       1  UNL1        0.0692
     45 H           2.3641    2.1946   -1.4742 H       1  UNL1        0.0465
     46 H           1.6298    0.9790   -2.5425 H       1  UNL1        0.0465
     47 H           2.8678   -0.7779   -1.0469 H       1  UNL1        0.0308
     48 H           3.9919    0.3657   -1.9644 H       1  UNL1        0.0308
@<TRIPOS>BOND
     1     1     2    1
     2     2     3    1
     3     3     4    1
     4     4     5    1
     5     4     6    1
     6     6     7    1
     7     7     8    1
     8     8     9    1
     9     9    10   ar
    10    10    11   ar
    11    11    12    1
    12    12    13    1
    13    13    14   ar
    14    14    15   ar
    15    15    16   ar
    16    16    17   ar
    17    17    18    1
    18    17    19   ar
    19    11    20   ar
    20    20    21   ar
    21    21    22    1
    22    22    23    1
    23    22    24    1
    24    22    25    1
    25    21    26   ar
    26     8    27    1
    27    27    28    1
    28    28     4    1
    29    26     9   ar
    30    19    13   ar
    31     1    29    1
    32     1    30    1
    33     1    31    1
    34     2    32    1
    35     3    33    1
    36     3    34    1
    37     5    35    1
    38     6    36    1
    39     6    37    1
    40     7    38    1
    41     7    39    1
    42    14    40    1
    43    15    41    1
    44    16    42    1
    45    19    43    1
    46    20    44    1
    47    27    45    1
    48    27    46    1
    49    28    47    1
    50    28    48    1
