@<TRIPOS>MOLECULE
*****
 43 45 0 0 0
SMALL
GASTEIGER

@<TRIPOS>ATOM
      1 C          -1.3275    2.4954    0.2639 C.3     1  UNL1       -0.0239
      2 C          -1.6602    1.0272    0.2255 C.ar    1  UNL1        0.0222
      3 C          -2.5790    0.4422   -0.6317 C.ar    1  UNL1       -0.0070
      4 C          -3.4126    1.1425   -1.6679 C.3     1  UNL1        0.0721
      5 C          -4.5431    1.8555   -1.0438 C.2     1  UNL1        0.3091
      6 O          -4.7261    1.8275    0.2164 O.2     1  UNL1       -0.2507
      7 O          -5.4534    2.5838   -1.7895 O.3     1  UNL1       -0.4804
      8 C          -2.5759   -0.8934   -0.3422 C.ar    1  UNL1        0.0228
      9 C          -3.2758   -1.9657   -0.8605 C.ar    1  UNL1       -0.0493
     10 C          -3.0457   -3.2242   -0.3437 C.ar    1  UNL1       -0.0429
     11 C          -2.1199   -3.3715    0.6786 C.ar    1  UNL1        0.0299
     12 N          -1.4525   -2.3000    1.1622 N.ar    1  UNL1       -0.2373
     13 C          -1.6628   -1.0753    0.6736 C.ar    1  UNL1        0.1414
     14 N          -1.1077    0.1026    1.0148 N.ar    1  UNL1       -0.3247
     15 C          -0.1091    0.3054    2.0413 C.3     1  UNL1        0.0499
     16 C           1.2665    0.1786    1.5061 C.ar    1  UNL1       -0.0276
     17 C           1.8839   -1.0547    1.4749 C.ar    1  UNL1       -0.0551
     18 C           3.1673   -1.2216    0.9858 C.ar    1  UNL1       -0.0366
     19 C           3.8841   -0.1487    0.5061 C.ar    1  UNL1        0.0879
     20 S           5.5220   -0.3592   -0.1200 S.O2    1  UNL1       -0.0059
     21 C           5.3813   -0.6894   -1.8655 C.3     1  UNL1        0.0596
     22 O           6.3159    0.9127    0.0206 O.2     1  UNL1       -0.1696
     23 O           6.2333   -1.4788    0.5802 O.2     1  UNL1       -0.1696
     24 C           3.2828    1.0897    0.5299 C.ar    1  UNL1       -0.0366
     25 C           1.9844    1.2513    1.0261 C.ar    1  UNL1       -0.0551
     26 H          -0.6798    2.7014   -0.6294 H       1  UNL1        0.0292
     27 H          -2.2762    3.0586    0.2050 H       1  UNL1        0.0292
     28 H          -0.7851    2.7408    1.1874 H       1  UNL1        0.0292
     29 H          -2.7358    1.8485   -2.1805 H       1  UNL1        0.0427
     30 H          -3.8085    0.3780   -2.3662 H       1  UNL1        0.0427
     31 H          -5.8580    3.4440   -1.4236 H       1  UNL1        0.2951
     32 H          -4.0074   -1.8330   -1.6714 H       1  UNL1        0.0625
     33 H          -3.5906   -4.0897   -0.7407 H       1  UNL1        0.0633
     34 H          -1.9724   -4.3801    1.0533 H       1  UNL1        0.0830
     35 H          -0.2550    1.2882    2.5666 H       1  UNL1        0.0542
     36 H          -0.2752   -0.4686    2.8445 H       1  UNL1        0.0542
     37 H           1.3128   -1.8961    1.8546 H       1  UNL1        0.0621
     38 H           3.6554   -2.1790    0.9572 H       1  UNL1        0.0637
     39 H           4.7396   -1.5896   -1.9777 H       1  UNL1        0.0468
     40 H           4.8703    0.1877   -2.3182 H       1  UNL1        0.0468
     41 H           6.3964   -0.8134   -2.2803 H       1  UNL1        0.0468
     42 H           3.8458    1.9331    0.1524 H       1  UNL1        0.0637
     43 H           1.5537    2.2374    1.0260 H       1  UNL1        0.0621
@<TRIPOS>BOND
     1     1     2    1
     2     2     3   ar
     3     3     4    1
     4     4     5    1
     5     5     6    2
     6     5     7    1
     7     3     8   ar
     8     8     9   ar
     9     9    10   ar
    10    10    11   ar
    11    11    12   ar
    12    12    13   ar
    13    13    14   ar
    14    14    15    1
    15    15    16    1
    16    16    17   ar
    17    17    18   ar
    18    18    19   ar
    19    19    20    1
    20    20    21    1
    21    20    22    2
    22    20    23    2
    23    19    24   ar
    24    24    25   ar
    25    14     2   ar
    26    25    16   ar
    27    13     8   ar
    28     1    26    1
    29     1    27    1
    30     1    28    1
    31     4    29    1
    32     4    30    1
    33     7    31    1
    34     9    32    1
    35    10    33    1
    36    11    34    1
    37    15    35    1
    38    15    36    1
    39    17    37    1
    40    18    38    1
    41    21    39    1
    42    21    40    1
    43    21    41    1
    44    24    42    1
    45    25    43    1
