@<TRIPOS>MOLECULE
*****
 68 70 0 0 0
SMALL
GASTEIGER

@<TRIPOS>ATOM
      1 C          -0.2048    4.0556   -3.0911 C.3     1  UNL1       -0.0652
      2 C          -0.8185    2.6761   -3.1377 C.3     1  UNL1       -0.0544
      3 C          -0.5546    2.0659   -1.7267 C.3     1  UNL1       -0.0357
      4 C          -1.1462    0.7152   -1.7465 C.3     1  UNL1        0.0350
      5 N          -1.1191   -0.0910   -0.5665 N.pl3   1  UNL1       -0.2027
      6 C          -2.2003    0.1699    0.3717 C.ar    1  UNL1        0.0547
      7 C          -2.0229    1.1229    1.3451 C.ar    1  UNL1       -0.0388
      8 C          -3.0572    1.3645    2.2362 C.ar    1  UNL1       -0.0594
      9 C          -4.2454    0.6407    2.1254 C.ar    1  UNL1       -0.0537
     10 C          -4.4311   -0.3182    1.1496 C.ar    1  UNL1       -0.0132
     11 C          -5.6737   -1.0667    1.0171 C.ar    1  UNL1       -0.0175
     12 C          -6.3591   -1.2049   -0.1469 C.ar    1  UNL1       -0.0526
     13 C          -7.5274   -1.9315   -0.2055 C.ar    1  UNL1       -0.0428
     14 C          -8.0087   -2.5294    0.9426 C.ar    1  UNL1        0.0410
     15 CL         -9.4980   -3.4599    0.8829 Cl      1  UNL1       -0.0835
     16 C          -7.3467   -2.4160    2.1464 C.ar    1  UNL1       -0.0428
     17 C          -6.1964   -1.6895    2.1598 C.ar    1  UNL1       -0.0526
     18 C          -3.3957   -0.5451    0.2755 C.ar    1  UNL1       -0.0202
     19 C          -3.5812   -1.5794   -0.7648 C.3     1  UNL1       -0.0373
     20 S           0.0665   -1.2544   -0.2421 S.O2    1  UNL1        0.0750
     21 O           0.0921   -2.1962   -1.4584 O.2     1  UNL1       -0.1498
     22 O          -0.3495   -2.1762    0.9009 O.2     1  UNL1       -0.1498
     23 C           1.6882   -0.7173   -0.0401 C.ar    1  UNL1        0.1121
     24 C           2.0831    0.5648    0.1982 C.ar    1  UNL1       -0.0313
     25 C           3.4049    0.9115    0.4085 C.ar    1  UNL1       -0.0178
     26 C           4.3815   -0.0312    0.3869 C.ar    1  UNL1        0.1249
     27 O           5.6926    0.2813    0.5906 O.3     1  UNL1       -0.4776
     28 C           6.3128    1.4830    0.8423 C.3     1  UNL1        0.1931
     29 C           7.3168    1.8844   -0.2222 C.3     1  UNL1       -0.0172
     30 C           6.9879    1.5203    2.1840 C.2     1  UNL1        0.3456
     31 O           7.6016    2.5384    2.5741 O.2     1  UNL1       -0.2468
     32 O           6.9258    0.4044    2.9984 O.3     1  UNL1       -0.4781
     33 C           4.0190   -1.3402    0.1501 C.ar    1  UNL1       -0.0040
     34 C           5.1037   -2.3632    0.1304 C.3     1  UNL1       -0.0359
     35 C           2.6988   -1.6749   -0.0590 C.ar    1  UNL1       -0.0175
     36 C           2.3551   -3.0940   -0.3103 C.3     1  UNL1       -0.0375
     37 H           0.7435    4.0952   -2.5314 H       1  UNL1        0.0230
     38 H          -0.9422    4.7109   -2.5424 H       1  UNL1        0.0230
     39 H          -0.1340    4.5125   -4.1081 H       1  UNL1        0.0230
     40 H          -0.3247    2.0514   -3.8942 H       1  UNL1        0.0263
     41 H          -1.8983    2.7775   -3.2396 H       1  UNL1        0.0263
     42 H           0.5797    2.0735   -1.7187 H       1  UNL1        0.0281
     43 H          -0.9945    2.7884   -1.0275 H       1  UNL1        0.0281
     44 H          -0.7166    0.1629   -2.6327 H       1  UNL1        0.0482
     45 H          -2.2433    0.8440   -2.0258 H       1  UNL1        0.0482
     46 H          -1.0951    1.6629    1.4027 H       1  UNL1        0.0637
     47 H          -2.9181    2.1020    2.9889 H       1  UNL1        0.0618
     48 H          -5.0498    0.8362    2.8277 H       1  UNL1        0.0624
     49 H          -5.9425   -0.7132   -1.0221 H       1  UNL1        0.0624
     50 H          -8.0361   -2.0114   -1.1591 H       1  UNL1        0.0632
     51 H          -7.7684   -2.9064    3.0211 H       1  UNL1        0.0632
     52 H          -5.6672   -1.5981    3.1191 H       1  UNL1        0.0624
     53 H          -2.5679   -2.0774   -0.8921 H       1  UNL1        0.0278
     54 H          -3.7329   -1.1249   -1.7879 H       1  UNL1        0.0278
     55 H          -4.2732   -2.3788   -0.5186 H       1  UNL1        0.0278
     56 H           1.3529    1.3310    0.2582 H       1  UNL1        0.0638
     57 H           3.6379    1.9388    0.5882 H       1  UNL1        0.0655
     58 H           5.5718    2.3017    0.8760 H       1  UNL1        0.0849
     59 H           7.3030    2.9658   -0.4057 H       1  UNL1        0.0271
     60 H           7.1809    1.2885   -1.1597 H       1  UNL1        0.0271
     61 H           8.3244    1.6284    0.1662 H       1  UNL1        0.0271
     62 H           7.5337    0.2981    3.8033 H       1  UNL1        0.2952
     63 H           5.0581   -2.9893   -0.7827 H       1  UNL1        0.0279
     64 H           5.0101   -2.9431    1.0585 H       1  UNL1        0.0279
     65 H           6.0956   -1.8777    0.1218 H       1  UNL1        0.0279
     66 H           1.5368   -3.4343    0.3563 H       1  UNL1        0.0278
     67 H           3.2274   -3.7484   -0.0523 H       1  UNL1        0.0278
     68 H           2.1553   -3.2864   -1.3863 H       1  UNL1        0.0278
@<TRIPOS>BOND
     1     1     2    1
     2     2     3    1
     3     3     4    1
     4     4     5    1
     5     5     6    1
     6     6     7   ar
     7     7     8   ar
     8     8     9   ar
     9     9    10   ar
    10    10    11    1
    11    11    12   ar
    12    12    13   ar
    13    13    14   ar
    14    14    15    1
    15    14    16   ar
    16    16    17   ar
    17    10    18   ar
    18    18    19    1
    19     5    20    1
    20    20    21    2
    21    20    22    2
    22    20    23    1
    23    23    24   ar
    24    24    25   ar
    25    25    26   ar
    26    26    27    1
    27    27    28    1
    28    28    29    1
    29    28    30    1
    30    30    31    2
    31    30    32    1
    32    26    33   ar
    33    33    34    1
    34    33    35   ar
    35    35    36    1
    36    18     6   ar
    37    35    23   ar
    38    17    11   ar
    39     1    37    1
    40     1    38    1
    41     1    39    1
    42     2    40    1
    43     2    41    1
    44     3    42    1
    45     3    43    1
    46     4    44    1
    47     4    45    1
    48     7    46    1
    49     8    47    1
    50     9    48    1
    51    12    49    1
    52    13    50    1
    53    16    51    1
    54    17    52    1
    55    19    53    1
    56    19    54    1
    57    19    55    1
    58    24    56    1
    59    25    57    1
    60    28    58    1
    61    29    59    1
    62    29    60    1
    63    29    61    1
    64    32    62    1
    65    34    63    1
    66    34    64    1
    67    34    65    1
    68    36    66    1
    69    36    67    1
    70    36    68    1
