@<TRIPOS>MOLECULE
*****
 45 48 0 0 0
SMALL
GASTEIGER

@<TRIPOS>ATOM
      1 C          -6.4347   -1.6304    0.8216 C.3     1  UNL1        0.0124
      2 C          -5.0074   -1.8963    0.6255 C.2     1  UNL1        0.2128
      3 O          -4.4603   -2.8641    1.2086 O.2     1  UNL1       -0.2759
      4 N          -4.1938   -1.0832   -0.2199 N.am    1  UNL1       -0.2968
      5 C          -4.7276    0.0604   -0.9406 C.3     1  UNL1        0.0204
      6 C          -4.1582    1.2931   -0.2744 C.3     1  UNL1        0.0055
      7 C          -2.6588    1.1394   -0.2359 C.ar    1  UNL1        0.0469
      8 C          -2.0251   -0.0615   -0.2971 C.ar    1  UNL1        0.0324
      9 C          -0.6497    0.1986   -0.2342 C.ar    1  UNL1        0.1498
     10 N           0.3651   -0.7894   -0.2609 N.pl3   1  UNL1       -0.2978
     11 C           1.7489   -0.5700   -0.2303 C.ar    1  UNL1        0.0325
     12 C           2.2880    0.6798   -0.3798 C.ar    1  UNL1       -0.0399
     13 C           3.6701    0.8069   -0.3261 C.ar    1  UNL1       -0.0508
     14 C           4.5350   -0.2424   -0.1321 C.ar    1  UNL1        0.0022
     15 C           5.9794   -0.0739   -0.0796 C.ar    1  UNL1        0.0925
     16 C           6.9483   -1.0374    0.1069 C.ar    1  UNL1       -0.0165
     17 C           8.1957   -0.4607    0.0914 C.ar    1  UNL1        0.0229
     18 N           7.9787    0.8495   -0.1042 N.ar    1  UNL1       -0.2842
     19 N           6.6590    1.0769   -0.2057 N.ar    1  UNL1       -0.1739
     20 C           3.9518   -1.4835    0.0138 C.ar    1  UNL1       -0.0508
     21 C           2.5953   -1.6677   -0.0306 C.ar    1  UNL1       -0.0399
     22 N          -0.5566    1.5403   -0.1396 N.ar    1  UNL1       -0.1557
     23 N          -1.7273    2.1050   -0.1395 N.ar    1  UNL1       -0.2692
     24 C          -1.9864    3.5448   -0.0497 C.3     1  UNL1        0.0306
     25 C          -2.7836   -1.3499   -0.4098 C.3     1  UNL1        0.0447
     26 H          -6.6648   -0.5503    0.9636 H       1  UNL1        0.0323
     27 H          -6.7731   -2.1329    1.7513 H       1  UNL1        0.0323
     28 H          -7.0231   -2.0508   -0.0300 H       1  UNL1        0.0323
     29 H          -4.4128    0.0410   -2.0081 H       1  UNL1        0.0468
     30 H          -5.8285    0.1323   -0.8532 H       1  UNL1        0.0468
     31 H          -4.5337    1.3241    0.7847 H       1  UNL1        0.0343
     32 H          -4.4272    2.2203   -0.8019 H       1  UNL1        0.0343
     33 H           0.0229   -1.7979   -0.3099 H       1  UNL1        0.1536
     34 H           1.6640    1.5586   -0.5427 H       1  UNL1        0.0636
     35 H           4.0923    1.8122   -0.4471 H       1  UNL1        0.0625
     36 H           6.7697   -2.1114    0.2484 H       1  UNL1        0.0654
     37 H           9.1619   -0.9181    0.2063 H       1  UNL1        0.0824
     38 H           8.7340    1.5934   -0.1690 H       1  UNL1        0.1882
     39 H           4.6104   -2.3411    0.1697 H       1  UNL1        0.0625
     40 H           2.1622   -2.6732    0.0890 H       1  UNL1        0.0636
     41 H          -1.8097    3.9553   -1.0767 H       1  UNL1        0.0473
     42 H          -3.0043    3.7407    0.2987 H       1  UNL1        0.0473
     43 H          -1.2239    3.9404    0.6545 H       1  UNL1        0.0473
     44 H          -2.4463   -2.0359    0.3964 H       1  UNL1        0.0515
     45 H          -2.6155   -1.7910   -1.4172 H       1  UNL1        0.0515
@<TRIPOS>BOND
     1     1     2    1
     2     2     3    2
     3     2     4   am
     4     4     5    1
     5     5     6    1
     6     6     7    1
     7     7     8   ar
     8     8     9   ar
     9     9    10    1
    10    10    11    1
    11    11    12   ar
    12    12    13   ar
    13    13    14   ar
    14    14    15    1
    15    15    16   ar
    16    16    17   ar
    17    17    18   ar
    18    18    19   ar
    19    14    20   ar
    20    20    21   ar
    21     9    22   ar
    22    22    23   ar
    23    23    24    1
    24     8    25    1
    25    25     4    1
    26    23     7   ar
    27    21    11   ar
    28    19    15   ar
    29     1    26    1
    30     1    27    1
    31     1    28    1
    32     5    29    1
    33     5    30    1
    34     6    31    1
    35     6    32    1
    36    10    33    1
    37    12    34    1
    38    13    35    1
    39    16    36    1
    40    17    37    1
    41    18    38    1
    42    20    39    1
    43    21    40    1
    44    24    41    1
    45    24    42    1
    46    24    43    1
    47    25    44    1
    48    25    45    1
