
     RDKit          3D

 45 48  0  0  0  0  0  0  0  0999 V2000
   -6.4347   -1.6304    0.8216 C   0  0  0  0  0  0  0  0  0  0  0  0
   -5.0074   -1.8963    0.6255 C   0  0  0  0  0  0  0  0  0  0  0  0
   -4.4603   -2.8641    1.2086 O   0  0  0  0  0  0  0  0  0  0  0  0
   -4.1938   -1.0832   -0.2199 N   0  0  0  0  0  0  0  0  0  0  0  0
   -4.7276    0.0604   -0.9406 C   0  0  0  0  0  0  0  0  0  0  0  0
   -4.1582    1.2931   -0.2744 C   0  0  0  0  0  0  0  0  0  0  0  0
   -2.6588    1.1394   -0.2359 C   0  0  0  0  0  0  0  0  0  0  0  0
   -2.0251   -0.0615   -0.2971 C   0  0  0  0  0  0  0  0  0  0  0  0
   -0.6497    0.1986   -0.2342 C   0  0  0  0  0  0  0  0  0  0  0  0
    0.3651   -0.7894   -0.2609 N   0  0  0  0  0  0  0  0  0  0  0  0
    1.7489   -0.5700   -0.2303 C   0  0  0  0  0  0  0  0  0  0  0  0
    2.2880    0.6798   -0.3798 C   0  0  0  0  0  0  0  0  0  0  0  0
    3.6701    0.8069   -0.3261 C   0  0  0  0  0  0  0  0  0  0  0  0
    4.5350   -0.2424   -0.1321 C   0  0  0  0  0  0  0  0  0  0  0  0
    5.9794   -0.0739   -0.0796 C   0  0  0  0  0  0  0  0  0  0  0  0
    6.9483   -1.0374    0.1069 C   0  0  0  0  0  0  0  0  0  0  0  0
    8.1957   -0.4607    0.0914 C   0  0  0  0  0  0  0  0  0  0  0  0
    7.9787    0.8495   -0.1042 N   0  0  0  0  0  0  0  0  0  0  0  0
    6.6590    1.0769   -0.2057 N   0  0  0  0  0  0  0  0  0  0  0  0
    3.9518   -1.4835    0.0138 C   0  0  0  0  0  0  0  0  0  0  0  0
    2.5953   -1.6677   -0.0306 C   0  0  0  0  0  0  0  0  0  0  0  0
   -0.5566    1.5403   -0.1396 N   0  0  0  0  0  0  0  0  0  0  0  0
   -1.7273    2.1050   -0.1395 N   0  0  0  0  0  0  0  0  0  0  0  0
   -1.9864    3.5448   -0.0497 C   0  0  0  0  0  0  0  0  0  0  0  0
   -2.7836   -1.3499   -0.4098 C   0  0  0  0  0  0  0  0  0  0  0  0
   -6.6648   -0.5503    0.9636 H   0  0  0  0  0  0  0  0  0  0  0  0
   -6.7731   -2.1329    1.7513 H   0  0  0  0  0  0  0  0  0  0  0  0
   -7.0231   -2.0508   -0.0300 H   0  0  0  0  0  0  0  0  0  0  0  0
   -4.4128    0.0410   -2.0081 H   0  0  0  0  0  0  0  0  0  0  0  0
   -5.8285    0.1323   -0.8532 H   0  0  0  0  0  0  0  0  0  0  0  0
   -4.5337    1.3241    0.7847 H   0  0  0  0  0  0  0  0  0  0  0  0
   -4.4272    2.2203   -0.8019 H   0  0  0  0  0  0  0  0  0  0  0  0
    0.0229   -1.7979   -0.3099 H   0  0  0  0  0  0  0  0  0  0  0  0
    1.6640    1.5586   -0.5427 H   0  0  0  0  0  0  0  0  0  0  0  0
    4.0923    1.8122   -0.4471 H   0  0  0  0  0  0  0  0  0  0  0  0
    6.7697   -2.1114    0.2484 H   0  0  0  0  0  0  0  0  0  0  0  0
    9.1619   -0.9181    0.2063 H   0  0  0  0  0  0  0  0  0  0  0  0
    8.7340    1.5934   -0.1690 H   0  0  0  0  0  0  0  0  0  0  0  0
    4.6104   -2.3411    0.1697 H   0  0  0  0  0  0  0  0  0  0  0  0
    2.1622   -2.6732    0.0890 H   0  0  0  0  0  0  0  0  0  0  0  0
   -1.8097    3.9553   -1.0767 H   0  0  0  0  0  0  0  0  0  0  0  0
   -3.0043    3.7407    0.2987 H   0  0  0  0  0  0  0  0  0  0  0  0
   -1.2239    3.9404    0.6545 H   0  0  0  0  0  0  0  0  0  0  0  0
   -2.4463   -2.0359    0.3964 H   0  0  0  0  0  0  0  0  0  0  0  0
   -2.6155   -1.7910   -1.4172 H   0  0  0  0  0  0  0  0  0  0  0  0
  1  2  1  0
  2  3  2  0
  2  4  1  0
  4  5  1  0
  5  6  1  0
  6  7  1  0
  7  8  2  0
  8  9  1  0
  9 10  1  0
 10 11  1  0
 11 12  2  0
 12 13  1  0
 13 14  2  0
 14 15  1  0
 15 16  1  0
 16 17  2  0
 17 18  1  0
 18 19  1  0
 14 20  1  0
 20 21  2  0
  9 22  2  0
 22 23  1  0
 23 24  1  0
  8 25  1  0
 25  4  1  0
 23  7  1  0
 21 11  1  0
 19 15  2  0
  1 26  1  0
  1 27  1  0
  1 28  1  0
  5 29  1  0
  5 30  1  0
  6 31  1  0
  6 32  1  0
 10 33  1  0
 12 34  1  0
 13 35  1  0
 16 36  1  0
 17 37  1  0
 18 38  1  0
 20 39  1  0
 21 40  1  0
 24 41  1  0
 24 42  1  0
 24 43  1  0
 25 44  1  0
 25 45  1  0
M  END
$$$$
