@<TRIPOS>MOLECULE
*****
 60 62 0 0 0
SMALL
GASTEIGER

@<TRIPOS>ATOM
      1 C          -7.6850   -1.1963   -1.9362 C.3     1  UNL1       -0.0613
      2 C          -7.0495   -1.5147   -0.6019 C.3     1  UNL1       -0.0305
      3 C          -5.6613   -1.0307   -0.5036 C.ar    1  UNL1       -0.0467
      4 C          -4.6346   -1.8617   -0.9010 C.ar    1  UNL1       -0.0551
      5 C          -3.3089   -1.4599   -0.8302 C.ar    1  UNL1       -0.0189
      6 C          -3.0289   -0.2127   -0.3553 C.ar    1  UNL1        0.1331
      7 O          -1.7763    0.3258   -0.2271 O.3     1  UNL1       -0.4882
      8 C          -0.5995   -0.3043   -0.5944 C.3     1  UNL1        0.1005
      9 C          -0.5782   -0.8767   -1.9915 C.3     1  UNL1       -0.0277
     10 C          -0.1218   -1.3768    0.3673 C.3     1  UNL1        0.0182
     11 C           0.1027   -0.7144    1.7054 C.3     1  UNL1        0.0929
     12 O           1.0189    0.2872    1.7241 O.3     1  UNL1       -0.4918
     13 C           2.3335    0.2682    1.4901 C.ar    1  UNL1        0.1208
     14 C           3.0313    1.4856    1.5554 C.ar    1  UNL1       -0.0197
     15 C           4.3866    1.5675    1.3327 C.ar    1  UNL1       -0.0549
     16 C           5.0907    0.4082    1.0324 C.ar    1  UNL1       -0.0437
     17 C           6.5483    0.4800    0.8050 C.3     1  UNL1       -0.0174
     18 C           6.8836    0.3072   -0.6468 C.3     1  UNL1        0.0487
     19 C           6.3078    1.2958   -1.5568 C.2     1  UNL1        0.3050
     20 O           5.5732    2.2414   -1.1978 O.2     1  UNL1       -0.2510
     21 O           6.5608    1.2336   -2.9478 O.3     1  UNL1       -0.4806
     22 C           4.4460   -0.8090    0.9588 C.ar    1  UNL1       -0.0438
     23 C           5.1520   -2.0786    0.6468 C.3     1  UNL1       -0.0393
     24 C           3.0780   -0.8317    1.1934 C.ar    1  UNL1       -0.0168
     25 C          -4.0606    0.6598    0.0589 C.ar    1  UNL1        0.0787
     26 C          -3.7270    1.9939    0.5643 C.ar    1  UNL1        0.2306
     27 N          -2.5306    2.5464    0.7026 N.ar    1  UNL1       -0.2174
     28 C          -2.6296    3.7980    1.2044 C.ar    1  UNL1        0.0663
     29 C          -4.0026    3.9828    1.3696 C.ar    1  UNL1        0.1125
     30 O          -4.6034    2.8773    0.9726 O.2     1  UNL1       -0.4434
     31 C          -5.3590    0.2385   -0.0213 C.ar    1  UNL1       -0.0428
     32 H          -8.5727   -1.8454   -2.0841 H       1  UNL1        0.0233
     33 H          -8.0425   -0.1380   -1.9592 H       1  UNL1        0.0233
     34 H          -6.9150   -1.3702   -2.7261 H       1  UNL1        0.0233
     35 H          -7.6248   -1.0110    0.2252 H       1  UNL1        0.0311
     36 H          -7.0973   -2.5882   -0.4028 H       1  UNL1        0.0311
     37 H          -4.8271   -2.8576   -1.2825 H       1  UNL1        0.0621
     38 H          -2.5118   -2.1381   -1.1433 H       1  UNL1        0.0654
     39 H           0.2671    0.4458   -0.5957 H       1  UNL1        0.0731
     40 H          -1.4743   -0.6259   -2.5872 H       1  UNL1        0.0265
     41 H           0.2816   -0.4195   -2.5616 H       1  UNL1        0.0265
     42 H          -0.3532   -1.9688   -2.0208 H       1  UNL1        0.0265
     43 H           0.7306   -1.8848   -0.0722 H       1  UNL1        0.0334
     44 H          -0.8871   -2.1644    0.5556 H       1  UNL1        0.0334
     45 H          -0.9344   -0.3610    2.0257 H       1  UNL1        0.0698
     46 H           0.3595   -1.5797    2.4023 H       1  UNL1        0.0698
     47 H           2.4974    2.3994    1.7880 H       1  UNL1        0.0654
     48 H           4.9298    2.4929    1.3924 H       1  UNL1        0.0621
     49 H           6.9083    1.4898    1.1413 H       1  UNL1        0.0318
     50 H           7.0887   -0.3284    1.3497 H       1  UNL1        0.0318
     51 H           6.5477   -0.7120   -0.9657 H       1  UNL1        0.0381
     52 H           8.0065    0.2616   -0.7652 H       1  UNL1        0.0381
     53 H           6.4728    2.0674   -3.5144 H       1  UNL1        0.2951
     54 H           6.1982   -2.1053    0.9452 H       1  UNL1        0.0278
     55 H           4.9587   -2.3918   -0.4122 H       1  UNL1        0.0278
     56 H           4.6234   -2.8662    1.2663 H       1  UNL1        0.0278
     57 H           2.6295   -1.8042    1.1440 H       1  UNL1        0.0657
     58 H          -1.8246    4.4862    1.4225 H       1  UNL1        0.0862
     59 H          -4.4157    4.8994    1.7598 H       1  UNL1        0.1046
     60 H          -6.1759    0.8884    0.2904 H       1  UNL1        0.0629
@<TRIPOS>BOND
     1     1     2    1
     2     2     3    1
     3     3     4   ar
     4     4     5   ar
     5     5     6   ar
     6     6     7    1
     7     7     8    1
     8     8     9    1
     9     8    10    1
    10    10    11    1
    11    11    12    1
    12    12    13    1
    13    13    14   ar
    14    14    15   ar
    15    15    16   ar
    16    16    17    1
    17    17    18    1
    18    18    19    1
    19    19    20    2
    20    19    21    1
    21    16    22   ar
    22    22    23    1
    23    22    24   ar
    24     6    25   ar
    25    25    26    1
    26    26    27   ar
    27    27    28   ar
    28    28    29   ar
    29    29    30   ar
    30    25    31   ar
    31    31     3   ar
    32    24    13   ar
    33    30    26   ar
    34     1    32    1
    35     1    33    1
    36     1    34    1
    37     2    35    1
    38     2    36    1
    39     4    37    1
    40     5    38    1
    41     8    39    1
    42     9    40    1
    43     9    41    1
    44     9    42    1
    45    10    43    1
    46    10    44    1
    47    11    45    1
    48    11    46    1
    49    14    47    1
    50    15    48    1
    51    17    49    1
    52    17    50    1
    53    18    51    1
    54    18    52    1
    55    21    53    1
    56    23    54    1
    57    23    55    1
    58    23    56    1
    59    24    57    1
    60    28    58    1
    61    29    59    1
    62    31    60    1
