
     RDKit          3D

 60 62  0  0  0  0  0  0  0  0999 V2000
   -7.6850   -1.1963   -1.9362 C   0  0  0  0  0  0  0  0  0  0  0  0
   -7.0495   -1.5147   -0.6019 C   0  0  0  0  0  0  0  0  0  0  0  0
   -5.6613   -1.0307   -0.5036 C   0  0  0  0  0  0  0  0  0  0  0  0
   -4.6346   -1.8617   -0.9010 C   0  0  0  0  0  0  0  0  0  0  0  0
   -3.3089   -1.4599   -0.8302 C   0  0  0  0  0  0  0  0  0  0  0  0
   -3.0289   -0.2127   -0.3553 C   0  0  0  0  0  0  0  0  0  0  0  0
   -1.7763    0.3258   -0.2271 O   0  0  0  0  0  0  0  0  0  0  0  0
   -0.5995   -0.3043   -0.5944 C   0  0  2  0  0  0  0  0  0  0  0  0
   -0.5782   -0.8767   -1.9915 C   0  0  0  0  0  0  0  0  0  0  0  0
   -0.1218   -1.3768    0.3673 C   0  0  0  0  0  0  0  0  0  0  0  0
    0.1027   -0.7144    1.7054 C   0  0  0  0  0  0  0  0  0  0  0  0
    1.0189    0.2872    1.7241 O   0  0  0  0  0  0  0  0  0  0  0  0
    2.3335    0.2682    1.4901 C   0  0  0  0  0  0  0  0  0  0  0  0
    3.0313    1.4856    1.5554 C   0  0  0  0  0  0  0  0  0  0  0  0
    4.3866    1.5675    1.3327 C   0  0  0  0  0  0  0  0  0  0  0  0
    5.0907    0.4082    1.0324 C   0  0  0  0  0  0  0  0  0  0  0  0
    6.5483    0.4800    0.8050 C   0  0  0  0  0  0  0  0  0  0  0  0
    6.8836    0.3072   -0.6468 C   0  0  0  0  0  0  0  0  0  0  0  0
    6.3078    1.2958   -1.5568 C   0  0  0  0  0  0  0  0  0  0  0  0
    5.5732    2.2414   -1.1978 O   0  0  0  0  0  0  0  0  0  0  0  0
    6.5608    1.2336   -2.9478 O   0  0  0  0  0  0  0  0  0  0  0  0
    4.4460   -0.8090    0.9588 C   0  0  0  0  0  0  0  0  0  0  0  0
    5.1520   -2.0786    0.6468 C   0  0  0  0  0  0  0  0  0  0  0  0
    3.0780   -0.8317    1.1934 C   0  0  0  0  0  0  0  0  0  0  0  0
   -4.0606    0.6598    0.0589 C   0  0  0  0  0  0  0  0  0  0  0  0
   -3.7270    1.9939    0.5643 C   0  0  0  0  0  0  0  0  0  0  0  0
   -2.5306    2.5464    0.7026 N   0  0  0  0  0  0  0  0  0  0  0  0
   -2.6296    3.7980    1.2044 C   0  0  0  0  0  0  0  0  0  0  0  0
   -4.0026    3.9828    1.3696 C   0  0  0  0  0  0  0  0  0  0  0  0
   -4.6034    2.8773    0.9726 O   0  0  0  0  0  0  0  0  0  0  0  0
   -5.3590    0.2385   -0.0213 C   0  0  0  0  0  0  0  0  0  0  0  0
   -8.5727   -1.8454   -2.0841 H   0  0  0  0  0  0  0  0  0  0  0  0
   -8.0425   -0.1380   -1.9592 H   0  0  0  0  0  0  0  0  0  0  0  0
   -6.9150   -1.3702   -2.7261 H   0  0  0  0  0  0  0  0  0  0  0  0
   -7.6248   -1.0110    0.2252 H   0  0  0  0  0  0  0  0  0  0  0  0
   -7.0973   -2.5882   -0.4028 H   0  0  0  0  0  0  0  0  0  0  0  0
   -4.8271   -2.8576   -1.2825 H   0  0  0  0  0  0  0  0  0  0  0  0
   -2.5118   -2.1381   -1.1433 H   0  0  0  0  0  0  0  0  0  0  0  0
    0.2671    0.4458   -0.5957 H   0  0  0  0  0  0  0  0  0  0  0  0
   -1.4743   -0.6259   -2.5872 H   0  0  0  0  0  0  0  0  0  0  0  0
    0.2816   -0.4195   -2.5616 H   0  0  0  0  0  0  0  0  0  0  0  0
   -0.3532   -1.9688   -2.0208 H   0  0  0  0  0  0  0  0  0  0  0  0
    0.7306   -1.8848   -0.0722 H   0  0  0  0  0  0  0  0  0  0  0  0
   -0.8871   -2.1644    0.5556 H   0  0  0  0  0  0  0  0  0  0  0  0
   -0.9344   -0.3610    2.0257 H   0  0  0  0  0  0  0  0  0  0  0  0
    0.3595   -1.5797    2.4023 H   0  0  0  0  0  0  0  0  0  0  0  0
    2.4974    2.3994    1.7880 H   0  0  0  0  0  0  0  0  0  0  0  0
    4.9298    2.4929    1.3924 H   0  0  0  0  0  0  0  0  0  0  0  0
    6.9083    1.4898    1.1413 H   0  0  0  0  0  0  0  0  0  0  0  0
    7.0887   -0.3284    1.3497 H   0  0  0  0  0  0  0  0  0  0  0  0
    6.5477   -0.7120   -0.9657 H   0  0  0  0  0  0  0  0  0  0  0  0
    8.0065    0.2616   -0.7652 H   0  0  0  0  0  0  0  0  0  0  0  0
    6.4728    2.0674   -3.5144 H   0  0  0  0  0  0  0  0  0  0  0  0
    6.1982   -2.1053    0.9452 H   0  0  0  0  0  0  0  0  0  0  0  0
    4.9587   -2.3918   -0.4122 H   0  0  0  0  0  0  0  0  0  0  0  0
    4.6234   -2.8662    1.2663 H   0  0  0  0  0  0  0  0  0  0  0  0
    2.6295   -1.8042    1.1440 H   0  0  0  0  0  0  0  0  0  0  0  0
   -1.8246    4.4862    1.4225 H   0  0  0  0  0  0  0  0  0  0  0  0
   -4.4157    4.8994    1.7598 H   0  0  0  0  0  0  0  0  0  0  0  0
   -6.1759    0.8884    0.2904 H   0  0  0  0  0  0  0  0  0  0  0  0
  1  2  1  0
  2  3  1  0
  3  4  2  0
  4  5  1  0
  5  6  2  0
  6  7  1  0
  7  8  1  0
  8  9  1  0
  8 10  1  0
 10 11  1  0
 11 12  1  0
 12 13  1  0
 13 14  2  0
 14 15  1  0
 15 16  2  0
 16 17  1  0
 17 18  1  0
 18 19  1  0
 19 20  2  0
 19 21  1  0
 16 22  1  0
 22 23  1  0
 22 24  2  0
  6 25  1  0
 25 26  1  0
 26 27  2  0
 27 28  1  0
 28 29  2  0
 29 30  1  0
 25 31  2  0
 31  3  1  0
 24 13  1  0
 30 26  1  0
  1 32  1  0
  1 33  1  0
  1 34  1  0
  2 35  1  0
  2 36  1  0
  4 37  1  0
  5 38  1  0
  8 39  1  6
  9 40  1  0
  9 41  1  0
  9 42  1  0
 10 43  1  0
 10 44  1  0
 11 45  1  0
 11 46  1  0
 14 47  1  0
 15 48  1  0
 17 49  1  0
 17 50  1  0
 18 51  1  0
 18 52  1  0
 21 53  1  0
 23 54  1  0
 23 55  1  0
 23 56  1  0
 24 57  1  0
 28 58  1  0
 29 59  1  0
 31 60  1  0
M  END
$$$$
