@<TRIPOS>MOLECULE
*****
 60 64 0 0 0
SMALL
GASTEIGER

@<TRIPOS>ATOM
      1 C           0.3594    4.4498    0.8137 C.3     1  UNL1       -0.0397
      2 C          -0.6738    3.3750    0.7633 C.ar    1  UNL1       -0.0496
      3 C          -1.3854    3.0529    1.9032 C.ar    1  UNL1       -0.0567
      4 C          -2.3519    2.0690    1.9166 C.ar    1  UNL1       -0.0336
      5 C          -2.6242    1.3747    0.7483 C.ar    1  UNL1        0.0982
      6 N          -3.6066    0.3490    0.6903 N.ar    1  UNL1       -0.1496
      7 N          -3.4257   -0.8858    1.1368 N.ar    1  UNL1       -0.1556
      8 C          -4.5171   -1.6252    0.9500 C.ar    1  UNL1        0.0697
      9 C          -5.4493   -0.8108    0.3477 C.ar    1  UNL1        0.0697
     10 N          -4.8383    0.3895    0.2116 N.ar    1  UNL1       -0.1556
     11 C          -1.9075    1.6959   -0.4086 C.ar    1  UNL1        0.0642
     12 C          -2.2376    0.9416   -1.6079 C.2     1  UNL1        0.2491
     13 O          -3.1156    1.3115   -2.4352 O.2     1  UNL1       -0.2699
     14 N          -1.5465   -0.2640   -1.8629 N.am    1  UNL1       -0.2895
     15 C          -1.8159   -1.0941   -3.0441 C.3     1  UNL1        0.0414
     16 C          -2.2320   -2.4869   -2.5883 C.3     1  UNL1        0.0717
     17 C          -1.5653   -3.5824   -3.3489 C.3     1  UNL1       -0.0372
     18 O          -1.9183   -2.6526   -1.2238 O.3     1  UNL1       -0.3734
     19 C          -0.5874   -2.3085   -1.0835 C.3     1  UNL1        0.0669
     20 C          -0.5266   -0.7767   -0.9747 C.3     1  UNL1        0.0537
     21 C           0.8264   -0.3278   -1.4509 C.3     1  UNL1       -0.0068
     22 C           1.9451   -0.7978   -0.5965 C.ar    1  UNL1       -0.0449
     23 C           2.5743   -1.9829   -0.8825 C.ar    1  UNL1       -0.0585
     24 C           3.6080   -2.4005   -0.0715 C.ar    1  UNL1       -0.0608
     25 C           4.0038   -1.6464    1.0044 C.ar    1  UNL1       -0.0510
     26 C           3.3891   -0.4546    1.3120 C.ar    1  UNL1        0.0194
     27 C           3.8048    0.3521    2.4542 C.ar    1  UNL1        0.1597
     28 N           4.7980   -0.0377    3.2429 N.ar    1  UNL1       -0.2357
     29 C           5.2048    0.6998    4.3170 C.ar    1  UNL1        0.0314
     30 C           4.5744    1.8876    4.6036 C.ar    1  UNL1       -0.0254
     31 C           3.5420    2.2818    3.7745 C.ar    1  UNL1        0.0314
     32 N           3.1717    1.5088    2.7116 N.ar    1  UNL1       -0.2357
     33 C           2.3593   -0.0545    0.4908 C.ar    1  UNL1       -0.0478
     34 C          -0.9449    2.6844   -0.3977 C.ar    1  UNL1       -0.0446
     35 H           0.0368    5.1647    1.5795 H       1  UNL1        0.0278
     36 H           1.3691    4.0437    0.9805 H       1  UNL1        0.0278
     37 H           0.2928    4.9784   -0.1740 H       1  UNL1        0.0278
     38 H          -1.1609    3.6025    2.8024 H       1  UNL1        0.0621
     39 H          -2.8968    1.8349    2.8251 H       1  UNL1        0.0640
     40 H          -4.6781   -2.6594    1.2056 H       1  UNL1        0.0864
     41 H          -6.4353   -1.1219    0.0696 H       1  UNL1        0.0864
     42 H          -0.8439   -1.2116   -3.5628 H       1  UNL1        0.0490
     43 H          -2.5519   -0.6570   -3.7173 H       1  UNL1        0.0490
     44 H          -3.3345   -2.5831   -2.6615 H       1  UNL1        0.0609
     45 H          -2.2106   -4.0341   -4.1311 H       1  UNL1        0.0255
     46 H          -0.6261   -3.2846   -3.8582 H       1  UNL1        0.0255
     47 H          -1.3081   -4.4105   -2.6582 H       1  UNL1        0.0255
     48 H          -0.1616   -2.7566   -0.1818 H       1  UNL1        0.0578
     49 H          -0.0731   -2.5993   -2.0222 H       1  UNL1        0.0578
     50 H          -0.7218   -0.5448    0.0751 H       1  UNL1        0.0526
     51 H           1.0004   -0.7604   -2.4712 H       1  UNL1        0.0332
     52 H           0.8508    0.7610   -1.5518 H       1  UNL1        0.0332
     53 H           2.2796   -2.6020   -1.7379 H       1  UNL1        0.0620
     54 H           4.1272   -3.3436   -0.2781 H       1  UNL1        0.0618
     55 H           4.8241   -1.9546    1.6676 H       1  UNL1        0.0625
     56 H           6.0034    0.3757    4.9424 H       1  UNL1        0.0831
     57 H           4.8624    2.5127    5.4502 H       1  UNL1        0.0648
     58 H           3.0283    3.2156    3.9795 H       1  UNL1        0.0831
     59 H           1.8480    0.8963    0.7128 H       1  UNL1        0.0627
     60 H          -0.4113    2.9037   -1.3154 H       1  UNL1        0.0628
@<TRIPOS>BOND
     1     1     2    1
     2     2     3   ar
     3     3     4   ar
     4     4     5   ar
     5     5     6    1
     6     6     7   ar
     7     7     8   ar
     8     8     9   ar
     9     9    10   ar
    10     5    11   ar
    11    11    12    1
    12    12    13    2
    13    12    14   am
    14    14    15    1
    15    15    16    1
    16    16    17    1
    17    16    18    1
    18    18    19    1
    19    19    20    1
    20    20    21    1
    21    21    22    1
    22    22    23   ar
    23    23    24   ar
    24    24    25   ar
    25    25    26   ar
    26    26    27    1
    27    27    28   ar
    28    28    29   ar
    29    29    30   ar
    30    30    31   ar
    31    31    32   ar
    32    26    33   ar
    33    11    34   ar
    34    34     2   ar
    35    10     6   ar
    36    20    14    1
    37    33    22   ar
    38    32    27   ar
    39     1    35    1
    40     1    36    1
    41     1    37    1
    42     3    38    1
    43     4    39    1
    44     8    40    1
    45     9    41    1
    46    15    42    1
    47    15    43    1
    48    16    44    1
    49    17    45    1
    50    17    46    1
    51    17    47    1
    52    19    48    1
    53    19    49    1
    54    20    50    1
    55    21    51    1
    56    21    52    1
    57    23    53    1
    58    24    54    1
    59    25    55    1
    60    29    56    1
    61    30    57    1
    62    31    58    1
    63    33    59    1
    64    34    60    1
