@<TRIPOS>MOLECULE
*****
 26 28 0 0 0
SMALL
GASTEIGER

@<TRIPOS>ATOM
      1 C           3.4240    1.7882   -0.7195 C.3     1  UNL1       -0.0046
      2 C           2.7936    0.4802   -0.3332 C.ar    1  UNL1        0.1266
      3 N           3.5576   -0.6016   -0.1076 N.ar    1  UNL1       -0.2406
      4 C           2.9935   -1.7729    0.2384 C.ar    1  UNL1        0.0316
      5 C           1.6293   -1.9227    0.3771 C.ar    1  UNL1       -0.0174
      6 C           0.8371   -0.7915    0.1408 C.ar    1  UNL1        0.0765
      7 C          -0.6120   -0.8697    0.2672 C.ar    1  UNL1        0.0255
      8 C          -1.3681   -1.9664    0.6079 C.ar    1  UNL1        0.0120
      9 N          -2.6789   -1.6038    0.6095 N.ar    1  UNL1       -0.3588
     10 C          -2.7997   -0.3058    0.2806 C.ar    1  UNL1        0.0655
     11 C          -3.9016    0.5052    0.1503 C.ar    1  UNL1        0.0514
     12 N          -3.7091    1.7885   -0.1977 N.ar    1  UNL1       -0.2612
     13 C          -2.4499    2.2669   -0.4144 C.ar    1  UNL1        0.0283
     14 C          -1.3303    1.4752   -0.2903 C.ar    1  UNL1       -0.0338
     15 C          -1.4983    0.1566    0.0651 C.ar    1  UNL1        0.0117
     16 N           1.4744    0.3398   -0.2001 N.ar    1  UNL1       -0.2323
     17 H           4.0442    2.1822    0.1274 H       1  UNL1        0.0308
     18 H           4.0955    1.6540   -1.5780 H       1  UNL1        0.0308
     19 H           2.6035    2.5060   -0.8975 H       1  UNL1        0.0308
     20 H           3.6686   -2.6013    0.4045 H       1  UNL1        0.0831
     21 H           1.1786   -2.8496    0.6513 H       1  UNL1        0.0654
     22 H          -0.9482   -2.9401    0.8305 H       1  UNL1        0.0814
     23 H          -3.4677   -2.2503    0.8354 H       1  UNL1        0.1654
     24 H          -4.9204    0.1845    0.3083 H       1  UNL1        0.0851
     25 H          -2.2854    3.3016   -0.6956 H       1  UNL1        0.0830
     26 H          -0.3304    1.8469   -0.4602 H       1  UNL1        0.0639
@<TRIPOS>BOND
     1     1     2    1
     2     2     3   ar
     3     3     4   ar
     4     4     5   ar
     5     5     6   ar
     6     6     7    1
     7     7     8   ar
     8     8     9   ar
     9     9    10   ar
    10    10    11   ar
    11    11    12   ar
    12    12    13   ar
    13    13    14   ar
    14    14    15   ar
    15     6    16   ar
    16    16     2   ar
    17    15     7   ar
    18    15    10   ar
    19     1    17    1
    20     1    18    1
    21     1    19    1
    22     4    20    1
    23     5    21    1
    24     8    22    1
    25     9    23    1
    26    11    24    1
    27    13    25    1
    28    14    26    1
