@<TRIPOS>MOLECULE
*****
 51 55 0 0 0
SMALL
GASTEIGER

@<TRIPOS>ATOM
      1 C          -6.0798   -1.2821    1.9546 C.3     1  UNL1       -0.0427
      2 C          -5.9264    0.1194    1.4085 C.3     1  UNL1        0.0479
      3 C          -7.2507    0.7375    1.0473 C.3     1  UNL1        0.0325
      4 N          -7.7732    0.1104   -0.1394 N.am    1  UNL1       -0.3082
      5 C          -6.8933    0.0927   -1.2717 C.2     1  UNL1        0.2606
      6 O          -7.2933    0.0766   -2.4505 O.2     1  UNL1       -0.2686
      7 C          -5.4573    0.0939   -0.9900 C.ar    1  UNL1        0.1057
      8 C          -4.3428    0.0853   -1.8036 C.ar    1  UNL1       -0.0239
      9 C          -3.1942    0.0966   -1.0406 C.ar    1  UNL1        0.0024
     10 C          -1.8416    0.0952   -1.3175 C.ar    1  UNL1       -0.0313
     11 C          -0.8790    0.1090   -0.3299 C.ar    1  UNL1        0.0344
     12 N           0.5193    0.1073   -0.6360 N.am    1  UNL1       -0.2814
     13 C           1.2628    1.3038   -0.8141 C.2     1  UNL1        0.2512
     14 O           0.6546    2.3940   -0.6950 O.2     1  UNL1       -0.2697
     15 C           2.6779    1.2081   -1.1226 C.ar    1  UNL1        0.0744
     16 C           3.5171    2.2837   -1.3200 C.ar    1  UNL1        0.0615
     17 N           4.7438    1.7954   -1.5823 N.ar    1  UNL1       -0.1786
     18 N           4.7451    0.4752   -1.5657 N.ar    1  UNL1       -0.2664
     19 C           5.8939   -0.4107   -1.8059 C.3     1  UNL1        0.0665
     20 C           6.5210   -0.6416   -0.4813 C.ar    1  UNL1       -0.0261
     21 C           7.5125    0.2555   -0.1009 C.ar    1  UNL1       -0.0568
     22 C           8.1396    0.1089    1.1094 C.ar    1  UNL1       -0.0614
     23 C           7.7676   -0.9366    1.9293 C.ar    1  UNL1       -0.0617
     24 C           6.7790   -1.8234    1.5396 C.ar    1  UNL1       -0.0614
     25 C           6.1399   -1.6866    0.3234 C.ar    1  UNL1       -0.0568
     26 C           3.4832    0.1053   -1.2848 C.ar    1  UNL1        0.0380
     27 C          -1.3220    0.1247    0.9762 C.ar    1  UNL1       -0.0385
     28 C          -2.6728    0.1261    1.2549 C.ar    1  UNL1       -0.0358
     29 C          -3.6349    0.1123    0.2663 C.ar    1  UNL1        0.0500
     30 N          -5.0020    0.1105    0.2908 N.ar    1  UNL1       -0.3319
     31 H          -7.1675   -1.4840    2.0222 H       1  UNL1        0.0250
     32 H          -5.6525   -2.0042    1.2254 H       1  UNL1        0.0250
     33 H          -5.5442   -1.4206    2.9058 H       1  UNL1        0.0250
     34 H          -5.4930    0.7506    2.2298 H       1  UNL1        0.0541
     35 H          -7.9172    0.6756    1.9093 H       1  UNL1        0.0482
     36 H          -7.0657    1.8166    0.8546 H       1  UNL1        0.0482
     37 H          -8.7145   -0.3194   -0.2393 H       1  UNL1        0.1491
     38 H          -4.3795    0.0717   -2.8826 H       1  UNL1        0.0646
     39 H          -1.4982    0.0829   -2.3401 H       1  UNL1        0.0643
     40 H           0.9896   -0.8102   -0.7272 H       1  UNL1        0.1551
     41 H           3.2417    3.3343   -1.2732 H       1  UNL1        0.0855
     42 H           6.5711    0.0865   -2.5147 H       1  UNL1        0.0558
     43 H           5.4719   -1.3589   -2.1880 H       1  UNL1        0.0558
     44 H           7.8177    1.0800   -0.7283 H       1  UNL1        0.0621
     45 H           8.9190    0.8252    1.3933 H       1  UNL1        0.0618
     46 H           8.2718   -1.0377    2.8795 H       1  UNL1        0.0618
     47 H           6.5031   -2.6345    2.1960 H       1  UNL1        0.0618
     48 H           5.3674   -2.3604   -0.0073 H       1  UNL1        0.0621
     49 H           3.1094   -0.9139   -1.1900 H       1  UNL1        0.0834
     50 H          -0.5817    0.1357    1.7662 H       1  UNL1        0.0637
     51 H          -3.0426    0.1385    2.2842 H       1  UNL1        0.0639
@<TRIPOS>BOND
     1     1     2    1
     2     2     3    1
     3     3     4    1
     4     4     5   am
     5     5     6    2
     6     5     7    1
     7     7     8   ar
     8     8     9   ar
     9     9    10   ar
    10    10    11   ar
    11    11    12    1
    12    12    13   am
    13    13    14    2
    14    13    15    1
    15    15    16   ar
    16    16    17   ar
    17    17    18   ar
    18    18    19    1
    19    19    20    1
    20    20    21   ar
    21    21    22   ar
    22    22    23   ar
    23    23    24   ar
    24    24    25   ar
    25    18    26   ar
    26    11    27   ar
    27    27    28   ar
    28    28    29   ar
    29    29    30   ar
    30    30     2    1
    31    30     7   ar
    32    29     9   ar
    33    26    15   ar
    34    25    20   ar
    35     1    31    1
    36     1    32    1
    37     1    33    1
    38     2    34    1
    39     3    35    1
    40     3    36    1
    41     4    37    1
    42     8    38    1
    43    10    39    1
    44    12    40    1
    45    16    41    1
    46    19    42    1
    47    19    43    1
    48    21    44    1
    49    22    45    1
    50    23    46    1
    51    24    47    1
    52    25    48    1
    53    26    49    1
    54    27    50    1
    55    28    51    1
