
     RDKit          3D

 53 56  0  0  0  0  0  0  0  0999 V2000
   -5.4870   -1.8165   -0.8155 C   0  0  0  0  0  0  0  0  0  0  0  0
   -4.0220   -1.7180   -0.7025 C   0  0  0  0  0  0  0  0  0  0  0  0
   -2.8611   -3.0764   -1.0306 S   0  0  0  0  0  0  0  0  0  0  0  0
   -1.4303   -2.1516   -0.6786 C   0  0  0  0  0  0  0  0  0  0  0  0
   -1.8773   -0.8641   -0.3193 C   0  0  0  0  0  0  0  0  0  0  0  0
   -3.2000   -0.6757   -0.3503 C   0  0  0  0  0  0  0  0  0  0  0  0
   -3.8521    0.7048   -0.1816 C   0  0  0  0  0  0  0  0  0  0  0  0
   -0.9271    0.1781    0.1549 C   0  0  0  0  0  0  0  0  0  0  0  0
   -1.2819    1.0208    1.2792 C   0  0  0  0  0  0  0  0  0  0  0  0
   -2.2929    0.7834    2.1232 C   0  0  0  0  0  0  0  0  0  0  0  0
   -2.6168    1.6540    3.1247 C   0  0  0  0  0  0  0  0  0  0  0  0
   -1.9125    2.8283    3.3198 C   0  0  0  0  0  0  0  0  0  0  0  0
   -2.2772    3.9741    4.5751 Cl  0  0  0  0  0  0  0  0  0  0  0  0
   -0.8599    3.0719    2.4422 C   0  0  0  0  0  0  0  0  0  0  0  0
   -0.5460    2.2008    1.4486 C   0  0  0  0  0  0  0  0  0  0  0  0
    0.2668    0.3726   -0.3723 N   0  0  0  0  0  0  0  0  0  0  0  0
    0.9349   -0.3237   -1.4582 C   0  0  1  0  0  0  0  0  0  0  0  0
    2.3414    0.1221   -1.4926 C   0  0  0  0  0  0  0  0  0  0  0  0
    3.1858   -0.3014   -2.3222 O   0  0  0  0  0  0  0  0  0  0  0  0
    2.7745    1.0543   -0.5727 O   0  0  0  0  0  0  0  0  0  0  0  0
    4.0864    1.5484   -0.5125 C   0  0  0  0  0  0  0  0  0  0  0  0
    4.1222    2.5503    0.6445 C   0  0  0  0  0  0  0  0  0  0  0  0
    5.0823    0.4581   -0.1403 C   0  0  0  0  0  0  0  0  0  0  0  0
    4.5120    2.2898   -1.7424 C   0  0  0  0  0  0  0  0  0  0  0  0
    0.9500   -1.7925   -1.2091 C   0  0  0  0  0  0  0  0  0  0  0  0
    1.9887   -2.5892   -1.2977 N   0  0  0  0  0  0  0  0  0  0  0  0
    1.5947   -3.8619   -1.0129 N   0  0  0  0  0  0  0  0  0  0  0  0
    0.2667   -3.8646   -0.7368 C   0  0  0  0  0  0  0  0  0  0  0  0
   -0.6378   -5.0004   -0.3850 C   0  0  0  0  0  0  0  0  0  0  0  0
   -0.1002   -2.5915   -0.8627 N   0  0  0  0  0  0  0  0  0  0  0  0
   -5.8239   -2.8550   -0.5433 H   0  0  0  0  0  0  0  0  0  0  0  0
   -5.8341   -1.5975   -1.8622 H   0  0  0  0  0  0  0  0  0  0  0  0
   -5.9146   -1.0563   -0.1666 H   0  0  0  0  0  0  0  0  0  0  0  0
   -4.4758    0.8184   -1.1390 H   0  0  0  0  0  0  0  0  0  0  0  0
   -3.1356    1.5143   -0.2959 H   0  0  0  0  0  0  0  0  0  0  0  0
   -4.5890    0.7247    0.5991 H   0  0  0  0  0  0  0  0  0  0  0  0
   -2.8951   -0.1395    2.1089 H   0  0  0  0  0  0  0  0  0  0  0  0
   -3.4466    1.4695    3.8224 H   0  0  0  0  0  0  0  0  0  0  0  0
   -0.2548    3.9803    2.5335 H   0  0  0  0  0  0  0  0  0  0  0  0
    0.2910    2.4047    0.7588 H   0  0  0  0  0  0  0  0  0  0  0  0
    0.4357   -0.1557   -2.4348 H   0  0  0  0  0  0  0  0  0  0  0  0
    3.5516    3.4375    0.3242 H   0  0  0  0  0  0  0  0  0  0  0  0
    3.5296    2.0668    1.4641 H   0  0  0  0  0  0  0  0  0  0  0  0
    5.1569    2.7802    0.9567 H   0  0  0  0  0  0  0  0  0  0  0  0
    4.7581    0.0208    0.8222 H   0  0  0  0  0  0  0  0  0  0  0  0
    6.0485    0.9944    0.0710 H   0  0  0  0  0  0  0  0  0  0  0  0
    5.2204   -0.2784   -0.9341 H   0  0  0  0  0  0  0  0  0  0  0  0
    5.6102    2.4923   -1.6322 H   0  0  0  0  0  0  0  0  0  0  0  0
    4.3541    1.7441   -2.6769 H   0  0  0  0  0  0  0  0  0  0  0  0
    4.0173    3.2873   -1.7177 H   0  0  0  0  0  0  0  0  0  0  0  0
   -1.4012   -4.6423    0.3391 H   0  0  0  0  0  0  0  0  0  0  0  0
   -0.0434   -5.8341    0.0217 H   0  0  0  0  0  0  0  0  0  0  0  0
   -1.0834   -5.3606   -1.3355 H   0  0  0  0  0  0  0  0  0  0  0  0
  1  2  1  0
  2  3  1  0
  3  4  1  0
  4  5  2  0
  5  6  1  0
  6  7  1  0
  5  8  1  0
  8  9  1  0
  9 10  2  0
 10 11  1  0
 11 12  2  0
 12 13  1  0
 12 14  1  0
 14 15  2  0
  8 16  2  0
 16 17  1  0
 17 18  1  0
 18 19  2  0
 18 20  1  0
 20 21  1  0
 21 22  1  0
 21 23  1  0
 21 24  1  0
 17 25  1  0
 25 26  2  0
 26 27  1  0
 27 28  2  0
 28 29  1  0
 28 30  1  0
  6  2  2  0
 15  9  1  0
 30 25  1  0
 30  4  1  0
  1 31  1  0
  1 32  1  0
  1 33  1  0
  7 34  1  0
  7 35  1  0
  7 36  1  0
 10 37  1  0
 11 38  1  0
 14 39  1  0
 15 40  1  0
 17 41  1  6
 22 42  1  0
 22 43  1  0
 22 44  1  0
 23 45  1  0
 23 46  1  0
 23 47  1  0
 24 48  1  0
 24 49  1  0
 24 50  1  0
 29 51  1  0
 29 52  1  0
 29 53  1  0
M  END
$$$$
