@<TRIPOS>MOLECULE
*****
 53 56 0 0 0
SMALL
GASTEIGER

@<TRIPOS>ATOM
      1 C          -5.4870   -1.8165   -0.8155 C.3     1  UNL1       -0.0331
      2 C          -4.0220   -1.7180   -0.7025 C.ar    1  UNL1       -0.0077
      3 S          -2.8611   -3.0764   -1.0306 S.2     1  UNL1       -0.0750
      4 C          -1.4303   -2.1516   -0.6786 C.ar    1  UNL1        0.0969
      5 C          -1.8773   -0.8641   -0.3193 C.ar    1  UNL1        0.0349
      6 C          -3.2000   -0.6757   -0.3503 C.ar    1  UNL1       -0.0293
      7 C          -3.8521    0.7048   -0.1816 C.3     1  UNL1       -0.0383
      8 C          -0.9271    0.1781    0.1549 C.2     1  UNL1        0.0769
      9 C          -1.2819    1.0208    1.2792 C.ar    1  UNL1        0.0007
     10 C          -2.2929    0.7834    2.1232 C.ar    1  UNL1       -0.0512
     11 C          -2.6168    1.6540    3.1247 C.ar    1  UNL1       -0.0428
     12 C          -1.9125    2.8283    3.3198 C.ar    1  UNL1        0.0410
     13 CL         -2.2772    3.9741    4.5751 Cl      1  UNL1       -0.0835
     14 C          -0.8599    3.0719    2.4422 C.ar    1  UNL1       -0.0428
     15 C          -0.5460    2.2008    1.4486 C.ar    1  UNL1       -0.0512
     16 N           0.2668    0.3726   -0.3723 N.2     1  UNL1       -0.2601
     17 C           0.9349   -0.3237   -1.4582 C.3     1  UNL1        0.2070
     18 C           2.3414    0.1221   -1.4926 C.2     1  UNL1        0.3401
     19 O           3.1858   -0.3014   -2.3222 O.2     1  UNL1       -0.2479
     20 O           2.7745    1.0543   -0.5727 O.3     1  UNL1       -0.4571
     21 C           4.0864    1.5484   -0.5125 C.3     1  UNL1        0.1053
     22 C           4.1222    2.5503    0.6445 C.3     1  UNL1       -0.0254
     23 C           5.0823    0.4581   -0.1403 C.3     1  UNL1       -0.0254
     24 C           4.5120    2.2898   -1.7424 C.3     1  UNL1       -0.0254
     25 C           0.9500   -1.7925   -1.2091 C.ar    1  UNL1        0.1741
     26 N           1.9887   -2.5892   -1.2977 N.ar    1  UNL1       -0.1312
     27 N           1.5947   -3.8619   -1.0129 N.ar    1  UNL1       -0.1342
     28 C           0.2667   -3.8646   -0.7368 C.ar    1  UNL1        0.1353
     29 C          -0.6378   -5.0004   -0.3850 C.3     1  UNL1       -0.0041
     30 N          -0.1002   -2.5915   -0.8627 N.ar    1  UNL1       -0.2742
     31 H          -5.8239   -2.8550   -0.5433 H       1  UNL1        0.0283
     32 H          -5.8341   -1.5975   -1.8622 H       1  UNL1        0.0283
     33 H          -5.9146   -1.0563   -0.1666 H       1  UNL1        0.0283
     34 H          -4.4758    0.8184   -1.1390 H       1  UNL1        0.0278
     35 H          -3.1356    1.5143   -0.2959 H       1  UNL1        0.0278
     36 H          -4.5890    0.7247    0.5991 H       1  UNL1        0.0278
     37 H          -2.8951   -0.1395    2.1089 H       1  UNL1        0.0625
     38 H          -3.4466    1.4695    3.8224 H       1  UNL1        0.0632
     39 H          -0.2548    3.9803    2.5335 H       1  UNL1        0.0632
     40 H           0.2910    2.4047    0.7588 H       1  UNL1        0.0625
     41 H           0.4357   -0.1557   -2.4348 H       1  UNL1        0.0744
     42 H           3.5516    3.4375    0.3242 H       1  UNL1        0.0268
     43 H           3.5296    2.0668    1.4641 H       1  UNL1        0.0268
     44 H           5.1569    2.7802    0.9567 H       1  UNL1        0.0268
     45 H           4.7581    0.0208    0.8222 H       1  UNL1        0.0268
     46 H           6.0485    0.9944    0.0710 H       1  UNL1        0.0268
     47 H           5.2204   -0.2784   -0.9341 H       1  UNL1        0.0268
     48 H           5.6102    2.4923   -1.6322 H       1  UNL1        0.0268
     49 H           4.3541    1.7441   -2.6769 H       1  UNL1        0.0268
     50 H           4.0173    3.2873   -1.7177 H       1  UNL1        0.0268
     51 H          -1.4012   -4.6423    0.3391 H       1  UNL1        0.0308
     52 H          -0.0434   -5.8341    0.0217 H       1  UNL1        0.0308
     53 H          -1.0834   -5.3606   -1.3355 H       1  UNL1        0.0308
@<TRIPOS>BOND
     1     1     2    1
     2     2     3   ar
     3     3     4   ar
     4     4     5   ar
     5     5     6   ar
     6     6     7    1
     7     5     8    1
     8     8     9    1
     9     9    10   ar
    10    10    11   ar
    11    11    12   ar
    12    12    13    1
    13    12    14   ar
    14    14    15   ar
    15     8    16    2
    16    16    17    1
    17    17    18    1
    18    18    19    2
    19    18    20    1
    20    20    21    1
    21    21    22    1
    22    21    23    1
    23    21    24    1
    24    17    25    1
    25    25    26   ar
    26    26    27   ar
    27    27    28   ar
    28    28    29    1
    29    28    30   ar
    30     6     2   ar
    31    15     9   ar
    32    30    25   ar
    33    30     4    1
    34     1    31    1
    35     1    32    1
    36     1    33    1
    37     7    34    1
    38     7    35    1
    39     7    36    1
    40    10    37    1
    41    11    38    1
    42    14    39    1
    43    15    40    1
    44    17    41    1
    45    22    42    1
    46    22    43    1
    47    22    44    1
    48    23    45    1
    49    23    46    1
    50    23    47    1
    51    24    48    1
    52    24    49    1
    53    24    50    1
    54    29    51    1
    55    29    52    1
    56    29    53    1
