
     RDKit          3D

 22 22  0  0  0  0  0  0  0  0999 V2000
    2.4775   -1.1309   -2.1593 O   0  0  0  0  0  0  0  0  0  0  0  0
    2.9289   -0.5971   -1.1074 C   0  0  0  0  0  0  0  0  0  0  0  0
    2.1224   -0.0381   -0.0564 N   0  0  0  0  0  0  0  0  0  0  0  0
    0.7035   -0.0736   -0.1811 C   0  0  0  0  0  0  0  0  0  0  0  0
    0.0548   -0.9342    0.8756 C   0  0  0  0  0  0  0  0  0  0  0  0
   -1.4129   -0.9297    0.8559 C   0  0  0  0  0  0  0  0  0  0  0  0
   -2.0872    0.3238    0.4271 C   0  0  0  0  0  0  0  0  0  0  0  0
   -1.3650    1.0937   -0.6410 C   0  0  0  0  0  0  0  0  0  0  0  0
    0.0774    1.3025   -0.2824 C   0  0  0  0  0  0  0  0  0  0  0  0
    4.0254   -0.5792   -1.0295 H   0  0  0  0  0  0  0  0  0  0  0  0
    2.6234    0.3753    0.7641 H   0  0  0  0  0  0  0  0  0  0  0  0
    0.4795   -0.5741   -1.1589 H   0  0  0  0  0  0  0  0  0  0  0  0
    0.4231   -1.9795    0.6670 H   0  0  0  0  0  0  0  0  0  0  0  0
    0.4319   -0.7265    1.9016 H   0  0  0  0  0  0  0  0  0  0  0  0
   -1.7677   -1.7585    0.1832 H   0  0  0  0  0  0  0  0  0  0  0  0
   -1.8212   -1.1801    1.8693 H   0  0  0  0  0  0  0  0  0  0  0  0
   -3.0962    0.0665    0.0230 H   0  0  0  0  0  0  0  0  0  0  0  0
   -2.2830    1.0153    1.2839 H   0  0  0  0  0  0  0  0  0  0  0  0
   -1.4311    0.6098   -1.6139 H   0  0  0  0  0  0  0  0  0  0  0  0
   -1.8852    2.0719   -0.7288 H   0  0  0  0  0  0  0  0  0  0  0  0
    0.2323    1.8475    0.6578 H   0  0  0  0  0  0  0  0  0  0  0  0
    0.5697    1.7951   -1.1542 H   0  0  0  0  0  0  0  0  0  0  0  0
  1  2  2  0
  2  3  1  0
  3  4  1  0
  4  5  1  0
  5  6  1  0
  6  7  1  0
  7  8  1  0
  8  9  1  0
  9  4  1  0
  2 10  1  0
  3 11  1  0
  4 12  1  0
  5 13  1  0
  5 14  1  0
  6 15  1  0
  6 16  1  0
  7 17  1  0
  7 18  1  0
  8 19  1  0
  8 20  1  0
  9 21  1  0
  9 22  1  0
M  END
$$$$
