@<TRIPOS>MOLECULE
*****
 22 22 0 0 0
SMALL
GASTEIGER

@<TRIPOS>ATOM
      1 O           2.4775   -1.1309   -2.1593 O.2     1  UNL1       -0.2795
      2 C           2.9289   -0.5971   -1.1074 C.2     1  UNL1        0.2002
      3 N           2.1224   -0.0381   -0.0564 N.am    1  UNL1       -0.3150
      4 C           0.7035   -0.0736   -0.1811 C.3     1  UNL1        0.0229
      5 C           0.0548   -0.9342    0.8756 C.3     1  UNL1       -0.0345
      6 C          -1.4129   -0.9297    0.8559 C.3     1  UNL1       -0.0514
      7 C          -2.0872    0.3238    0.4271 C.3     1  UNL1       -0.0529
      8 C          -1.3650    1.0937   -0.6410 C.3     1  UNL1       -0.0514
      9 C           0.0774    1.3025   -0.2824 C.3     1  UNL1       -0.0345
     10 H           4.0254   -0.5792   -1.0295 H       1  UNL1        0.1251
     11 H           2.6234    0.3753    0.7641 H       1  UNL1        0.1487
     12 H           0.4795   -0.5741   -1.1589 H       1  UNL1        0.0498
     13 H           0.4231   -1.9795    0.6670 H       1  UNL1        0.0283
     14 H           0.4319   -0.7265    1.9016 H       1  UNL1        0.0283
     15 H          -1.7677   -1.7585    0.1832 H       1  UNL1        0.0266
     16 H          -1.8212   -1.1801    1.8693 H       1  UNL1        0.0266
     17 H          -3.0962    0.0665    0.0230 H       1  UNL1        0.0265
     18 H          -2.2830    1.0153    1.2839 H       1  UNL1        0.0265
     19 H          -1.4311    0.6098   -1.6139 H       1  UNL1        0.0266
     20 H          -1.8852    2.0719   -0.7288 H       1  UNL1        0.0266
     21 H           0.2323    1.8475    0.6578 H       1  UNL1        0.0283
     22 H           0.5697    1.7951   -1.1542 H       1  UNL1        0.0283
@<TRIPOS>BOND
     1     1     2    2
     2     2     3   am
     3     3     4    1
     4     4     5    1
     5     5     6    1
     6     6     7    1
     7     7     8    1
     8     8     9    1
     9     9     4    1
    10     2    10    1
    11     3    11    1
    12     4    12    1
    13     5    13    1
    14     5    14    1
    15     6    15    1
    16     6    16    1
    17     7    17    1
    18     7    18    1
    19     8    19    1
    20     8    20    1
    21     9    21    1
    22     9    22    1
