@<TRIPOS>MOLECULE
*****
 58 59 0 0 0
SMALL
GASTEIGER

@<TRIPOS>ATOM
      1 C          -3.9946   -0.0327   -0.4701 C.3     1  ALA1       -0.0201
      2 C          -3.5412    1.4090   -0.4958 C.3     1  ALA1       -0.0194
      3 CA         -2.0506    1.2663   -0.7132 C.3     1  ALA1        0.1234
      4 N          -1.6996   -0.0965   -0.3676 N.am    1  ALA1       -0.2834
      5 C          -0.4977   -0.8424   -0.5848 C.2     1  ALA1        0.2333
      6 O          -0.4295   -2.0436   -0.1700 O.2     1  ALA1       -0.2739
      7 CA          0.6730   -0.2623   -1.2775 C.3     1  ALA1        0.0827
      8 CB          0.2226    0.0634   -2.7075 C.3     1  ALA1       -0.0411
      9 N           1.8126   -1.1219   -1.3025 N.3     1  ALA1       -0.2937
     10 C           2.4243   -1.3971   -0.0263 C.3     0  UNK0        0.1064
     11 C           3.6081   -2.3252   -0.2317 C.3     0  UNK0       -0.0274
     12 C           4.6632   -1.7476   -1.1302 C.3     0  UNK0       -0.0540
     13 C           4.1982   -1.4184   -2.5129 C.3     0  UNK0       -0.0652
     14 C           2.7783   -0.2021    0.7388 C.2     0  UNK0        0.3243
     15 O           3.3037   -0.2097    1.8598 O.2     0  UNK0       -0.2491
     16 O           2.7136    1.1703    0.6114 O.3     0  UNK0       -0.4638
     17 C           3.1686    2.0705    1.5884 C.3     0  UNK0        0.0897
     18 C           4.6296    1.9372    1.9037 C.3     0  UNK0       -0.0306
     19 C          -2.8739   -0.6737    0.3027 C.3     1  ALA1        0.0298
     20 C          -2.8591   -0.3059    1.7452 C.3     1  ALA1       -0.0340
     21 C          -4.2266   -0.4057    2.3902 C.3     1  ALA1       -0.0514
     22 C          -5.2268   -1.0560    1.4551 C.3     1  ALA1       -0.0527
     23 C          -5.3291   -0.1901    0.2208 C.3     1  ALA1       -0.0485
     24 C          -1.2880    2.2454    0.1024 C.2     1  ALA1        0.3255
     25 O          -0.8917    3.4956    0.5325 O.3     1  ALA1       -0.4793
     26 OXT        -0.4237    2.2233    1.0172 O.2     1  ALA1       -0.2489
     27 H          -3.9735   -0.4166   -1.4946 H       1  ALA1        0.0319
     28 H          -3.7531    1.9149    0.4884 H       1  ALA1        0.0292
     29 H          -4.0431    1.9766   -1.3074 H       1  ALA1        0.0292
     30 HA         -1.8677    1.4721   -1.7724 H       1  ALA1        0.0617
     31 HA          0.9387    0.7003   -0.7982 H       1  ALA1        0.0554
     32 HB1        -0.7852   -0.3345   -2.8882 H       1  ALA1        0.0249
     33 HB2         0.2265    1.1563   -2.8621 H       1  ALA1        0.0249
     34 HB3         0.9216   -0.4087   -3.4345 H       1  ALA1        0.0249
     35 H           1.5338   -2.0151   -1.7523 H       1  ALA1        0.1234
     36 H           1.7088   -1.9947    0.5723 H       0  UNK0        0.0576
     37 H           4.0819   -2.6221    0.7063 H       0  UNK0        0.0285
     38 H           3.2107   -3.2376   -0.7220 H       0  UNK0        0.0285
     39 H           5.4269   -2.5507   -1.2477 H       0  UNK0        0.0263
     40 H           5.2220   -0.9129   -0.6509 H       0  UNK0        0.0263
     41 H           3.6305   -2.2657   -2.9088 H       0  UNK0        0.0230
     42 H           5.1302   -1.3397   -3.1448 H       0  UNK0        0.0230
     43 H           3.6787   -0.4567   -2.6198 H       0  UNK0        0.0230
     44 H           2.9533    3.0860    1.1969 H       0  UNK0        0.0694
     45 H           2.5189    1.9173    2.4956 H       0  UNK0        0.0694
     46 H           4.7169    1.8746    3.0029 H       0  UNK0        0.0262
     47 H           5.1452    1.1358    1.3515 H       0  UNK0        0.0262
     48 H           5.1580    2.8919    1.6219 H       0  UNK0        0.0262
     49 H          -2.9193   -1.7614    0.1790 H       1  ALA1        0.0503
     50 H          -2.2070   -1.0447    2.2624 H       1  ALA1        0.0283
     51 H          -2.4718    0.6849    1.9824 H       1  ALA1        0.0283
     52 H          -4.2098   -0.9892    3.3254 H       1  ALA1        0.0266
     53 H          -4.6329    0.6019    2.6070 H       1  ALA1        0.0266
     54 H          -4.9745   -2.0945    1.1987 H       1  ALA1        0.0265
     55 H          -6.2166   -1.0137    1.9592 H       1  ALA1        0.0265
     56 H          -5.7554    0.7937    0.4888 H       1  ALA1        0.0269
     57 H          -6.0240   -0.6791   -0.4887 H       1  ALA1        0.0269
     58 H          -1.2322    4.3815    0.1758 H       1  ALA1        0.2951
@<TRIPOS>BOND
     1     1     2    1
     2     2     3    1
     3     3     4    1
     4     4     5   am
     5     5     6    2
     6     5     7    1
     7     7     8    1
     8     7     9    1
     9     9    10    1
    10    10    11    1
    11    11    12    1
    12    12    13    1
    13    10    14    1
    14    14    15    2
    15    14    16    1
    16    16    17    1
    17    17    18    1
    18     4    19    1
    19    19    20    1
    20    20    21    1
    21    21    22    1
    22    22    23    1
    23     3    24    1
    24    24    25    1
    25    24    26    2
    26    19     1    1
    27    23     1    1
    28     1    27    1
    29     2    28    1
    30     2    29    1
    31     3    30    1
    32     7    31    1
    33     8    32    1
    34     8    33    1
    35     8    34    1
    36     9    35    1
    37    10    36    1
    38    11    37    1
    39    11    38    1
    40    12    39    1
    41    12    40    1
    42    13    41    1
    43    13    42    1
    44    13    43    1
    45    17    44    1
    46    17    45    1
    47    18    46    1
    48    18    47    1
    49    18    48    1
    50    19    49    1
    51    20    50    1
    52    20    51    1
    53    21    52    1
    54    21    53    1
    55    22    54    1
    56    22    55    1
    57    23    56    1
    58    23    57    1
    59    25    58    1
