
     RDKit          3D

 58 59  0  0  0  0  0  0  0  0999 V2000
   -3.9946   -0.0327   -0.4701 C   0  0  1  0  0  0  0  0  0  0  0  0
   -3.5412    1.4090   -0.4958 C   0  0  0  0  0  0  0  0  0  0  0  0
   -2.0506    1.2663   -0.7132 C   0  0  2  0  0  0  0  0  0  0  0  0
   -1.6996   -0.0965   -0.3676 N   0  0  0  0  0  0  0  0  0  0  0  0
   -0.4977   -0.8424   -0.5848 C   0  0  0  0  0  0  0  0  0  0  0  0
   -0.4295   -2.0436   -0.1700 O   0  0  0  0  0  0  0  0  0  0  0  0
    0.6730   -0.2623   -1.2775 C   0  0  2  0  0  0  0  0  0  0  0  0
    0.2226    0.0634   -2.7075 C   0  0  0  0  0  0  0  0  0  0  0  0
    1.8126   -1.1219   -1.3025 N   0  0  0  0  0  0  0  0  0  0  0  0
    2.4243   -1.3971   -0.0263 C   0  0  1  0  0  0  0  0  0  0  0  0
    3.6081   -2.3252   -0.2317 C   0  0  0  0  0  0  0  0  0  0  0  0
    4.6632   -1.7476   -1.1302 C   0  0  0  0  0  0  0  0  0  0  0  0
    4.1982   -1.4184   -2.5129 C   0  0  0  0  0  0  0  0  0  0  0  0
    2.7783   -0.2021    0.7388 C   0  0  0  0  0  0  0  0  0  0  0  0
    3.3037   -0.2097    1.8598 O   0  0  0  0  0  0  0  0  0  0  0  0
    2.7136    1.1703    0.6114 O   0  0  0  0  0  0  0  0  0  0  0  0
    3.1686    2.0705    1.5884 C   0  0  0  0  0  0  0  0  0  0  0  0
    4.6296    1.9372    1.9037 C   0  0  0  0  0  0  0  0  0  0  0  0
   -2.8739   -0.6737    0.3027 C   0  0  1  0  0  0  0  0  0  0  0  0
   -2.8591   -0.3059    1.7452 C   0  0  0  0  0  0  0  0  0  0  0  0
   -4.2266   -0.4057    2.3902 C   0  0  0  0  0  0  0  0  0  0  0  0
   -5.2268   -1.0560    1.4551 C   0  0  0  0  0  0  0  0  0  0  0  0
   -5.3291   -0.1901    0.2208 C   0  0  0  0  0  0  0  0  0  0  0  0
   -1.2880    2.2454    0.1024 C   0  0  0  0  0  0  0  0  0  0  0  0
   -0.8917    3.4956    0.5325 O   0  0  0  0  0  0  0  0  0  0  0  0
   -0.4237    2.2233    1.0172 O   0  0  0  0  0  0  0  0  0  0  0  0
   -3.9735   -0.4166   -1.4946 H   0  0  0  0  0  0  0  0  0  0  0  0
   -3.7531    1.9149    0.4884 H   0  0  0  0  0  0  0  0  0  0  0  0
   -4.0431    1.9766   -1.3074 H   0  0  0  0  0  0  0  0  0  0  0  0
   -1.8677    1.4721   -1.7724 H   0  0  0  0  0  0  0  0  0  0  0  0
    0.9387    0.7003   -0.7982 H   0  0  0  0  0  0  0  0  0  0  0  0
   -0.7852   -0.3345   -2.8882 H   0  0  0  0  0  0  0  0  0  0  0  0
    0.2265    1.1563   -2.8621 H   0  0  0  0  0  0  0  0  0  0  0  0
    0.9216   -0.4087   -3.4345 H   0  0  0  0  0  0  0  0  0  0  0  0
    1.5338   -2.0151   -1.7523 H   0  0  0  0  0  0  0  0  0  0  0  0
    1.7088   -1.9947    0.5723 H   0  0  0  0  0  0  0  0  0  0  0  0
    4.0819   -2.6221    0.7063 H   0  0  0  0  0  0  0  0  0  0  0  0
    3.2107   -3.2376   -0.7220 H   0  0  0  0  0  0  0  0  0  0  0  0
    5.4269   -2.5507   -1.2477 H   0  0  0  0  0  0  0  0  0  0  0  0
    5.2220   -0.9129   -0.6509 H   0  0  0  0  0  0  0  0  0  0  0  0
    3.6305   -2.2657   -2.9088 H   0  0  0  0  0  0  0  0  0  0  0  0
    5.1302   -1.3397   -3.1448 H   0  0  0  0  0  0  0  0  0  0  0  0
    3.6787   -0.4567   -2.6198 H   0  0  0  0  0  0  0  0  0  0  0  0
    2.9533    3.0860    1.1969 H   0  0  0  0  0  0  0  0  0  0  0  0
    2.5189    1.9173    2.4956 H   0  0  0  0  0  0  0  0  0  0  0  0
    4.7169    1.8746    3.0029 H   0  0  0  0  0  0  0  0  0  0  0  0
    5.1452    1.1358    1.3515 H   0  0  0  0  0  0  0  0  0  0  0  0
    5.1580    2.8919    1.6219 H   0  0  0  0  0  0  0  0  0  0  0  0
   -2.9193   -1.7614    0.1790 H   0  0  0  0  0  0  0  0  0  0  0  0
   -2.2070   -1.0447    2.2624 H   0  0  0  0  0  0  0  0  0  0  0  0
   -2.4718    0.6849    1.9824 H   0  0  0  0  0  0  0  0  0  0  0  0
   -4.2098   -0.9892    3.3254 H   0  0  0  0  0  0  0  0  0  0  0  0
   -4.6329    0.6019    2.6070 H   0  0  0  0  0  0  0  0  0  0  0  0
   -4.9745   -2.0945    1.1987 H   0  0  0  0  0  0  0  0  0  0  0  0
   -6.2166   -1.0137    1.9592 H   0  0  0  0  0  0  0  0  0  0  0  0
   -5.7554    0.7937    0.4888 H   0  0  0  0  0  0  0  0  0  0  0  0
   -6.0240   -0.6791   -0.4887 H   0  0  0  0  0  0  0  0  0  0  0  0
   -1.2322    4.3815    0.1758 H   0  0  0  0  0  0  0  0  0  0  0  0
  1  2  1  0
  2  3  1  0
  3  4  1  0
  4  5  1  0
  5  6  2  0
  5  7  1  0
  7  8  1  0
  7  9  1  0
  9 10  1  0
 10 11  1  0
 11 12  1  0
 12 13  1  0
 10 14  1  0
 14 15  2  0
 14 16  1  0
 16 17  1  0
 17 18  1  0
  4 19  1  0
 19 20  1  0
 20 21  1  0
 21 22  1  0
 22 23  1  0
  3 24  1  0
 24 25  1  0
 24 26  2  0
 19  1  1  0
 23  1  1  0
  1 27  1  6
  2 28  1  0
  2 29  1  0
  3 30  1  6
  7 31  1  1
  8 32  1  0
  8 33  1  0
  8 34  1  0
  9 35  1  0
 10 36  1  1
 11 37  1  0
 11 38  1  0
 12 39  1  0
 12 40  1  0
 13 41  1  0
 13 42  1  0
 13 43  1  0
 17 44  1  0
 17 45  1  0
 18 46  1  0
 18 47  1  0
 18 48  1  0
 19 49  1  1
 20 50  1  0
 20 51  1  0
 21 52  1  0
 21 53  1  0
 22 54  1  0
 22 55  1  0
 23 56  1  0
 23 57  1  0
 25 58  1  0
M  END
$$$$
