@<TRIPOS>MOLECULE
*****
 37 40 0 0 0
SMALL
GASTEIGER

@<TRIPOS>ATOM
      1 C          -4.3167    0.6507   -2.4739 C.3     1  UNL1       -0.0041
      2 C          -4.1687   -0.2614   -1.3146 C.ar    1  UNL1        0.1346
      3 N          -5.0587   -1.1775   -0.8886 N.ar    1  UNL1       -0.1340
      4 N          -4.5959   -1.8056    0.1683 N.ar    1  UNL1       -0.1294
      5 C          -3.3755   -1.2805    0.4305 C.ar    1  UNL1        0.1611
      6 C          -2.4557   -1.5707    1.4235 C.ar    1  UNL1       -0.0164
      7 C          -1.2522   -0.9088    1.5167 C.ar    1  UNL1       -0.0491
      8 C          -0.9835    0.0821    0.5612 C.ar    1  UNL1       -0.0005
      9 C           0.2800    0.8213    0.6792 C.ar    1  UNL1       -0.0039
     10 C           0.1945    2.1770    1.0475 C.ar    1  UNL1       -0.0532
     11 C           1.3259    2.9241    1.2490 C.ar    1  UNL1       -0.0593
     12 C           2.5732    2.3770    1.0992 C.ar    1  UNL1       -0.0346
     13 C           2.6661    1.0300    0.7314 C.ar    1  UNL1        0.1163
     14 S           4.2587    0.3550    0.5313 S.O2    1  UNL1        0.0566
     15 N           4.5764   -0.2200   -1.0471 N.3     1  UNL1       -0.2035
     16 O           5.2855    1.4803    0.7694 O.2     1  UNL1       -0.1532
     17 O           4.5760   -0.6680    1.5976 O.2     1  UNL1       -0.1532
     18 C           1.5140    0.2609    0.5227 C.ar    1  UNL1        0.0545
     19 C           1.6790   -1.1217    0.0579 C.ar    1  UNL1        0.1818
     20 N           2.7965   -1.8277    0.2519 N.ar    1  UNL1       -0.1083
     21 N           2.6195   -3.0319   -0.2107 N.ar    1  UNL1       -0.0229
     22 N           1.4058   -3.1352   -0.7073 N.ar    1  UNL1       -0.0464
     23 N           0.8265   -1.9461   -0.5388 N.ar    1  UNL1       -0.2388
     24 C          -1.9152    0.3505   -0.4149 C.ar    1  UNL1        0.0206
     25 N          -3.0980   -0.3215   -0.4815 N.ar    1  UNL1       -0.2860
     26 H          -3.5674    0.3993   -3.2490 H       1  UNL1        0.0308
     27 H          -4.2038    1.6965   -2.1028 H       1  UNL1        0.0308
     28 H          -5.3622    0.5460   -2.8691 H       1  UNL1        0.0308
     29 H          -2.6689   -2.3424    2.1649 H       1  UNL1        0.0655
     30 H          -0.5467   -1.1465    2.2950 H       1  UNL1        0.0625
     31 H          -0.7840    2.6231    1.1694 H       1  UNL1        0.0624
     32 H           1.2647    3.9845    1.5359 H       1  UNL1        0.0618
     33 H           3.4843    2.9406    1.2522 H       1  UNL1        0.0637
     34 H           5.1045   -1.0899   -1.0210 H       1  UNL1        0.1442
     35 H           3.8037   -0.2138   -1.7077 H       1  UNL1        0.1442
     36 H          -0.1391   -1.7325   -0.8639 H       1  UNL1        0.1923
     37 H          -1.7426    1.1026   -1.1638 H       1  UNL1        0.0820
@<TRIPOS>BOND
     1     1     2    1
     2     2     3   ar
     3     3     4   ar
     4     4     5   ar
     5     5     6   ar
     6     6     7   ar
     7     7     8   ar
     8     8     9    1
     9     9    10   ar
    10    10    11   ar
    11    11    12   ar
    12    12    13   ar
    13    13    14    1
    14    14    15    1
    15    14    16    2
    16    14    17    2
    17    13    18   ar
    18    18    19    1
    19    19    20   ar
    20    20    21   ar
    21    21    22   ar
    22    22    23   ar
    23     8    24   ar
    24    24    25   ar
    25    25     2   ar
    26    25     5   ar
    27    18     9   ar
    28    23    19   ar
    29     1    26    1
    30     1    27    1
    31     1    28    1
    32     6    29    1
    33     7    30    1
    34    10    31    1
    35    11    32    1
    36    12    33    1
    37    15    34    1
    38    15    35    1
    39    23    36    1
    40    24    37    1
