
     RDKit          3D

 37 40  0  0  0  0  0  0  0  0999 V2000
   -4.3167    0.6507   -2.4739 C   0  0  0  0  0  0  0  0  0  0  0  0
   -4.1687   -0.2614   -1.3146 C   0  0  0  0  0  0  0  0  0  0  0  0
   -5.0587   -1.1775   -0.8886 N   0  0  0  0  0  0  0  0  0  0  0  0
   -4.5959   -1.8056    0.1683 N   0  0  0  0  0  0  0  0  0  0  0  0
   -3.3755   -1.2805    0.4305 C   0  0  0  0  0  0  0  0  0  0  0  0
   -2.4557   -1.5707    1.4235 C   0  0  0  0  0  0  0  0  0  0  0  0
   -1.2522   -0.9088    1.5167 C   0  0  0  0  0  0  0  0  0  0  0  0
   -0.9835    0.0821    0.5612 C   0  0  0  0  0  0  0  0  0  0  0  0
    0.2800    0.8213    0.6792 C   0  0  0  0  0  0  0  0  0  0  0  0
    0.1945    2.1770    1.0475 C   0  0  0  0  0  0  0  0  0  0  0  0
    1.3259    2.9241    1.2490 C   0  0  0  0  0  0  0  0  0  0  0  0
    2.5732    2.3770    1.0992 C   0  0  0  0  0  0  0  0  0  0  0  0
    2.6661    1.0300    0.7314 C   0  0  0  0  0  0  0  0  0  0  0  0
    4.2587    0.3550    0.5313 S   0  0  0  0  0  6  0  0  0  0  0  0
    4.5764   -0.2200   -1.0471 N   0  0  0  0  0  0  0  0  0  0  0  0
    5.2855    1.4803    0.7694 O   0  0  0  0  0  0  0  0  0  0  0  0
    4.5760   -0.6680    1.5976 O   0  0  0  0  0  0  0  0  0  0  0  0
    1.5140    0.2609    0.5227 C   0  0  0  0  0  0  0  0  0  0  0  0
    1.6790   -1.1217    0.0579 C   0  0  0  0  0  0  0  0  0  0  0  0
    2.7965   -1.8277    0.2519 N   0  0  0  0  0  0  0  0  0  0  0  0
    2.6195   -3.0319   -0.2107 N   0  0  0  0  0  0  0  0  0  0  0  0
    1.4058   -3.1352   -0.7073 N   0  0  0  0  0  0  0  0  0  0  0  0
    0.8265   -1.9461   -0.5388 N   0  0  0  0  0  0  0  0  0  0  0  0
   -1.9152    0.3505   -0.4149 C   0  0  0  0  0  0  0  0  0  0  0  0
   -3.0980   -0.3215   -0.4815 N   0  0  0  0  0  0  0  0  0  0  0  0
   -3.5674    0.3993   -3.2490 H   0  0  0  0  0  0  0  0  0  0  0  0
   -4.2038    1.6965   -2.1028 H   0  0  0  0  0  0  0  0  0  0  0  0
   -5.3622    0.5460   -2.8691 H   0  0  0  0  0  0  0  0  0  0  0  0
   -2.6689   -2.3424    2.1649 H   0  0  0  0  0  0  0  0  0  0  0  0
   -0.5467   -1.1465    2.2950 H   0  0  0  0  0  0  0  0  0  0  0  0
   -0.7840    2.6231    1.1694 H   0  0  0  0  0  0  0  0  0  0  0  0
    1.2647    3.9845    1.5359 H   0  0  0  0  0  0  0  0  0  0  0  0
    3.4843    2.9406    1.2522 H   0  0  0  0  0  0  0  0  0  0  0  0
    5.1045   -1.0899   -1.0210 H   0  0  0  0  0  0  0  0  0  0  0  0
    3.8037   -0.2138   -1.7077 H   0  0  0  0  0  0  0  0  0  0  0  0
   -0.1391   -1.7325   -0.8639 H   0  0  0  0  0  0  0  0  0  0  0  0
   -1.7426    1.1026   -1.1638 H   0  0  0  0  0  0  0  0  0  0  0  0
  1  2  1  0
  2  3  2  0
  3  4  1  0
  4  5  2  0
  5  6  1  0
  6  7  2  0
  7  8  1  0
  8  9  1  0
  9 10  2  0
 10 11  1  0
 11 12  2  0
 12 13  1  0
 13 14  1  0
 14 15  1  0
 14 16  2  0
 14 17  2  0
 13 18  2  0
 18 19  1  0
 19 20  2  0
 20 21  1  0
 21 22  2  0
 22 23  1  0
  8 24  2  0
 24 25  1  0
 25  2  1  0
 25  5  1  0
 18  9  1  0
 23 19  1  0
  1 26  1  0
  1 27  1  0
  1 28  1  0
  6 29  1  0
  7 30  1  0
 10 31  1  0
 11 32  1  0
 12 33  1  0
 15 34  1  0
 15 35  1  0
 23 36  1  0
 24 37  1  0
M  END
$$$$
