@<TRIPOS>MOLECULE
*****
 52 55 0 0 0
SMALL
GASTEIGER

@<TRIPOS>ATOM
      1 C          -2.2421   -2.0507    2.0011 C.3     1  UNL1       -0.0206
      2 C          -1.6648   -0.6835    1.7486 C.ar    1  UNL1        0.0607
      3 C          -2.4245    0.4603    1.5676 C.ar    1  UNL1        0.1580
      4 O          -3.8150    0.4746    1.5826 O.3     1  UNL1       -0.4536
      5 C          -4.5500    0.2801    0.4031 C.ar    1  UNL1        0.1286
      6 C          -3.9114    0.0658   -0.8006 C.ar    1  UNL1       -0.0180
      7 C          -4.6352   -0.1271   -1.9702 C.ar    1  UNL1       -0.0399
      8 C          -6.0064   -0.1025   -1.9178 C.ar    1  UNL1        0.0412
      9 CL         -6.9329   -0.3460   -3.3917 Cl      1  UNL1       -0.0835
     10 C          -6.6381    0.1111   -0.7174 C.ar    1  UNL1       -0.0399
     11 C          -5.9238    0.3012    0.4354 C.ar    1  UNL1       -0.0180
     12 C          -1.5859    1.5327    1.3787 C.ar    1  UNL1        0.0614
     13 C          -1.8180    2.8743    1.1584 C.ar    1  UNL1       -0.0461
     14 C          -0.7542    3.7340    1.0020 C.ar    1  UNL1       -0.0428
     15 C           0.5183    3.1749    1.0789 C.ar    1  UNL1        0.0299
     16 N           0.7341    1.8814    1.2915 N.ar    1  UNL1       -0.2372
     17 C          -0.3147    1.0181    1.4484 C.ar    1  UNL1        0.1448
     18 N          -0.3816   -0.3238    1.6721 N.ar    1  UNL1       -0.3213
     19 C           0.7941   -1.1155    1.8120 C.3     1  UNL1        0.0529
     20 C           1.3960   -1.6305    0.5796 C.ar    1  UNL1        0.0109
     21 C           2.5203   -0.9458    0.0938 C.ar    1  UNL1       -0.0123
     22 C           3.1961   -1.2771   -1.0368 C.ar    1  UNL1        0.1222
     23 O           4.3011   -0.6496   -1.5659 O.3     1  UNL1       -0.4779
     24 C           4.9010    0.4671   -0.9762 C.3     1  UNL1        0.1931
     25 C           6.3604    0.1790   -0.6086 C.3     1  UNL1       -0.0172
     26 C           4.8440    1.6099   -1.9249 C.2     1  UNL1        0.3456
     27 O           4.3138    1.4557   -3.0386 O.2     1  UNL1       -0.2468
     28 O           5.3895    2.8165   -1.5289 O.3     1  UNL1       -0.4781
     29 C           2.7389   -2.3751   -1.7645 C.ar    1  UNL1       -0.0172
     30 C           1.6500   -3.0721   -1.3317 C.ar    1  UNL1       -0.0227
     31 C           0.9767   -2.7013   -0.1589 C.ar    1  UNL1        0.1285
     32 F          -0.0755   -3.4143    0.2347 F       1  UNL1       -0.2051
     33 H          -1.4891   -2.7204    2.4617 H       1  UNL1        0.0293
     34 H          -2.7091   -2.4610    1.0987 H       1  UNL1        0.0293
     35 H          -3.0401   -1.9109    2.7760 H       1  UNL1        0.0293
     36 H          -2.8331    0.0487   -0.8288 H       1  UNL1        0.0655
     37 H          -4.1332   -0.2963   -2.9207 H       1  UNL1        0.0633
     38 H          -7.7297    0.1191   -0.7431 H       1  UNL1        0.0633
     39 H          -6.4195    0.4660    1.3604 H       1  UNL1        0.0655
     40 H          -2.8147    3.2741    1.1044 H       1  UNL1        0.0626
     41 H          -0.8768    4.8010    0.8259 H       1  UNL1        0.0633
     42 H           1.3665    3.8496    0.9558 H       1  UNL1        0.0830
     43 H           0.5606   -2.0181    2.4517 H       1  UNL1        0.0543
     44 H           1.5630   -0.5636    2.4298 H       1  UNL1        0.0543
     45 H           2.8690   -0.0970    0.6622 H       1  UNL1        0.0658
     46 H           4.4389    0.8276   -0.0448 H       1  UNL1        0.0849
     47 H           6.9986    0.4174   -1.4858 H       1  UNL1        0.0271
     48 H           6.4405   -0.8853   -0.2933 H       1  UNL1        0.0271
     49 H           6.6963    0.8244    0.2290 H       1  UNL1        0.0271
     50 H           5.5886    3.5656   -2.1952 H       1  UNL1        0.2952
     51 H           3.2527   -2.6797   -2.6839 H       1  UNL1        0.0655
     52 H           1.3106   -3.9262   -1.9159 H       1  UNL1        0.0647
@<TRIPOS>BOND
     1     1     2    1
     2     2     3   ar
     3     3     4    1
     4     4     5    1
     5     5     6   ar
     6     6     7   ar
     7     7     8   ar
     8     8     9    1
     9     8    10   ar
    10    10    11   ar
    11     3    12   ar
    12    12    13   ar
    13    13    14   ar
    14    14    15   ar
    15    15    16   ar
    16    16    17   ar
    17    17    18   ar
    18    18    19    1
    19    19    20    1
    20    20    21   ar
    21    21    22   ar
    22    22    23    1
    23    23    24    1
    24    24    25    1
    25    24    26    1
    26    26    27    2
    27    26    28    1
    28    22    29   ar
    29    29    30   ar
    30    30    31   ar
    31    31    32    1
    32    18     2   ar
    33    31    20   ar
    34    11     5   ar
    35    17    12   ar
    36     1    33    1
    37     1    34    1
    38     1    35    1
    39     6    36    1
    40     7    37    1
    41    10    38    1
    42    11    39    1
    43    13    40    1
    44    14    41    1
    45    15    42    1
    46    19    43    1
    47    19    44    1
    48    21    45    1
    49    24    46    1
    50    25    47    1
    51    25    48    1
    52    25    49    1
    53    28    50    1
    54    29    51    1
    55    30    52    1
