
     RDKit          3D

 60 62  0  0  0  0  0  0  0  0999 V2000
    8.9236   -0.1709    0.6555 N   0  0  0  0  0  0  0  0  0  0  0  0
    8.7527    0.4922   -0.4420 C   0  0  0  0  0  0  0  0  0  0  0  0
    9.8603    0.8902   -1.2258 N   0  0  0  0  0  0  0  0  0  0  0  0
    7.4443    0.8199   -0.8585 N   0  0  0  0  0  0  0  0  0  0  0  0
    6.3269    0.6883    0.1117 C   0  0  0  0  0  0  0  0  0  0  0  0
    5.0749    1.0960   -0.5847 C   0  0  0  0  0  0  0  0  0  0  0  0
    3.8083    1.1523    0.1333 C   0  0  0  0  0  0  0  0  0  0  0  0
    3.1877   -0.0087    0.7925 C   0  0  1  0  0  0  0  0  0  0  0  0
    3.9676   -0.5792    1.8839 C   0  0  0  0  0  0  0  0  0  0  0  0
    3.4516   -0.5486    3.0316 O   0  0  0  0  0  0  0  0  0  0  0  0
    1.8514    0.4169    1.2684 N   0  0  0  0  0  0  0  0  0  0  0  0
    0.6558   -0.1569    0.7740 C   0  0  0  0  0  0  0  0  0  0  0  0
    0.7513   -1.0717   -0.1115 O   0  0  0  0  0  0  0  0  0  0  0  0
   -0.6861    0.2327    1.2136 C   0  0  2  0  0  0  0  0  0  0  0  0
   -0.9882   -0.0776    2.6592 C   0  0  0  0  0  0  0  0  0  0  0  0
   -2.0568   -1.1771    2.6418 C   0  0  0  0  0  0  0  0  0  0  0  0
   -1.7761   -1.7630    1.2578 C   0  0  0  0  0  0  0  0  0  0  0  0
   -1.7258   -0.5317    0.4900 N   0  0  0  0  0  0  0  0  0  0  0  0
   -2.4465   -0.0922   -0.6435 C   0  0  0  0  0  0  0  0  0  0  0  0
   -2.1420    1.0350   -1.1139 O   0  0  0  0  0  0  0  0  0  0  0  0
   -3.5242   -0.8488   -1.3182 C   0  0  1  0  0  0  0  0  0  0  0  0
   -4.6511   -1.2016   -0.4109 C   0  0  0  0  0  0  0  0  0  0  0  0
   -5.8507   -0.3903   -0.6893 C   0  0  0  0  0  0  0  0  0  0  0  0
   -6.6649    0.1430    0.3139 C   0  0  0  0  0  0  0  0  0  0  0  0
   -7.7742    0.8760   -0.0555 C   0  0  0  0  0  0  0  0  0  0  0  0
   -8.0934    1.0913   -1.3913 C   0  0  0  0  0  0  0  0  0  0  0  0
   -7.2775    0.5571   -2.3959 C   0  0  0  0  0  0  0  0  0  0  0  0
   -6.1818   -0.1667   -2.0012 C   0  0  0  0  0  0  0  0  0  0  0  0
   -5.2069   -0.7837   -2.9757 C   0  0  0  0  0  0  0  0  0  0  0  0
   -3.9269   -0.1834   -2.5504 N   0  0  0  0  0  0  0  0  0  0  0  0
    8.1351   -0.4754    1.2492 H   0  0  0  0  0  0  0  0  0  0  0  0
   10.3992    1.7379   -0.9284 H   0  0  0  0  0  0  0  0  0  0  0  0
   10.1536    0.3751   -2.0779 H   0  0  0  0  0  0  0  0  0  0  0  0
    7.2362    1.1455   -1.8052 H   0  0  0  0  0  0  0  0  0  0  0  0
    6.2882   -0.4210    0.3559 H   0  0  0  0  0  0  0  0  0  0  0  0
    6.5727    1.2191    1.0252 H   0  0  0  0  0  0  0  0  0  0  0  0
    5.0068    0.5229   -1.5633 H   0  0  0  0  0  0  0  0  0  0  0  0
    5.2780    2.1554   -0.9813 H   0  0  0  0  0  0  0  0  0  0  0  0
    2.9983    1.5909   -0.5623 H   0  0  0  0  0  0  0  0  0  0  0  0
    3.9350    1.9610    0.9506 H   0  0  0  0  0  0  0  0  0  0  0  0
    3.0357   -0.8255    0.0376 H   0  0  0  0  0  0  0  0  0  0  0  0
    4.9281   -1.0362    1.8911 H   0  0  0  0  0  0  0  0  0  0  0  0
    1.7799    1.1590    1.9867 H   0  0  0  0  0  0  0  0  0  0  0  0
   -0.8420    1.3061    1.0064 H   0  0  0  0  0  0  0  0  0  0  0  0
   -0.1163   -0.3580    3.2483 H   0  0  0  0  0  0  0  0  0  0  0  0
   -1.4538    0.8139    3.1370 H   0  0  0  0  0  0  0  0  0  0  0  0
   -1.9060   -1.8996    3.4454 H   0  0  0  0  0  0  0  0  0  0  0  0
   -3.0363   -0.7036    2.6020 H   0  0  0  0  0  0  0  0  0  0  0  0
   -0.7713   -2.2588    1.2552 H   0  0  0  0  0  0  0  0  0  0  0  0
   -2.4831   -2.5049    0.9271 H   0  0  0  0  0  0  0  0  0  0  0  0
   -3.0518   -1.8191   -1.6584 H   0  0  0  0  0  0  0  0  0  0  0  0
   -4.3758   -1.1679    0.6682 H   0  0  0  0  0  0  0  0  0  0  0  0
   -4.9703   -2.2759   -0.5703 H   0  0  0  0  0  0  0  0  0  0  0  0
   -6.3790   -0.0492    1.3352 H   0  0  0  0  0  0  0  0  0  0  0  0
   -8.4039    1.2880    0.7412 H   0  0  0  0  0  0  0  0  0  0  0  0
   -8.9605    1.6640   -1.6358 H   0  0  0  0  0  0  0  0  0  0  0  0
   -7.4881    0.6998   -3.4334 H   0  0  0  0  0  0  0  0  0  0  0  0
   -5.4539   -0.5407   -4.0098 H   0  0  0  0  0  0  0  0  0  0  0  0
   -5.1055   -1.8746   -2.8057 H   0  0  0  0  0  0  0  0  0  0  0  0
   -4.0327    0.8327   -2.3995 H   0  0  0  0  0  0  0  0  0  0  0  0
  1  2  2  3
  2  3  1  0
  2  4  1  0
  4  5  1  0
  5  6  1  0
  6  7  1  0
  7  8  1  0
  8  9  1  0
  9 10  2  0
  8 11  1  0
 11 12  1  0
 12 13  2  0
 12 14  1  0
 14 15  1  0
 15 16  1  0
 16 17  1  0
 17 18  1  0
 18 19  1  0
 19 20  2  0
 19 21  1  0
 21 22  1  0
 22 23  1  0
 23 24  2  0
 24 25  1  0
 25 26  2  0
 26 27  1  0
 27 28  2  0
 28 29  1  0
 29 30  1  0
 18 14  1  0
 30 21  1  0
 28 23  1  0
  1 31  1  0
  3 32  1  0
  3 33  1  0
  4 34  1  0
  5 35  1  0
  5 36  1  0
  6 37  1  0
  6 38  1  0
  7 39  1  0
  7 40  1  0
  8 41  1  6
  9 42  1  0
 11 43  1  0
 14 44  1  1
 15 45  1  0
 15 46  1  0
 16 47  1  0
 16 48  1  0
 17 49  1  0
 17 50  1  0
 21 51  1  6
 22 52  1  0
 22 53  1  0
 24 54  1  0
 25 55  1  0
 26 56  1  0
 27 57  1  0
 29 58  1  0
 29 59  1  0
 30 60  1  0
M  END
$$$$
