@<TRIPOS>MOLECULE
*****
 60 62 0 0 0
SMALL
GASTEIGER

@<TRIPOS>ATOM
      1 NH1         8.9236   -0.1709    0.6555 N.pl3   1  UNL1       -0.1298
      2 CZ          8.7527    0.4922   -0.4420 C.cat   1  UNL1        0.3762
      3 NH2         9.8603    0.8902   -1.2258 N.pl3   1  UNL1       -0.2893
      4 NE          7.4443    0.8199   -0.8585 N.pl3   1  UNL1       -0.2761
      5 CD          6.3269    0.6883    0.1117 C.3     1  UNL1        0.0647
      6 CG          5.0749    1.0960   -0.5847 C.3     1  UNL1       -0.0202
      7 CB          3.8083    1.1523    0.1333 C.3     1  UNL1       -0.0250
      8 CA          3.1877   -0.0087    0.7925 C.3     1  UNL1        0.0786
      9 C           3.9676   -0.5792    1.8839 C.2     1  UNL1        0.1404
     10 O           3.4516   -0.5486    3.0316 O.2     1  UNL1       -0.2991
     11 N           1.8514    0.4169    1.2684 N.am    1  UNL1       -0.3044
     12 C           0.6558   -0.1569    0.7740 C.2     1  UNL1        0.2341
     13 O           0.7513   -1.0717   -0.1115 O.2     1  UNL1       -0.2738
     14 CA         -0.6861    0.2327    1.2136 C.3     1  UNL1        0.1023
     15 CB         -0.9882   -0.0776    2.6592 C.3     1  UNL1       -0.0243
     16 CG         -2.0568   -1.1771    2.6418 C.3     1  UNL1       -0.0350
     17 CD         -1.7761   -1.7630    1.2578 C.3     1  UNL1        0.0156
     18 N          -1.7258   -0.5317    0.4900 N.am    1  UNL1       -0.2886
     19 C          -2.4465   -0.0922   -0.6435 C.2     1  UNL1        0.2335
     20 O          -2.1420    1.0350   -1.1139 O.2     1  UNL1       -0.2739
     21 CA         -3.5242   -0.8488   -1.3182 C.3     1  UNL1        0.0892
     22 C          -4.6511   -1.2016   -0.4109 C.3     1  UNL1       -0.0034
     23 C          -5.8507   -0.3903   -0.6893 C.ar    1  UNL1       -0.0410
     24 C          -6.6649    0.1430    0.3139 C.ar    1  UNL1       -0.0582
     25 C          -7.7742    0.8760   -0.0555 C.ar    1  UNL1       -0.0615
     26 C          -8.0934    1.0913   -1.3913 C.ar    1  UNL1       -0.0614
     27 C          -7.2775    0.5571   -2.3959 C.ar    1  UNL1       -0.0571
     28 C          -6.1818   -0.1667   -2.0012 C.ar    1  UNL1       -0.0303
     29 C          -5.2069   -0.7837   -2.9757 C.3     1  UNL1        0.0222
     30 N          -3.9269   -0.1834   -2.5504 N.3     1  UNL1       -0.3014
     31 HH1         8.1351   -0.4754    1.2492 H       1  UNL1        0.3062
     32 HH21       10.3992    1.7379   -0.9284 H       1  UNL1        0.2546
     33 HH22       10.1536    0.3751   -2.0779 H       1  UNL1        0.2546
     34 HE          7.2362    1.1455   -1.8052 H       1  UNL1        0.2579
     35 HD1         6.2882   -0.4210    0.3559 H       1  UNL1        0.0655
     36 HD2         6.5727    1.2191    1.0252 H       1  UNL1        0.0655
     37 HG1         5.0068    0.5229   -1.5633 H       1  UNL1        0.0296
     38 HG2         5.2780    2.1554   -0.9813 H       1  UNL1        0.0296
     39 HB1         2.9983    1.5909   -0.5623 H       1  UNL1        0.0288
     40 HB2         3.9350    1.9610    0.9506 H       1  UNL1        0.0288
     41 HA          3.0357   -0.8255    0.0376 H       1  UNL1        0.0574
     42 H           4.9281   -1.0362    1.8911 H       1  UNL1        0.1046
     43 H           1.7799    1.1590    1.9867 H       1  UNL1        0.1494
     44 HA         -0.8420    1.3061    1.0064 H       1  UNL1        0.0597
     45 HB1        -0.1163   -0.3580    3.2483 H       1  UNL1        0.0288
     46 HB2        -1.4538    0.8139    3.1370 H       1  UNL1        0.0288
     47 HG1        -1.9060   -1.8996    3.4454 H       1  UNL1        0.0281
     48 HG2        -3.0363   -0.7036    2.6020 H       1  UNL1        0.0281
     49 HD1        -0.7713   -2.2588    1.2552 H       1  UNL1        0.0465
     50 HD2        -2.4831   -2.5049    0.9271 H       1  UNL1        0.0465
     51 HA         -3.0518   -1.8191   -1.6584 H       1  UNL1        0.0560
     52 H          -4.3758   -1.1679    0.6682 H       1  UNL1        0.0333
     53 H          -4.9703   -2.2759   -0.5703 H       1  UNL1        0.0333
     54 H          -6.3790   -0.0492    1.3352 H       1  UNL1        0.0620
     55 H          -8.4039    1.2880    0.7412 H       1  UNL1        0.0618
     56 H          -8.9605    1.6640   -1.6358 H       1  UNL1        0.0618
     57 H          -7.4881    0.6998   -3.4334 H       1  UNL1        0.0621
     58 H          -5.4539   -0.5407   -4.0098 H       1  UNL1        0.0474
     59 H          -5.1055   -1.8746   -2.8057 H       1  UNL1        0.0474
     60 H          -4.0327    0.8327   -2.3995 H       1  UNL1        0.1230
@<TRIPOS>BOND
     1     1     2    2
     2     2     3    1
     3     2     4    1
     4     4     5    1
     5     5     6    1
     6     6     7    1
     7     7     8    1
     8     8     9    1
     9     9    10    2
    10     8    11    1
    11    11    12   am
    12    12    13    2
    13    12    14    1
    14    14    15    1
    15    15    16    1
    16    16    17    1
    17    17    18    1
    18    18    19   am
    19    19    20    2
    20    19    21    1
    21    21    22    1
    22    22    23    1
    23    23    24   ar
    24    24    25   ar
    25    25    26   ar
    26    26    27   ar
    27    27    28   ar
    28    28    29    1
    29    29    30    1
    30    18    14    1
    31    30    21    1
    32    28    23   ar
    33     1    31    1
    34     3    32    1
    35     3    33    1
    36     4    34    1
    37     5    35    1
    38     5    36    1
    39     6    37    1
    40     6    38    1
    41     7    39    1
    42     7    40    1
    43     8    41    1
    44     9    42    1
    45    11    43    1
    46    14    44    1
    47    15    45    1
    48    15    46    1
    49    16    47    1
    50    16    48    1
    51    17    49    1
    52    17    50    1
    53    21    51    1
    54    22    52    1
    55    22    53    1
    56    24    54    1
    57    25    55    1
    58    26    56    1
    59    27    57    1
    60    29    58    1
    61    29    59    1
    62    30    60    1
