
     RDKit          3D

 50 53  0  0  0  0  0  0  0  0999 V2000
   -3.7208    0.9748    1.9567 O   0  0  0  0  0  0  0  0  0  0  0  0
   -4.6517    0.8752    1.0892 C   0  0  0  0  0  0  0  0  0  0  0  0
   -5.3178    2.0107    0.7170 O   0  0  0  0  0  0  0  0  0  0  0  0
   -4.9069   -0.4892    0.5761 C   0  0  0  0  0  0  0  0  0  0  0  0
   -3.9242   -0.8603   -0.5257 C   0  0  0  0  0  0  0  0  0  0  0  0
   -2.5509   -0.8255   -0.0671 N   0  0  0  0  0  0  0  0  0  0  0  0
   -1.7460    0.2322   -0.1219 C   0  0  0  0  0  0  0  0  0  0  0  0
   -0.4972   -0.0826    0.4105 C   0  0  0  0  0  0  0  0  0  0  0  0
   -0.5573   -1.3889    0.8017 C   0  0  0  0  0  0  0  0  0  0  0  0
    0.3614   -2.2095    1.3785 C   0  0  0  0  0  0  0  0  0  0  0  0
   -0.0138   -3.4981    1.6545 C   0  0  0  0  0  0  0  0  0  0  0  0
   -1.2837   -3.9668    1.3624 C   0  0  0  0  0  0  0  0  0  0  0  0
   -2.2151   -3.1267    0.7747 C   0  0  0  0  0  0  0  0  0  0  0  0
   -1.8415   -1.8361    0.4975 C   0  0  0  0  0  0  0  0  0  0  0  0
    0.4966    1.0163    0.4150 C   0  0  0  0  0  0  0  0  0  0  0  0
    0.6435    1.5968   -0.9990 C   0  0  2  0  0  0  0  0  0  0  0  0
    1.6080    2.6264   -1.0268 N   0  0  0  0  0  0  0  0  0  0  0  0
    3.0495    2.3289   -1.8424 S   0  0  0  0  0  6  0  0  0  0  0  0
    2.7569    1.8809   -3.2495 O   0  0  0  0  0  0  0  0  0  0  0  0
    4.0092    3.4816   -1.8163 O   0  0  0  0  0  0  0  0  0  0  0  0
    3.8785    0.9824   -1.0745 C   0  0  0  0  0  0  0  0  0  0  0  0
    4.7035    1.2836   -0.0137 C   0  0  0  0  0  0  0  0  0  0  0  0
    5.4079    0.3251    0.6736 C   0  0  0  0  0  0  0  0  0  0  0  0
    5.2569   -1.0001    0.2511 C   0  0  0  0  0  0  0  0  0  0  0  0
    5.9571   -1.9389    0.9392 F   0  0  0  0  0  0  0  0  0  0  0  0
    4.4340   -1.3120   -0.8093 C   0  0  0  0  0  0  0  0  0  0  0  0
    3.7332   -0.3083   -1.4841 C   0  0  0  0  0  0  0  0  0  0  0  0
   -0.6851    1.9293   -1.5674 C   0  0  0  0  0  0  0  0  0  0  0  0
   -1.8533    1.6305   -0.6112 C   0  0  0  0  0  0  0  0  0  0  0  0
   -5.0186    2.9479    0.9746 H   0  0  0  0  0  0  0  0  0  0  0  0
   -5.9175   -0.6109    0.1644 H   0  0  0  0  0  0  0  0  0  0  0  0
   -4.7707   -1.2183    1.4152 H   0  0  0  0  0  0  0  0  0  0  0  0
   -4.1815   -1.8400   -0.9722 H   0  0  0  0  0  0  0  0  0  0  0  0
   -4.0504   -0.0811   -1.3197 H   0  0  0  0  0  0  0  0  0  0  0  0
    1.3481   -1.8432    1.6044 H   0  0  0  0  0  0  0  0  0  0  0  0
    0.6762   -4.1816    2.1090 H   0  0  0  0  0  0  0  0  0  0  0  0
   -1.5899   -4.9861    1.5781 H   0  0  0  0  0  0  0  0  0  0  0  0
   -3.1934   -3.5136    0.5580 H   0  0  0  0  0  0  0  0  0  0  0  0
    1.4806    0.6918    0.8044 H   0  0  0  0  0  0  0  0  0  0  0  0
    0.0692    1.8155    1.0561 H   0  0  0  0  0  0  0  0  0  0  0  0
    1.0657    0.7259   -1.5842 H   0  0  0  0  0  0  0  0  0  0  0  0
    1.5991    3.3369   -0.3010 H   0  0  0  0  0  0  0  0  0  0  0  0
    4.8408    2.3157    0.3395 H   0  0  0  0  0  0  0  0  0  0  0  0
    6.0488    0.5801    1.5017 H   0  0  0  0  0  0  0  0  0  0  0  0
    4.3471   -2.3485   -1.1020 H   0  0  0  0  0  0  0  0  0  0  0  0
    3.0920   -0.5437   -2.3101 H   0  0  0  0  0  0  0  0  0  0  0  0
   -0.8321    2.9607   -1.8890 H   0  0  0  0  0  0  0  0  0  0  0  0
   -0.9215    1.2930   -2.4718 H   0  0  0  0  0  0  0  0  0  0  0  0
   -1.8457    2.3578    0.2363 H   0  0  0  0  0  0  0  0  0  0  0  0
   -2.7772    1.8102   -1.1847 H   0  0  0  0  0  0  0  0  0  0  0  0
  1  2  2  0
  2  3  1  0
  2  4  1  0
  4  5  1  0
  5  6  1  0
  6  7  1  0
  7  8  2  0
  8  9  1  0
  9 10  2  0
 10 11  1  0
 11 12  2  0
 12 13  1  0
 13 14  2  0
  8 15  1  0
 15 16  1  0
 16 17  1  0
 17 18  1  0
 18 19  2  0
 18 20  2  0
 18 21  1  0
 21 22  2  0
 22 23  1  0
 23 24  2  0
 24 25  1  0
 24 26  1  0
 26 27  2  0
 16 28  1  0
 28 29  1  0
 14  6  1  0
 27 21  1  0
 29  7  1  0
 14  9  1  0
  3 30  1  0
  4 31  1  0
  4 32  1  0
  5 33  1  0
  5 34  1  0
 10 35  1  0
 11 36  1  0
 12 37  1  0
 13 38  1  0
 15 39  1  0
 15 40  1  0
 16 41  1  6
 17 42  1  0
 22 43  1  0
 23 44  1  0
 26 45  1  0
 27 46  1  0
 28 47  1  0
 28 48  1  0
 29 49  1  0
 29 50  1  0
M  END
$$$$
