@<TRIPOS>MOLECULE
*****
 50 53 0 0 0
SMALL
GASTEIGER

@<TRIPOS>ATOM
      1 O          -3.7208    0.9748    1.9567 O.2     1  UNL1       -0.2510
      2 C          -4.6517    0.8752    1.0892 C.2     1  UNL1        0.3064
      3 O          -5.3178    2.0107    0.7170 O.3     1  UNL1       -0.4806
      4 C          -4.9069   -0.4892    0.5761 C.3     1  UNL1        0.0627
      5 C          -3.9242   -0.8603   -0.5257 C.3     1  UNL1        0.0336
      6 N          -2.5509   -0.8255   -0.0671 N.ar    1  UNL1       -0.3430
      7 C          -1.7460    0.2322   -0.1219 C.ar    1  UNL1        0.0231
      8 C          -0.4972   -0.0826    0.4105 C.ar    1  UNL1       -0.0174
      9 C          -0.5573   -1.3889    0.8017 C.ar    1  UNL1        0.0033
     10 C           0.3614   -2.2095    1.3785 C.ar    1  UNL1       -0.0523
     11 C          -0.0138   -3.4981    1.6545 C.ar    1  UNL1       -0.0611
     12 C          -1.2837   -3.9668    1.3624 C.ar    1  UNL1       -0.0598
     13 C          -2.2151   -3.1267    0.7747 C.ar    1  UNL1       -0.0376
     14 C          -1.8415   -1.8361    0.4975 C.ar    1  UNL1        0.0495
     15 C           0.4966    1.0163    0.4150 C.3     1  UNL1       -0.0083
     16 C           0.6435    1.5968   -0.9990 C.3     1  UNL1        0.0332
     17 N           1.6080    2.6264   -1.0268 N.3     1  UNL1       -0.1866
     18 S           3.0495    2.3289   -1.8424 S.O2    1  UNL1        0.0587
     19 O           2.7569    1.8809   -3.2495 O.2     1  UNL1       -0.1530
     20 O           4.0092    3.4816   -1.8163 O.2     1  UNL1       -0.1530
     21 C           3.8785    0.9824   -1.0745 C.ar    1  UNL1        0.1054
     22 C           4.7035    1.2836   -0.0137 C.ar    1  UNL1       -0.0326
     23 C           5.4079    0.3251    0.6736 C.ar    1  UNL1       -0.0246
     24 C           5.2569   -1.0001    0.2511 C.ar    1  UNL1        0.1235
     25 F           5.9571   -1.9389    0.9392 F       1  UNL1       -0.2055
     26 C           4.4340   -1.3120   -0.8093 C.ar    1  UNL1       -0.0246
     27 C           3.7332   -0.3083   -1.4841 C.ar    1  UNL1       -0.0326
     28 C          -0.6851    1.9293   -1.5674 C.3     1  UNL1       -0.0303
     29 C          -1.8533    1.6305   -0.6112 C.3     1  UNL1       -0.0105
     30 H          -5.0186    2.9479    0.9746 H       1  UNL1        0.2951
     31 H          -5.9175   -0.6109    0.1644 H       1  UNL1        0.0395
     32 H          -4.7707   -1.2183    1.4152 H       1  UNL1        0.0395
     33 H          -4.1815   -1.8400   -0.9722 H       1  UNL1        0.0497
     34 H          -4.0504   -0.0811   -1.3197 H       1  UNL1        0.0497
     35 H           1.3481   -1.8432    1.6044 H       1  UNL1        0.0624
     36 H           0.6762   -4.1816    2.1090 H       1  UNL1        0.0618
     37 H          -1.5899   -4.9861    1.5781 H       1  UNL1        0.0618
     38 H          -3.1934   -3.5136    0.5580 H       1  UNL1        0.0638
     39 H           1.4806    0.6918    0.8044 H       1  UNL1        0.0330
     40 H           0.0692    1.8155    1.0561 H       1  UNL1        0.0330
     41 H           1.0657    0.7259   -1.5842 H       1  UNL1        0.0480
     42 H           1.5991    3.3369   -0.3010 H       1  UNL1        0.1483
     43 H           4.8408    2.3157    0.3395 H       1  UNL1        0.0638
     44 H           6.0488    0.5801    1.5017 H       1  UNL1        0.0647
     45 H           4.3471   -2.3485   -1.1020 H       1  UNL1        0.0647
     46 H           3.0920   -0.5437   -2.3101 H       1  UNL1        0.0638
     47 H          -0.8321    2.9607   -1.8890 H       1  UNL1        0.0284
     48 H          -0.9215    1.2930   -2.4718 H       1  UNL1        0.0284
     49 H          -1.8457    2.3578    0.2363 H       1  UNL1        0.0328
     50 H          -2.7772    1.8102   -1.1847 H       1  UNL1        0.0328
@<TRIPOS>BOND
     1     1     2    2
     2     2     3    1
     3     2     4    1
     4     4     5    1
     5     5     6    1
     6     6     7   ar
     7     7     8   ar
     8     8     9   ar
     9     9    10   ar
    10    10    11   ar
    11    11    12   ar
    12    12    13   ar
    13    13    14   ar
    14     8    15    1
    15    15    16    1
    16    16    17    1
    17    17    18    1
    18    18    19    2
    19    18    20    2
    20    18    21    1
    21    21    22   ar
    22    22    23   ar
    23    23    24   ar
    24    24    25    1
    25    24    26   ar
    26    26    27   ar
    27    16    28    1
    28    28    29    1
    29    14     6   ar
    30    27    21   ar
    31    29     7    1
    32    14     9   ar
    33     3    30    1
    34     4    31    1
    35     4    32    1
    36     5    33    1
    37     5    34    1
    38    10    35    1
    39    11    36    1
    40    12    37    1
    41    13    38    1
    42    15    39    1
    43    15    40    1
    44    16    41    1
    45    17    42    1
    46    22    43    1
    47    23    44    1
    48    26    45    1
    49    27    46    1
    50    28    47    1
    51    28    48    1
    52    29    49    1
    53    29    50    1
