@<TRIPOS>MOLECULE
*****
 54 56 0 0 0
SMALL
GASTEIGER

@<TRIPOS>ATOM
      1 C           9.5267    1.1704   -2.7516 C.2     1  UNL1       -0.0938
      2 C           8.7178    0.2454   -2.3093 C.2     1  UNL1       -0.0066
      3 C           7.4130    0.6436   -1.7719 C.2     1  UNL1        0.2405
      4 O           7.0594    1.8488   -1.7281 O.2     1  UNL1       -0.2705
      5 N           6.4864   -0.3171   -1.2747 N.am    1  UNL1       -0.2820
      6 C           5.2079    0.0417   -0.7445 C.ar    1  UNL1        0.0338
      7 C           4.0961    0.1188   -1.5586 C.ar    1  UNL1       -0.0386
      8 C           2.8479    0.4638   -1.0577 C.ar    1  UNL1       -0.0336
      9 C           2.6676    0.7454    0.2836 C.ar    1  UNL1        0.1056
     10 S           1.0951    1.1796    0.9301 S.O2    1  UNL1        0.0609
     11 O           0.3127    1.9328   -0.1372 O.2     1  UNL1       -0.1528
     12 O           1.2505    2.1606    2.0770 O.2     1  UNL1       -0.1528
     13 N           0.1908   -0.1220    1.4520 N.3     1  UNL1       -0.1736
     14 C          -0.1889   -1.1210    0.5491 C.3     1  UNL1        0.0364
     15 C          -1.6917   -1.2321    0.2849 C.3     1  UNL1        0.0306
     16 N          -2.4365   -0.9851    1.4684 N.am    1  UNL1       -0.2829
     17 C          -3.7875   -0.6740    1.5676 C.2     1  UNL1        0.3049
     18 O          -4.2770   -0.4747    2.7660 O.2     1  UNL1       -0.2524
     19 N          -4.7763   -0.5261    0.5645 N.am    1  UNL1       -0.2855
     20 C          -6.1467   -0.1769    0.9249 C.3     1  UNL1        0.0161
     21 C          -6.7391    0.8742    0.0270 C.3     1  UNL1       -0.0371
     22 C          -6.3980    0.6212   -1.4231 C.3     1  UNL1       -0.0502
     23 C          -5.7861   -0.7537   -1.5959 C.3     1  UNL1       -0.0371
     24 C          -4.4604   -0.7144   -0.8146 C.3     1  UNL1        0.0161
     25 C          -1.6641   -1.0797    2.7229 C.3     1  UNL1        0.0306
     26 C          -0.6257    0.0451    2.6095 C.3     1  UNL1        0.0364
     27 C           3.7874    0.6647    1.0863 C.ar    1  UNL1       -0.0336
     28 C           5.0295    0.3226    0.5947 C.ar    1  UNL1       -0.0386
     29 H           9.2354    2.2012   -2.7195 H       1  UNL1        0.0536
     30 H          10.4871    0.9118   -3.1504 H       1  UNL1        0.0536
     31 H           9.0299   -0.7834   -2.3514 H       1  UNL1        0.0663
     32 H           6.7553   -1.3375   -1.2990 H       1  UNL1        0.1551
     33 H           4.2396   -0.1012   -2.6052 H       1  UNL1        0.0637
     34 H           1.9744    0.5250   -1.6924 H       1  UNL1        0.0638
     35 H           0.3131   -0.9268   -0.4413 H       1  UNL1        0.0459
     36 H           0.1626   -2.1204    0.8715 H       1  UNL1        0.0459
     37 H          -1.8971   -2.2874   -0.0645 H       1  UNL1        0.0478
     38 H          -1.8931   -0.4877   -0.4920 H       1  UNL1        0.0478
     39 H          -6.1719    0.1236    1.9907 H       1  UNL1        0.0465
     40 H          -6.7467   -1.0965    0.8247 H       1  UNL1        0.0465
     41 H          -7.8328    0.9504    0.1554 H       1  UNL1        0.0280
     42 H          -6.3003    1.8490    0.3096 H       1  UNL1        0.0280
     43 H          -7.3394    0.6692   -2.0036 H       1  UNL1        0.0266
     44 H          -5.7290    1.4145   -1.8104 H       1  UNL1        0.0266
     45 H          -5.6042   -0.9016   -2.6705 H       1  UNL1        0.0280
     46 H          -6.4202   -1.4983   -1.1213 H       1  UNL1        0.0280
     47 H          -3.9895    0.2489   -1.1743 H       1  UNL1        0.0465
     48 H          -3.8664   -1.6097   -1.0553 H       1  UNL1        0.0465
     49 H          -2.3027   -0.8354    3.5766 H       1  UNL1        0.0478
     50 H          -1.1932   -2.0620    2.7453 H       1  UNL1        0.0478
     51 H          -0.0034    0.1372    3.4973 H       1  UNL1        0.0459
     52 H          -1.2144    0.9784    2.4934 H       1  UNL1        0.0459
     53 H           3.6771    0.8780    2.1305 H       1  UNL1        0.0638
     54 H           5.9188    0.2585    1.2322 H       1  UNL1        0.0637
@<TRIPOS>BOND
     1     1     2    2
     2     2     3    1
     3     3     4    2
     4     3     5   am
     5     5     6    1
     6     6     7   ar
     7     7     8   ar
     8     8     9   ar
     9     9    10    1
    10    10    11    2
    11    10    12    2
    12    10    13    1
    13    13    14    1
    14    14    15    1
    15    15    16    1
    16    16    17   am
    17    17    18    2
    18    17    19   am
    19    19    20    1
    20    20    21    1
    21    21    22    1
    22    22    23    1
    23    23    24    1
    24    16    25    1
    25    25    26    1
    26     9    27   ar
    27    27    28   ar
    28    28     6   ar
    29    26    13    1
    30    24    19    1
    31     1    29    1
    32     1    30    1
    33     2    31    1
    34     5    32    1
    35     7    33    1
    36     8    34    1
    37    14    35    1
    38    14    36    1
    39    15    37    1
    40    15    38    1
    41    20    39    1
    42    20    40    1
    43    21    41    1
    44    21    42    1
    45    22    43    1
    46    22    44    1
    47    23    45    1
    48    23    46    1
    49    24    47    1
    50    24    48    1
    51    25    49    1
    52    25    50    1
    53    26    51    1
    54    26    52    1
    55    27    53    1
    56    28    54    1
