@<TRIPOS>MOLECULE
*****
 56 60 0 0 0
SMALL
GASTEIGER

@<TRIPOS>ATOM
      1 C           4.8608    2.8239   -2.1783 C.3     1  UNL1        0.0365
      2 O           4.6276    1.5743   -1.6059 O.3     1  UNL1       -0.3812
      3 C           3.6436    0.8655   -2.2897 C.3     1  UNL1        0.0652
      4 C           3.4783   -0.4678   -1.5799 C.3     1  UNL1        0.0465
      5 N           3.0770   -0.2097   -0.1976 N.ar    1  UNL1       -0.3456
      6 C           3.9055   -0.0427    0.8427 C.ar    1  UNL1        0.0086
      7 C           3.1065    0.1744    1.9400 C.ar    1  UNL1       -0.0205
      8 C           3.5641    0.4098    3.3109 C.3     1  UNL1       -0.0376
      9 C           1.7562    0.1385    1.5559 C.ar    1  UNL1        0.0630
     10 C           1.7718   -0.1042    0.2123 C.ar    1  UNL1        0.0568
     11 C           0.3714   -0.1721   -0.2970 C.3     1  UNL1        0.0972
     12 C           0.1068   -1.4919   -0.9124 C.ar    1  UNL1       -0.0208
     13 C           0.0613   -2.6471   -0.1790 C.ar    1  UNL1       -0.0550
     14 C          -0.1873   -3.8842   -0.7438 C.ar    1  UNL1       -0.0431
     15 C          -0.3990   -3.9572   -2.1068 C.ar    1  UNL1        0.0410
     16 CL         -0.7189   -5.5041   -2.8735 Cl      1  UNL1       -0.0835
     17 C          -0.3562   -2.8056   -2.8553 C.ar    1  UNL1       -0.0431
     18 C          -0.1038   -1.5649   -2.2683 C.ar    1  UNL1       -0.0550
     19 N          -0.4174    0.0878    0.8794 N.am    1  UNL1       -0.2530
     20 C          -1.8635    0.1823    0.9278 C.ar    1  UNL1        0.0545
     21 C          -2.6360   -0.9154    1.2108 C.ar    1  UNL1       -0.0324
     22 C          -4.0262   -0.8132    1.2502 C.ar    1  UNL1       -0.0041
     23 C          -4.8450   -2.0118    1.5579 C.3     1  UNL1       -0.0361
     24 C          -4.5740    0.4203    0.9960 C.ar    1  UNL1        0.1641
     25 N          -5.8768    0.7930    0.9704 N.ar    1  UNL1       -0.1292
     26 N          -5.8874    2.0799    0.6800 N.ar    1  UNL1       -0.1340
     27 C          -4.6422    2.5378    0.5205 C.ar    1  UNL1        0.1347
     28 C          -4.2890    3.9501    0.1853 C.3     1  UNL1       -0.0041
     29 N          -3.8159    1.4959    0.7188 N.ar    1  UNL1       -0.2846
     30 C          -2.4685    1.3983    0.6802 C.ar    1  UNL1        0.0344
     31 C           0.3871    0.2681    2.0325 C.2     1  UNL1        0.2538
     32 O           0.0519    0.4916    3.2212 O.2     1  UNL1       -0.2695
     33 H           3.8949    3.3726   -2.1300 H       1  UNL1        0.0523
     34 H           5.5468    3.3663   -1.4885 H       1  UNL1        0.0523
     35 H           5.2653    2.7485   -3.1981 H       1  UNL1        0.0523
     36 H           3.9195    0.7094   -3.3394 H       1  UNL1        0.0577
     37 H           2.6592    1.3898   -2.2788 H       1  UNL1        0.0577
     38 H           4.4442   -1.0152   -1.5801 H       1  UNL1        0.0514
     39 H           2.7384   -1.0457   -2.1331 H       1  UNL1        0.0514
     40 H           4.9827   -0.0807    0.7777 H       1  UNL1        0.0812
     41 H           4.4700   -0.1945    3.5632 H       1  UNL1        0.0278
     42 H           2.7822    0.1317    4.0364 H       1  UNL1        0.0278
     43 H           3.7855    1.4985    3.5021 H       1  UNL1        0.0278
     44 H           0.2845    0.6499   -1.0476 H       1  UNL1        0.0619
     45 H           0.2249   -2.5983    0.8814 H       1  UNL1        0.0621
     46 H          -0.2259   -4.7987   -0.1804 H       1  UNL1        0.0632
     47 H          -0.5203   -2.8682   -3.9064 H       1  UNL1        0.0632
     48 H          -0.0891   -0.7166   -2.9332 H       1  UNL1        0.0621
     49 H          -2.1984   -1.8701    1.4104 H       1  UNL1        0.0640
     50 H          -5.8891   -1.8180    1.2983 H       1  UNL1        0.0279
     51 H          -4.6703   -2.3207    2.5893 H       1  UNL1        0.0279
     52 H          -4.4814   -2.8590    0.9071 H       1  UNL1        0.0279
     53 H          -4.7991    4.5773    0.9654 H       1  UNL1        0.0308
     54 H          -4.7113    4.2667   -0.7805 H       1  UNL1        0.0308
     55 H          -3.1863    4.0835    0.2412 H       1  UNL1        0.0308
     56 H          -1.8901    2.2918    0.4522 H       1  UNL1        0.0833
@<TRIPOS>BOND
     1     1     2    1
     2     2     3    1
     3     3     4    1
     4     4     5    1
     5     5     6   ar
     6     6     7   ar
     7     7     8    1
     8     7     9   ar
     9     9    10   ar
    10    10    11    1
    11    11    12    1
    12    12    13   ar
    13    13    14   ar
    14    14    15   ar
    15    15    16    1
    16    15    17   ar
    17    17    18   ar
    18    11    19    1
    19    19    20    1
    20    20    21   ar
    21    21    22   ar
    22    22    23    1
    23    22    24   ar
    24    24    25   ar
    25    25    26   ar
    26    26    27   ar
    27    27    28    1
    28    27    29   ar
    29    29    30   ar
    30    19    31   am
    31    31    32    2
    32    10     5   ar
    33    18    12   ar
    34    30    20   ar
    35    31     9    1
    36    29    24   ar
    37     1    33    1
    38     1    34    1
    39     1    35    1
    40     3    36    1
    41     3    37    1
    42     4    38    1
    43     4    39    1
    44     6    40    1
    45     8    41    1
    46     8    42    1
    47     8    43    1
    48    11    44    1
    49    13    45    1
    50    14    46    1
    51    17    47    1
    52    18    48    1
    53    21    49    1
    54    23    50    1
    55    23    51    1
    56    23    52    1
    57    28    53    1
    58    28    54    1
    59    28    55    1
    60    30    56    1
