@<TRIPOS>MOLECULE
*****
 49 51 0 0 0
SMALL
GASTEIGER

@<TRIPOS>ATOM
      1 C          -0.3570   -2.4355   -2.9182 C.3     1  UNL1        0.0790
      2 O          -1.1034   -1.7737   -1.9143 O.3     1  UNL1       -0.4913
      3 C          -0.4491   -1.3890   -0.7469 C.ar    1  UNL1        0.1655
      4 C           0.8978   -1.6429   -0.5632 C.ar    1  UNL1       -0.0126
      5 C           1.5330   -1.2540    0.6027 C.ar    1  UNL1       -0.0358
      6 C           2.9731   -1.5488    0.7497 C.3     1  UNL1        0.0025
      7 C           3.7797   -0.4201    0.2201 C.ar    1  UNL1        0.0146
      8 C           3.1913    0.7009   -0.3136 C.ar    1  UNL1        0.0379
      9 N           3.9531    1.6949   -0.7797 N.ar    1  UNL1       -0.2227
     10 C           5.2821    1.6362   -0.7445 C.ar    1  UNL1        0.2142
     11 N           6.0926    2.7187   -1.2522 N.pl3   1  UNL1       -0.3274
     12 N           5.8807    0.5545   -0.2293 N.ar    1  UNL1       -0.1999
     13 C           5.1541   -0.4588    0.2461 C.ar    1  UNL1        0.1247
     14 N           5.7748   -1.6107    0.7947 N.pl3   1  UNL1       -0.3428
     15 C           0.8104   -0.5991    1.6048 C.ar    1  UNL1       -0.0126
     16 C          -0.5337   -0.3354    1.4435 C.ar    1  UNL1        0.1655
     17 O          -1.2878    0.3220    2.4341 O.3     1  UNL1       -0.4913
     18 C          -0.6102    0.7120    3.6255 C.3     1  UNL1        0.0790
     19 C          -1.1116   -0.7458    0.2626 C.ar    1  UNL1        0.2041
     20 O          -2.4704   -0.4873    0.0822 O.3     1  UNL1       -0.4804
     21 C          -2.7844    0.7663   -0.5346 C.3     1  UNL1        0.1150
     22 C          -4.2517    0.9298   -0.6736 C.ar    1  UNL1       -0.0104
     23 C          -4.9724    1.5344    0.3615 C.ar    1  UNL1       -0.0554
     24 C          -6.3360    1.7023    0.2659 C.ar    1  UNL1       -0.0614
     25 C          -7.0023    1.2656   -0.8724 C.ar    1  UNL1       -0.0617
     26 C          -6.2629    0.6710   -1.8803 C.ar    1  UNL1       -0.0614
     27 C          -4.8940    0.4959   -1.7982 C.ar    1  UNL1       -0.0554
     28 H          -1.0029   -2.7317   -3.7602 H       1  UNL1        0.0660
     29 H           0.4977   -1.8162   -3.2707 H       1  UNL1        0.0660
     30 H           0.1056   -3.3820   -2.5352 H       1  UNL1        0.0660
     31 H           1.4386   -2.1573   -1.3647 H       1  UNL1        0.0658
     32 H           3.2167   -2.5065    0.2458 H       1  UNL1        0.0363
     33 H           3.2102   -1.7147    1.8352 H       1  UNL1        0.0363
     34 H           2.0983    0.7766   -0.3555 H       1  UNL1        0.0834
     35 H           6.4521    3.4287   -0.5810 H       1  UNL1        0.1452
     36 H           6.3036    2.7731   -2.2707 H       1  UNL1        0.1452
     37 H           5.6753   -1.7807    1.8161 H       1  UNL1        0.1437
     38 H           6.3151   -2.2711    0.2020 H       1  UNL1        0.1437
     39 H           1.3162   -0.3000    2.5106 H       1  UNL1        0.0658
     40 H          -0.0167   -0.1488    4.0464 H       1  UNL1        0.0660
     41 H          -1.3197    0.9884    4.4257 H       1  UNL1        0.0660
     42 H           0.0520    1.5628    3.3802 H       1  UNL1        0.0660
     43 H          -2.4318    1.5773    0.1446 H       1  UNL1        0.0748
     44 H          -2.2678    0.8762   -1.4951 H       1  UNL1        0.0748
     45 H          -4.4892    1.8845    1.2574 H       1  UNL1        0.0621
     46 H          -6.8801    2.1734    1.0784 H       1  UNL1        0.0618
     47 H          -8.0685    1.4094   -0.9209 H       1  UNL1        0.0618
     48 H          -6.7817    0.3316   -2.7654 H       1  UNL1        0.0618
     49 H          -4.3188    0.0235   -2.6030 H       1  UNL1        0.0621
@<TRIPOS>BOND
     1     1     2    1
     2     2     3    1
     3     3     4   ar
     4     4     5   ar
     5     5     6    1
     6     6     7    1
     7     7     8   ar
     8     8     9   ar
     9     9    10   ar
    10    10    11    1
    11    10    12   ar
    12    12    13   ar
    13    13    14    1
    14     5    15   ar
    15    15    16   ar
    16    16    17    1
    17    17    18    1
    18    16    19   ar
    19    19    20    1
    20    20    21    1
    21    21    22    1
    22    22    23   ar
    23    23    24   ar
    24    24    25   ar
    25    25    26   ar
    26    26    27   ar
    27    19     3   ar
    28    27    22   ar
    29    13     7   ar
    30     1    28    1
    31     1    29    1
    32     1    30    1
    33     4    31    1
    34     6    32    1
    35     6    33    1
    36     8    34    1
    37    11    35    1
    38    11    36    1
    39    14    37    1
    40    14    38    1
    41    15    39    1
    42    18    40    1
    43    18    41    1
    44    18    42    1
    45    21    43    1
    46    21    44    1
    47    23    45    1
    48    24    46    1
    49    25    47    1
    50    26    48    1
    51    27    49    1
