
     RDKit          3D

 49 51  0  0  0  0  0  0  0  0999 V2000
   -0.3570   -2.4355   -2.9182 C   0  0  0  0  0  0  0  0  0  0  0  0
   -1.1034   -1.7737   -1.9143 O   0  0  0  0  0  0  0  0  0  0  0  0
   -0.4491   -1.3890   -0.7469 C   0  0  0  0  0  0  0  0  0  0  0  0
    0.8978   -1.6429   -0.5632 C   0  0  0  0  0  0  0  0  0  0  0  0
    1.5330   -1.2540    0.6027 C   0  0  0  0  0  0  0  0  0  0  0  0
    2.9731   -1.5488    0.7497 C   0  0  0  0  0  0  0  0  0  0  0  0
    3.7797   -0.4201    0.2201 C   0  0  0  0  0  0  0  0  0  0  0  0
    3.1913    0.7009   -0.3136 C   0  0  0  0  0  0  0  0  0  0  0  0
    3.9531    1.6949   -0.7797 N   0  0  0  0  0  0  0  0  0  0  0  0
    5.2821    1.6362   -0.7445 C   0  0  0  0  0  0  0  0  0  0  0  0
    6.0926    2.7187   -1.2522 N   0  0  0  0  0  0  0  0  0  0  0  0
    5.8807    0.5545   -0.2293 N   0  0  0  0  0  0  0  0  0  0  0  0
    5.1541   -0.4588    0.2461 C   0  0  0  0  0  0  0  0  0  0  0  0
    5.7748   -1.6107    0.7947 N   0  0  0  0  0  0  0  0  0  0  0  0
    0.8104   -0.5991    1.6048 C   0  0  0  0  0  0  0  0  0  0  0  0
   -0.5337   -0.3354    1.4435 C   0  0  0  0  0  0  0  0  0  0  0  0
   -1.2878    0.3220    2.4341 O   0  0  0  0  0  0  0  0  0  0  0  0
   -0.6102    0.7120    3.6255 C   0  0  0  0  0  0  0  0  0  0  0  0
   -1.1116   -0.7458    0.2626 C   0  0  0  0  0  0  0  0  0  0  0  0
   -2.4704   -0.4873    0.0822 O   0  0  0  0  0  0  0  0  0  0  0  0
   -2.7844    0.7663   -0.5346 C   0  0  0  0  0  0  0  0  0  0  0  0
   -4.2517    0.9298   -0.6736 C   0  0  0  0  0  0  0  0  0  0  0  0
   -4.9724    1.5344    0.3615 C   0  0  0  0  0  0  0  0  0  0  0  0
   -6.3360    1.7023    0.2659 C   0  0  0  0  0  0  0  0  0  0  0  0
   -7.0023    1.2656   -0.8724 C   0  0  0  0  0  0  0  0  0  0  0  0
   -6.2629    0.6710   -1.8803 C   0  0  0  0  0  0  0  0  0  0  0  0
   -4.8940    0.4959   -1.7982 C   0  0  0  0  0  0  0  0  0  0  0  0
   -1.0029   -2.7317   -3.7602 H   0  0  0  0  0  0  0  0  0  0  0  0
    0.4977   -1.8162   -3.2707 H   0  0  0  0  0  0  0  0  0  0  0  0
    0.1056   -3.3820   -2.5352 H   0  0  0  0  0  0  0  0  0  0  0  0
    1.4386   -2.1573   -1.3647 H   0  0  0  0  0  0  0  0  0  0  0  0
    3.2167   -2.5065    0.2458 H   0  0  0  0  0  0  0  0  0  0  0  0
    3.2102   -1.7147    1.8352 H   0  0  0  0  0  0  0  0  0  0  0  0
    2.0983    0.7766   -0.3555 H   0  0  0  0  0  0  0  0  0  0  0  0
    6.4521    3.4287   -0.5810 H   0  0  0  0  0  0  0  0  0  0  0  0
    6.3036    2.7731   -2.2707 H   0  0  0  0  0  0  0  0  0  0  0  0
    5.6753   -1.7807    1.8161 H   0  0  0  0  0  0  0  0  0  0  0  0
    6.3151   -2.2711    0.2020 H   0  0  0  0  0  0  0  0  0  0  0  0
    1.3162   -0.3000    2.5106 H   0  0  0  0  0  0  0  0  0  0  0  0
   -0.0167   -0.1488    4.0464 H   0  0  0  0  0  0  0  0  0  0  0  0
   -1.3197    0.9884    4.4257 H   0  0  0  0  0  0  0  0  0  0  0  0
    0.0520    1.5628    3.3802 H   0  0  0  0  0  0  0  0  0  0  0  0
   -2.4318    1.5773    0.1446 H   0  0  0  0  0  0  0  0  0  0  0  0
   -2.2678    0.8762   -1.4951 H   0  0  0  0  0  0  0  0  0  0  0  0
   -4.4892    1.8845    1.2574 H   0  0  0  0  0  0  0  0  0  0  0  0
   -6.8801    2.1734    1.0784 H   0  0  0  0  0  0  0  0  0  0  0  0
   -8.0685    1.4094   -0.9209 H   0  0  0  0  0  0  0  0  0  0  0  0
   -6.7817    0.3316   -2.7654 H   0  0  0  0  0  0  0  0  0  0  0  0
   -4.3188    0.0235   -2.6030 H   0  0  0  0  0  0  0  0  0  0  0  0
  1  2  1  0
  2  3  1  0
  3  4  2  0
  4  5  1  0
  5  6  1  0
  6  7  1  0
  7  8  2  0
  8  9  1  0
  9 10  2  0
 10 11  1  0
 10 12  1  0
 12 13  2  0
 13 14  1  0
  5 15  2  0
 15 16  1  0
 16 17  1  0
 17 18  1  0
 16 19  2  0
 19 20  1  0
 20 21  1  0
 21 22  1  0
 22 23  2  0
 23 24  1  0
 24 25  2  0
 25 26  1  0
 26 27  2  0
 19  3  1  0
 27 22  1  0
 13  7  1  0
  1 28  1  0
  1 29  1  0
  1 30  1  0
  4 31  1  0
  6 32  1  0
  6 33  1  0
  8 34  1  0
 11 35  1  0
 11 36  1  0
 14 37  1  0
 14 38  1  0
 15 39  1  0
 18 40  1  0
 18 41  1  0
 18 42  1  0
 21 43  1  0
 21 44  1  0
 23 45  1  0
 24 46  1  0
 25 47  1  0
 26 48  1  0
 27 49  1  0
M  END
$$$$
