@<TRIPOS>MOLECULE
*****
 67 70 0 0 0
SMALL
GASTEIGER

@<TRIPOS>ATOM
      1 C          -1.9022   -5.5301    3.4532 C.3     1  UNL1        0.0121
      2 C          -2.1218   -4.8496    2.1704 C.ar    1  UNL1        0.1927
      3 N          -2.8640   -5.3129    1.1351 N.ar    1  UNL1       -0.2217
      4 C          -2.7809   -4.3633    0.1791 C.ar    1  UNL1        0.0714
      5 C          -1.9889   -3.3457    0.6590 C.ar    1  UNL1        0.1506
      6 C          -1.6427   -2.0891   -0.1003 C.3     1  UNL1        0.1070
      7 O          -2.5880   -1.1446    0.1769 O.3     1  UNL1       -0.3697
      8 C          -2.4831    0.0467   -0.4721 C.3     1  UNL1        0.0751
      9 C          -1.2569    0.8614   -0.2503 C.3     1  UNL1        0.1233
     10 N          -0.0165    0.2116   -0.6674 N.am    1  UNL1       -0.2979
     11 C           0.2476   -0.2188   -1.9825 C.2     1  UNL1        0.2499
     12 O          -0.7102    0.0146   -2.8113 O.2     1  UNL1       -0.2700
     13 C           1.4546   -0.8765   -2.4699 C.ar    1  UNL1        0.0985
     14 C           1.4709   -1.2038   -3.8419 C.ar    1  UNL1       -0.0430
     15 C           2.5403   -1.8205   -4.4304 C.ar    1  UNL1       -0.0426
     16 C           3.6164   -2.1141   -3.6208 C.ar    1  UNL1        0.0314
     17 N           3.5938   -1.7996   -2.3161 N.ar    1  UNL1       -0.2203
     18 C           2.5472   -1.1883   -1.7065 C.ar    1  UNL1        0.2327
     19 O           2.5712   -0.8868   -0.3662 O.3     1  UNL1       -0.4358
     20 C           3.6058   -1.1494    0.4940 C.ar    1  UNL1        0.1486
     21 C           4.2441   -0.1183    1.1737 C.ar    1  UNL1       -0.0173
     22 C           5.2891   -0.3880    2.0419 C.ar    1  UNL1       -0.0466
     23 C           5.6977   -1.6993    2.2309 C.ar    1  UNL1        0.0564
     24 C           6.8215   -1.9679    3.1684 C.3     1  UNL1        0.4175
     25 F           6.8906   -3.2790    3.5513 F       1  UNL1       -0.1659
     26 F           7.9959   -1.6296    2.4990 F       1  UNL1       -0.1659
     27 F           6.6935   -1.1132    4.2501 F       1  UNL1       -0.1659
     28 C           5.0513   -2.7058    1.5473 C.ar    1  UNL1       -0.0282
     29 C           4.0068   -2.4609    0.6765 C.ar    1  UNL1        0.0837
     30 CL          3.2180   -3.7876   -0.1701 Cl      1  UNL1       -0.0797
     31 C          -1.3619    2.2023   -0.9313 C.2     1  UNL1        0.2382
     32 O          -0.5168    2.4619   -1.8669 O.2     1  UNL1       -0.2735
     33 N          -2.2945    3.1887   -0.6338 N.am    1  UNL1       -0.2975
     34 C          -3.2664    3.0615    0.4152 C.3     1  UNL1        0.0275
     35 C          -3.4248    4.4924    0.9886 C.3     1  UNL1        0.0145
     36 N          -4.0721    5.3508    0.0161 N.3     1  UNL1       -0.3024
     37 C          -3.6617    6.7186    0.2269 C.3     1  UNL1       -0.0126
     38 C          -3.7382    4.9474   -1.3287 C.3     1  UNL1        0.0145
     39 C          -2.3205    4.4169   -1.3974 C.3     1  UNL1        0.0275
     40 O          -1.6048   -3.6663    1.8639 O.2     1  UNL1       -0.4426
     41 H          -1.7216   -6.6175    3.2129 H       1  UNL1        0.0324
     42 H          -2.8071   -5.4382    4.0999 H       1  UNL1        0.0324
     43 H          -0.9882   -5.1635    3.9641 H       1  UNL1        0.0324
     44 H          -3.2578   -4.4222   -0.7707 H       1  UNL1        0.0865
     45 H          -0.6483   -1.7716    0.3351 H       1  UNL1        0.0642
     46 H          -1.5441   -2.3616   -1.1662 H       1  UNL1        0.0642
     47 H          -3.3667    0.6784   -0.1796 H       1  UNL1        0.0583
     48 H          -2.5995   -0.2096   -1.5812 H       1  UNL1        0.0583
     49 H          -1.1901    1.0737    0.8338 H       1  UNL1        0.0618
     50 H           0.7265    0.0714    0.0484 H       1  UNL1        0.1499
     51 H           0.6303   -0.9785   -4.4910 H       1  UNL1        0.0627
     52 H           2.5778   -2.0810   -5.4780 H       1  UNL1        0.0633
     53 H           4.4680   -2.6007   -4.0704 H       1  UNL1        0.0831
     54 H           3.9557    0.9246    1.0555 H       1  UNL1        0.0655
     55 H           5.8112    0.3848    2.5891 H       1  UNL1        0.0624
     56 H           5.3514   -3.7377    1.6778 H       1  UNL1        0.0639
     57 H          -4.2910    2.8155    0.0612 H       1  UNL1        0.0477
     58 H          -2.9359    2.4472    1.2798 H       1  UNL1        0.0477
     59 H          -2.4006    4.8489    1.1781 H       1  UNL1        0.0442
     60 H          -4.0401    4.4450    1.9184 H       1  UNL1        0.0442
     61 H          -3.0486    6.7871    1.1507 H       1  UNL1        0.0391
     62 H          -4.6014    7.3268    0.3662 H       1  UNL1        0.0391
     63 H          -3.0946    7.0717   -0.6582 H       1  UNL1        0.0391
     64 H          -3.8110    5.7782   -2.0565 H       1  UNL1        0.0442
     65 H          -4.3961    4.0861   -1.6290 H       1  UNL1        0.0442
     66 H          -2.0860    4.2521   -2.4677 H       1  UNL1        0.0477
     67 H          -1.6311    5.1248   -0.9260 H       1  UNL1        0.0477
@<TRIPOS>BOND
     1     1     2    1
     2     2     3   ar
     3     3     4   ar
     4     4     5   ar
     5     5     6    1
     6     6     7    1
     7     7     8    1
     8     8     9    1
     9     9    10    1
    10    10    11   am
    11    11    12    2
    12    11    13    1
    13    13    14   ar
    14    14    15   ar
    15    15    16   ar
    16    16    17   ar
    17    17    18   ar
    18    18    19    1
    19    19    20    1
    20    20    21   ar
    21    21    22   ar
    22    22    23   ar
    23    23    24    1
    24    24    25    1
    25    24    26    1
    26    24    27    1
    27    23    28   ar
    28    28    29   ar
    29    29    30    1
    30     9    31    1
    31    31    32    2
    32    31    33   am
    33    33    34    1
    34    34    35    1
    35    35    36    1
    36    36    37    1
    37    36    38    1
    38    38    39    1
    39     5    40   ar
    40    40     2   ar
    41    18    13   ar
    42    29    20   ar
    43    39    33    1
    44     1    41    1
    45     1    42    1
    46     1    43    1
    47     4    44    1
    48     6    45    1
    49     6    46    1
    50     8    47    1
    51     8    48    1
    52     9    49    1
    53    10    50    1
    54    14    51    1
    55    15    52    1
    56    16    53    1
    57    21    54    1
    58    22    55    1
    59    28    56    1
    60    34    57    1
    61    34    58    1
    62    35    59    1
    63    35    60    1
    64    37    61    1
    65    37    62    1
    66    37    63    1
    67    38    64    1
    68    38    65    1
    69    39    66    1
    70    39    67    1
