@<TRIPOS>MOLECULE
*****
 53 55 0 0 0
SMALL
GASTEIGER

@<TRIPOS>ATOM
      1 C           0.4990    2.7795   -1.3863 C.2     1  UNL1       -0.0951
      2 C          -0.7696    2.8331   -1.0654 C.2     1  UNL1       -0.0472
      3 C          -1.3415    4.2243   -0.8987 C.3     1  UNL1       -0.0396
      4 C          -1.6623    1.7309   -0.7935 C.ar    1  UNL1        0.0166
      5 C          -3.0490    1.9825   -0.8024 C.ar    1  UNL1        0.0374
      6 N          -3.9409    1.0195   -0.5889 N.ar    1  UNL1       -0.2542
      7 C          -3.6212   -0.2869   -0.3433 C.ar    1  UNL1        0.0755
      8 C          -4.7103   -1.2343   -0.1332 C.ar    1  UNL1        0.0369
      9 C          -6.0314   -0.7629   -0.1943 C.ar    1  UNL1       -0.0314
     10 C          -7.0995   -1.6120   -0.0051 C.ar    1  UNL1        0.0418
     11 CL         -8.7458   -1.0240   -0.0813 Cl      1  UNL1       -0.0835
     12 C          -6.9266   -2.9542    0.2511 C.ar    1  UNL1       -0.0406
     13 C          -5.6394   -3.4201    0.3119 C.ar    1  UNL1       -0.0244
     14 C          -4.5380   -2.5618    0.1202 C.ar    1  UNL1        0.1326
     15 F          -3.3133   -3.1057    0.1978 F       1  UNL1       -0.2048
     16 C          -2.2943   -0.5692   -0.3233 C.ar    1  UNL1       -0.0138
     17 C          -1.3263    0.4341   -0.5442 C.ar    1  UNL1        0.0423
     18 N           0.0519    0.0528   -0.4528 N.pl3   1  UNL1       -0.3133
     19 C           0.8119    0.5364    0.6411 C.ar    1  UNL1        0.0465
     20 C           0.1842    1.3264    1.6169 C.ar    1  UNL1       -0.0217
     21 C           0.8423    1.8390    2.7035 C.ar    1  UNL1        0.0293
     22 N           2.1479    1.5620    2.8234 N.ar    1  UNL1       -0.2624
     23 C           2.7949    0.8019    1.9031 C.ar    1  UNL1        0.0415
     24 C           2.1492    0.2738    0.7972 C.ar    1  UNL1        0.0759
     25 C           2.9031   -0.5189   -0.1366 C.2     1  UNL1        0.2492
     26 O           2.4251   -1.0383   -1.1756 O.2     1  UNL1       -0.2700
     27 N           4.3053   -0.7965    0.0368 N.am    1  UNL1       -0.2861
     28 C           5.0489   -1.6100   -0.9349 C.3     1  UNL1        0.1213
     29 O           6.0810   -0.8161   -1.4270 O.3     1  UNL1       -0.3744
     30 C           5.5835   -2.8361   -0.2207 C.3     1  UNL1       -0.0129
     31 C           6.4937   -2.3430    0.8938 C.3     1  UNL1       -0.0614
     32 H           1.0422    3.7368   -1.5031 H       1  UNL1        0.0538
     33 H           1.0900    1.9069   -1.5935 H       1  UNL1        0.0538
     34 H          -0.5471    4.9595   -0.7695 H       1  UNL1        0.0278
     35 H          -1.9315    4.4405   -1.8066 H       1  UNL1        0.0278
     36 H          -2.0465    4.2065   -0.0168 H       1  UNL1        0.0278
     37 H          -3.3722    3.0103   -0.9957 H       1  UNL1        0.0836
     38 H          -6.1817    0.2811   -0.3932 H       1  UNL1        0.0639
     39 H          -7.7670   -3.6133    0.3980 H       1  UNL1        0.0633
     40 H          -5.4639   -4.4853    0.5144 H       1  UNL1        0.0647
     41 H          -1.9422   -1.5655   -0.1387 H       1  UNL1        0.0658
     42 H           0.3995   -0.5483   -1.1843 H       1  UNL1        0.1522
     43 H          -0.8699    1.5427    1.5160 H       1  UNL1        0.0651
     44 H           0.3642    2.4465    3.4555 H       1  UNL1        0.0830
     45 H           3.8403    0.6545    2.1162 H       1  UNL1        0.0838
     46 H           4.8024   -0.4317    0.8380 H       1  UNL1        0.1515
     47 H           4.4154   -1.9520   -1.7599 H       1  UNL1        0.0805
     48 H           5.8012   -0.2823   -2.2109 H       1  UNL1        0.2117
     49 H           6.1998   -3.4596   -0.8912 H       1  UNL1        0.0304
     50 H           4.7470   -3.4496    0.1560 H       1  UNL1        0.0304
     51 H           7.2987   -3.0726    1.1283 H       1  UNL1        0.0231
     52 H           5.8797   -2.1679    1.7802 H       1  UNL1        0.0231
     53 H           6.9294   -1.3835    0.5713 H       1  UNL1        0.0231
@<TRIPOS>BOND
     1     1     2    2
     2     2     3    1
     3     2     4    1
     4     4     5   ar
     5     5     6   ar
     6     6     7   ar
     7     7     8    1
     8     8     9   ar
     9     9    10   ar
    10    10    11    1
    11    10    12   ar
    12    12    13   ar
    13    13    14   ar
    14    14    15    1
    15     7    16   ar
    16    16    17   ar
    17    17    18    1
    18    18    19    1
    19    19    20   ar
    20    20    21   ar
    21    21    22   ar
    22    22    23   ar
    23    23    24   ar
    24    24    25    1
    25    25    26    2
    26    25    27   am
    27    27    28    1
    28    28    29    1
    29    28    30    1
    30    30    31    1
    31    17     4   ar
    32    24    19   ar
    33    14     8   ar
    34     1    32    1
    35     1    33    1
    36     3    34    1
    37     3    35    1
    38     3    36    1
    39     5    37    1
    40     9    38    1
    41    12    39    1
    42    13    40    1
    43    16    41    1
    44    18    42    1
    45    20    43    1
    46    21    44    1
    47    23    45    1
    48    27    46    1
    49    28    47    1
    50    29    48    1
    51    30    49    1
    52    30    50    1
    53    31    51    1
    54    31    52    1
    55    31    53    1
