
     RDKit          3D

 53 55  0  0  0  0  0  0  0  0999 V2000
    0.4990    2.7795   -1.3863 C   0  0  0  0  0  0  0  0  0  0  0  0
   -0.7696    2.8331   -1.0654 C   0  0  0  0  0  0  0  0  0  0  0  0
   -1.3415    4.2243   -0.8987 C   0  0  0  0  0  0  0  0  0  0  0  0
   -1.6623    1.7309   -0.7935 C   0  0  0  0  0  0  0  0  0  0  0  0
   -3.0490    1.9825   -0.8024 C   0  0  0  0  0  0  0  0  0  0  0  0
   -3.9409    1.0195   -0.5889 N   0  0  0  0  0  0  0  0  0  0  0  0
   -3.6212   -0.2869   -0.3433 C   0  0  0  0  0  0  0  0  0  0  0  0
   -4.7103   -1.2343   -0.1332 C   0  0  0  0  0  0  0  0  0  0  0  0
   -6.0314   -0.7629   -0.1943 C   0  0  0  0  0  0  0  0  0  0  0  0
   -7.0995   -1.6120   -0.0051 C   0  0  0  0  0  0  0  0  0  0  0  0
   -8.7458   -1.0240   -0.0813 Cl  0  0  0  0  0  0  0  0  0  0  0  0
   -6.9266   -2.9542    0.2511 C   0  0  0  0  0  0  0  0  0  0  0  0
   -5.6394   -3.4201    0.3119 C   0  0  0  0  0  0  0  0  0  0  0  0
   -4.5380   -2.5618    0.1202 C   0  0  0  0  0  0  0  0  0  0  0  0
   -3.3133   -3.1057    0.1978 F   0  0  0  0  0  0  0  0  0  0  0  0
   -2.2943   -0.5692   -0.3233 C   0  0  0  0  0  0  0  0  0  0  0  0
   -1.3263    0.4341   -0.5442 C   0  0  0  0  0  0  0  0  0  0  0  0
    0.0519    0.0528   -0.4528 N   0  0  0  0  0  0  0  0  0  0  0  0
    0.8119    0.5364    0.6411 C   0  0  0  0  0  0  0  0  0  0  0  0
    0.1842    1.3264    1.6169 C   0  0  0  0  0  0  0  0  0  0  0  0
    0.8423    1.8390    2.7035 C   0  0  0  0  0  0  0  0  0  0  0  0
    2.1479    1.5620    2.8234 N   0  0  0  0  0  0  0  0  0  0  0  0
    2.7949    0.8019    1.9031 C   0  0  0  0  0  0  0  0  0  0  0  0
    2.1492    0.2738    0.7972 C   0  0  0  0  0  0  0  0  0  0  0  0
    2.9031   -0.5189   -0.1366 C   0  0  0  0  0  0  0  0  0  0  0  0
    2.4251   -1.0383   -1.1756 O   0  0  0  0  0  0  0  0  0  0  0  0
    4.3053   -0.7965    0.0368 N   0  0  0  0  0  0  0  0  0  0  0  0
    5.0489   -1.6100   -0.9349 C   0  0  1  0  0  0  0  0  0  0  0  0
    6.0810   -0.8161   -1.4270 O   0  0  0  0  0  0  0  0  0  0  0  0
    5.5835   -2.8361   -0.2207 C   0  0  0  0  0  0  0  0  0  0  0  0
    6.4937   -2.3430    0.8938 C   0  0  0  0  0  0  0  0  0  0  0  0
    1.0422    3.7368   -1.5031 H   0  0  0  0  0  0  0  0  0  0  0  0
    1.0900    1.9069   -1.5935 H   0  0  0  0  0  0  0  0  0  0  0  0
   -0.5471    4.9595   -0.7695 H   0  0  0  0  0  0  0  0  0  0  0  0
   -1.9315    4.4405   -1.8066 H   0  0  0  0  0  0  0  0  0  0  0  0
   -2.0465    4.2065   -0.0168 H   0  0  0  0  0  0  0  0  0  0  0  0
   -3.3722    3.0103   -0.9957 H   0  0  0  0  0  0  0  0  0  0  0  0
   -6.1817    0.2811   -0.3932 H   0  0  0  0  0  0  0  0  0  0  0  0
   -7.7670   -3.6133    0.3980 H   0  0  0  0  0  0  0  0  0  0  0  0
   -5.4639   -4.4853    0.5144 H   0  0  0  0  0  0  0  0  0  0  0  0
   -1.9422   -1.5655   -0.1387 H   0  0  0  0  0  0  0  0  0  0  0  0
    0.3995   -0.5483   -1.1843 H   0  0  0  0  0  0  0  0  0  0  0  0
   -0.8699    1.5427    1.5160 H   0  0  0  0  0  0  0  0  0  0  0  0
    0.3642    2.4465    3.4555 H   0  0  0  0  0  0  0  0  0  0  0  0
    3.8403    0.6545    2.1162 H   0  0  0  0  0  0  0  0  0  0  0  0
    4.8024   -0.4317    0.8380 H   0  0  0  0  0  0  0  0  0  0  0  0
    4.4154   -1.9520   -1.7599 H   0  0  0  0  0  0  0  0  0  0  0  0
    5.8012   -0.2823   -2.2109 H   0  0  0  0  0  0  0  0  0  0  0  0
    6.1998   -3.4596   -0.8912 H   0  0  0  0  0  0  0  0  0  0  0  0
    4.7470   -3.4496    0.1560 H   0  0  0  0  0  0  0  0  0  0  0  0
    7.2987   -3.0726    1.1283 H   0  0  0  0  0  0  0  0  0  0  0  0
    5.8797   -2.1679    1.7802 H   0  0  0  0  0  0  0  0  0  0  0  0
    6.9294   -1.3835    0.5713 H   0  0  0  0  0  0  0  0  0  0  0  0
  1  2  2  3
  2  3  1  0
  2  4  1  0
  4  5  2  0
  5  6  1  0
  6  7  2  0
  7  8  1  0
  8  9  2  0
  9 10  1  0
 10 11  1  0
 10 12  2  0
 12 13  1  0
 13 14  2  0
 14 15  1  0
  7 16  1  0
 16 17  2  0
 17 18  1  0
 18 19  1  0
 19 20  2  0
 20 21  1  0
 21 22  2  0
 22 23  1  0
 23 24  2  0
 24 25  1  0
 25 26  2  0
 25 27  1  0
 27 28  1  0
 28 29  1  0
 28 30  1  0
 30 31  1  0
 17  4  1  0
 24 19  1  0
 14  8  1  0
  1 32  1  0
  1 33  1  0
  3 34  1  0
  3 35  1  0
  3 36  1  0
  5 37  1  0
  9 38  1  0
 12 39  1  0
 13 40  1  0
 16 41  1  0
 18 42  1  0
 20 43  1  0
 21 44  1  0
 23 45  1  0
 27 46  1  0
 28 47  1  6
 29 48  1  0
 30 49  1  0
 30 50  1  0
 31 51  1  0
 31 52  1  0
 31 53  1  0
M  END
$$$$
