@<TRIPOS>MOLECULE
*****
 5 4 0 0 0
SMALL
GASTEIGER

@<TRIPOS>ATOM
      1 O          -2.2407   -0.9176   -0.5193 O.2     1  UNL1        0.0000
      2 AS         -1.4276    0.2277   -0.0076 As      1  UNL1        0.0000
      3 O          -0.1263    1.3562    0.0730 O.3     1  UNL1        0.0000
      4 AS          1.3046   -0.4299    0.9313 As      1  UNL1        0.0000
      5 O           2.4900   -0.2363   -0.7041 O.2     1  UNL1        0.0000
@<TRIPOS>BOND
     1     1     2    2
     2     2     3    1
     3     3     4    1
     4     4     5    2
