@<TRIPOS>MOLECULE
*****
 49 52 0 0 0
SMALL
GASTEIGER

@<TRIPOS>ATOM
      1 C          -6.6625    2.6520   -0.8229 C.3     1  UNL1        0.0788
      2 O          -5.4677    2.0713   -0.2141 O.3     1  UNL1       -0.4943
      3 C          -5.1493    0.7959   -0.5329 C.ar    1  UNL1        0.1343
      4 C          -3.9907    1.0418    0.3744 C.ar    1  UNL1        0.0781
      5 C          -2.8882    0.2053    0.7807 C.ar    1  UNL1       -0.0333
      6 C          -2.9782   -1.0364    0.1940 C.ar    1  UNL1        0.0436
      7 C          -2.1418   -2.0856    0.4274 C.ar    1  UNL1        0.1390
      8 O          -0.9712   -2.0131    1.2628 O.3     1  UNL1       -0.4553
      9 C           0.2328   -1.6997    0.6279 C.ar    1  UNL1        0.1300
     10 C           1.3900   -1.6413    1.3424 C.ar    1  UNL1        0.0008
     11 C           2.6460   -1.3412    0.7496 C.ar    1  UNL1        0.0656
     12 CL          4.1230   -1.3018    1.6628 Cl      1  UNL1       -0.0815
     13 C           2.7298   -1.0861   -0.5981 C.ar    1  UNL1        0.0535
     14 N           3.9506   -0.8940   -1.3153 N.pl3   1  UNL1       -0.2683
     15 C           5.2930   -0.7424   -0.8511 C.2     1  UNL1        0.2800
     16 O           6.2850   -1.7166   -1.0161 O.2     1  UNL1       -0.4815
     17 N           5.3233    0.4140   -0.2957 N.2     1  UNL1       -0.2334
     18 C           6.5522    0.8980    0.2556 C.3     1  UNL1        0.0559
     19 C           6.7141    2.4048    0.1133 C.3     1  UNL1       -0.0285
     20 C           6.5730    1.7467    1.4821 C.3     1  UNL1       -0.0285
     21 C           1.5802   -1.1165   -1.3790 C.ar    1  UNL1       -0.0355
     22 C           0.4112   -1.4243   -0.7085 C.ar    1  UNL1       -0.0175
     23 C          -2.1860   -3.3621   -0.0432 C.ar    1  UNL1       -0.0006
     24 C          -3.2554   -3.6220   -0.9054 C.ar    1  UNL1        0.0318
     25 N          -4.1718   -2.6270   -1.2216 N.ar    1  UNL1       -0.2546
     26 C          -3.9429   -1.4231   -0.6328 C.ar    1  UNL1        0.0780
     27 C          -4.8319   -0.4493   -0.8397 C.ar    1  UNL1        0.0069
     28 C          -3.7435    2.2238    1.3111 C.2     1  UNL1        0.2159
     29 O          -3.0542    2.8600    2.2970 O.2     1  UNL1       -0.4923
     30 N          -4.2505    3.3516    1.5895 N.2     1  UNL1       -0.2667
     31 H          -7.3753    2.8001   -0.0419 H       1  UNL1        0.0660
     32 H          -6.3481    3.7023   -1.1698 H       1  UNL1        0.0660
     33 H          -6.9926    2.0926   -1.6824 H       1  UNL1        0.0660
     34 H          -2.0112    0.2664    1.4174 H       1  UNL1        0.0634
     35 H           1.4417   -1.8270    2.4331 H       1  UNL1        0.0669
     36 H           3.9363   -0.9084   -2.3865 H       1  UNL1        0.1565
     37 H           7.0148   -1.7490   -0.3216 H       1  UNL1        0.2951
     38 H           7.4858    0.2841    0.0577 H       1  UNL1        0.0546
     39 H           5.8441    2.9678   -0.3051 H       1  UNL1        0.0286
     40 H           7.7080    2.7949   -0.1254 H       1  UNL1        0.0286
     41 H           5.5966    1.8850    2.0034 H       1  UNL1        0.0286
     42 H           7.4830    1.7274    2.1066 H       1  UNL1        0.0286
     43 H           1.5763   -0.9088   -2.4393 H       1  UNL1        0.0638
     44 H          -0.4663   -1.4168   -1.3058 H       1  UNL1        0.0655
     45 H          -1.5620   -4.1957    0.1117 H       1  UNL1        0.0670
     46 H          -3.4890   -4.5407   -1.3758 H       1  UNL1        0.0831
     47 H          -5.7489   -0.5028   -1.5050 H       1  UNL1        0.0676
     48 H          -3.1419    2.6243    3.3257 H       1  UNL1        0.2937
     49 H          -5.0694    3.8214    1.2084 H       1  UNL1        0.1899
@<TRIPOS>BOND
     1     1     2    1
     2     2     3    1
     3     3     4   ar
     4     4     5   ar
     5     5     6   ar
     6     6     7   ar
     7     7     8    1
     8     8     9    1
     9     9    10   ar
    10    10    11   ar
    11    11    12    1
    12    11    13   ar
    13    13    14    1
    14    14    15    1
    15    15    16    1
    16    15    17    2
    17    17    18    1
    18    18    19    1
    19    19    20    1
    20    13    21   ar
    21    21    22   ar
    22     7    23   ar
    23    23    24   ar
    24    24    25   ar
    25    25    26   ar
    26    26    27   ar
    27     4    28    1
    28    28    29    1
    29    28    30    2
    30    27     3   ar
    31    26     6   ar
    32    22     9   ar
    33    20    18    1
    34     1    31    1
    35     1    32    1
    36     1    33    1
    37     5    34    1
    38    10    35    1
    39    14    36    1
    40    16    37    1
    41    18    38    1
    42    19    39    1
    43    19    40    1
    44    20    41    1
    45    20    42    1
    46    21    43    1
    47    22    44    1
    48    23    45    1
    49    24    46    1
    50    27    47    1
    51    29    48    1
    52    30    49    1
