@<TRIPOS>MOLECULE
*****
 48 51 0 0 0
SMALL
GASTEIGER

@<TRIPOS>ATOM
      1 C           9.7515    2.7050    0.1190 C.1     1  UNL1       -0.1158
      2 C           8.6887    3.1507    0.5042 C.1     1  UNL1       -0.0648
      3 C           7.4168    3.6773    0.9384 C.3     1  UNL1        0.1497
      4 O           6.2948    3.1065    0.6534 O.3     1  UNL1       -0.4780
      5 C           5.1892    2.5377    0.2819 C.ar    1  UNL1        0.1399
      6 C           4.9327    2.2894   -1.1497 C.ar    1  UNL1       -0.0162
      7 C           3.7376    1.6890   -1.4274 C.ar    1  UNL1       -0.0277
      8 C           2.7709    1.2928   -0.5598 C.ar    1  UNL1        0.1259
      9 C           1.6185    0.4915   -0.9265 C.2     1  UNL1        0.2666
     10 O           1.3826    0.3547   -2.2317 O.2     1  UNL1       -0.2682
     11 N           0.8312   -0.1220    0.0159 N.am    1  UNL1       -0.2802
     12 C          -0.2743   -1.0265   -0.2998 C.ar    1  UNL1        0.0342
     13 C           0.1648   -2.3120   -0.4507 C.ar    1  UNL1       -0.0377
     14 C          -0.6959   -3.3622   -0.6554 C.ar    1  UNL1       -0.0243
     15 C          -2.0768   -3.0287   -0.7162 C.ar    1  UNL1        0.1291
     16 F          -2.8964   -4.1083   -0.9270 F       1  UNL1       -0.2051
     17 C          -2.5198   -1.7405   -0.5681 C.ar    1  UNL1        0.0198
     18 C          -3.9593   -1.4608   -0.4616 C.3     1  UNL1        0.1284
     19 C          -4.7941   -2.1458   -1.5600 C.3     1  UNL1        0.1199
     20 F          -4.4418   -1.7318   -2.8206 F       1  UNL1       -0.2462
     21 N          -4.3855   -2.1584    0.7738 N.2     1  UNL1       -0.2225
     22 C          -4.6631   -1.5500    1.8462 C.2     1  UNL1        0.2763
     23 N          -5.0688   -2.1903    3.0353 N.pl3   1  UNL1       -0.3134
     24 O          -4.5823   -0.1587    1.8892 O.2     1  UNL1       -0.4622
     25 C          -4.7308    0.6054    0.7335 C.3     1  UNL1        0.1090
     26 C          -5.8301    0.2139   -0.2284 C.3     1  UNL1       -0.0065
     27 C          -4.3098   -0.0238   -0.5151 C.3     1  UNL1        0.0315
     28 C          -1.5888   -0.7007   -0.3538 C.ar    1  UNL1       -0.0322
     29 N           3.0282    1.5388    0.7953 N.ar    1  UNL1       -0.2467
     30 C           4.2115    2.1333    1.0755 C.ar    1  UNL1        0.0701
     31 H          10.7029    2.3204   -0.2275 H       1  UNL1        0.1229
     32 H           7.4348    4.8306    0.8528 H       1  UNL1        0.0837
     33 H           7.5529    3.6078    2.1309 H       1  UNL1        0.0837
     34 H           5.6901    2.6017   -1.8157 H       1  UNL1        0.0655
     35 H           3.5039    1.5093   -2.5175 H       1  UNL1        0.0641
     36 H           0.9932    0.0281    1.0682 H       1  UNL1        0.1552
     37 H           1.2530   -2.5335   -0.4067 H       1  UNL1        0.0637
     38 H          -0.4161   -4.3912   -0.7522 H       1  UNL1        0.0647
     39 H          -5.8501   -1.8990   -1.3717 H       1  UNL1        0.0643
     40 H          -4.7379   -3.2566   -1.4110 H       1  UNL1        0.0643
     41 H          -4.9138   -3.2386    3.0964 H       1  UNL1        0.1466
     42 H          -5.5123   -1.7329    3.8551 H       1  UNL1        0.1466
     43 H          -4.6806    1.7004    0.8487 H       1  UNL1        0.0737
     44 H          -6.3423    0.9820   -0.8106 H       1  UNL1        0.0306
     45 H          -6.4271   -0.6466    0.0944 H       1  UNL1        0.0306
     46 H          -3.9835    0.5426   -1.4352 H       1  UNL1        0.0365
     47 H          -1.8667    0.3166   -0.2091 H       1  UNL1        0.0640
     48 H           4.3985    2.2919    2.2010 H       1  UNL1        0.0867
@<TRIPOS>BOND
     1     1     2    3
     2     2     3    1
     3     3     4    1
     4     4     5    1
     5     5     6   ar
     6     6     7   ar
     7     7     8   ar
     8     8     9    1
     9     9    10    2
    10     9    11   am
    11    11    12    1
    12    12    13   ar
    13    13    14   ar
    14    14    15   ar
    15    15    16    1
    16    15    17   ar
    17    17    18    1
    18    18    19    1
    19    19    20    1
    20    18    21    1
    21    21    22    2
    22    22    23    1
    23    22    24    1
    24    24    25    1
    25    25    26    1
    26    26    27    1
    27    17    28   ar
    28     8    29   ar
    29    29    30   ar
    30    30     5   ar
    31    28    12   ar
    32    27    18    1
    33    27    25    1
    34     1    31    1
    35     3    32    1
    36     3    33    1
    37     6    34    1
    38     7    35    1
    39    11    36    1
    40    13    37    1
    41    14    38    1
    42    19    39    1
    43    19    40    1
    44    23    41    1
    45    23    42    1
    46    25    43    1
    47    26    44    1
    48    26    45    1
    49    27    46    1
    50    28    47    1
    51    30    48    1
