@<TRIPOS>MOLECULE
*****
 45 47 0 0 0
SMALL
GASTEIGER

@<TRIPOS>ATOM
      1 C           2.6090    3.0873    0.2783 C.3     1  UNL1       -0.0212
      2 C           2.0610    1.6831    0.3562 C.ar    1  UNL1        0.0552
      3 N           0.8003    1.4377    0.6454 N.ar    1  UNL1       -0.2292
      4 C           0.2323    0.4393    0.7427 C.ar    1  UNL1        0.1651
      5 N          -1.0682   -0.1637    1.0280 N.am    1  UNL1       -0.2642
      6 C          -1.9968   -0.4212   -0.0071 C.2     1  UNL1        0.2245
      7 O          -1.7092   -0.1315   -1.1889 O.2     1  UNL1       -0.2748
      8 C          -3.2898   -1.0245    0.3036 C.3     1  UNL1        0.0445
      9 C          -2.9744   -2.3937    0.9351 C.3     1  UNL1       -0.0512
     10 C          -4.1176   -1.3429   -0.9192 C.3     1  UNL1       -0.0393
     11 C          -4.6478   -0.0446   -1.4781 C.3     1  UNL1       -0.0521
     12 C          -5.6121    0.5236   -0.4553 C.3     1  UNL1       -0.0530
     13 C          -4.9170    0.8303    0.8503 C.3     1  UNL1       -0.0521
     14 C          -4.0707   -0.2820    1.3501 C.3     1  UNL1       -0.0393
     15 S           1.6429   -0.7627    0.3642 S.2     1  UNL1       -0.0517
     16 C           2.8305    0.5826    0.1332 C.ar    1  UNL1        0.0450
     17 C           4.2223    0.3502   -0.2050 C.ar    1  UNL1        0.0087
     18 C           4.6529   -0.9774   -0.3596 C.ar    1  UNL1       -0.0488
     19 C           5.9574   -1.2805   -0.6796 C.ar    1  UNL1       -0.0215
     20 C           6.9020   -0.2985   -0.8634 C.ar    1  UNL1        0.1161
     21 N           8.2553   -0.6131   -1.1954 N.pl3   1  UNL1       -0.3431
     22 N           6.4882    0.9641   -0.7154 N.ar    1  UNL1       -0.2401
     23 C           5.1926    1.2887   -0.3966 C.ar    1  UNL1        0.0379
     24 H           1.7919    3.8438    0.4931 H       1  UNL1        0.0293
     25 H           2.9618    3.3471   -0.7282 H       1  UNL1        0.0293
     26 H           3.3711    3.2946    1.0217 H       1  UNL1        0.0293
     27 H          -1.3434   -0.4187    2.0002 H       1  UNL1        0.1567
     28 H          -2.3194   -2.2026    1.7926 H       1  UNL1        0.0240
     29 H          -3.9087   -2.9354    1.1869 H       1  UNL1        0.0240
     30 H          -2.3791   -2.9361    0.1713 H       1  UNL1        0.0240
     31 H          -3.5134   -1.9053   -1.6412 H       1  UNL1        0.0275
     32 H          -4.9914   -1.9537   -0.5459 H       1  UNL1        0.0275
     33 H          -3.8408    0.6791   -1.6390 H       1  UNL1        0.0266
     34 H          -5.2484   -0.2388   -2.3930 H       1  UNL1        0.0266
     35 H          -5.9989    1.4944   -0.8613 H       1  UNL1        0.0265
     36 H          -6.4684   -0.1594   -0.3448 H       1  UNL1        0.0265
     37 H          -5.7272    1.0162    1.6020 H       1  UNL1        0.0266
     38 H          -4.3878    1.8007    0.7332 H       1  UNL1        0.0266
     39 H          -4.7418   -1.0360    1.8577 H       1  UNL1        0.0275
     40 H          -3.3816    0.0834    2.1209 H       1  UNL1        0.0275
     41 H           3.9296   -1.7605   -0.2201 H       1  UNL1        0.0625
     42 H           6.2822   -2.3142   -0.7975 H       1  UNL1        0.0652
     43 H           8.5053   -1.4962   -1.6917 H       1  UNL1        0.1437
     44 H           9.0436    0.0289   -0.9536 H       1  UNL1        0.1437
     45 H           4.9219    2.3180   -0.2914 H       1  UNL1        0.0836
@<TRIPOS>BOND
     1     1     2    1
     2     2     3   ar
     3     3     4   ar
     4     4     5    1
     5     5     6   am
     6     6     7    2
     7     6     8    1
     8     8     9    1
     9     8    10    1
    10    10    11    1
    11    11    12    1
    12    12    13    1
    13    13    14    1
    14     4    15   ar
    15    15    16   ar
    16    16    17    1
    17    17    18   ar
    18    18    19   ar
    19    19    20   ar
    20    20    21    1
    21    20    22   ar
    22    22    23   ar
    23    16     2   ar
    24    23    17   ar
    25    14     8    1
    26     1    24    1
    27     1    25    1
    28     1    26    1
    29     5    27    1
    30     9    28    1
    31     9    29    1
    32     9    30    1
    33    10    31    1
    34    10    32    1
    35    11    33    1
    36    11    34    1
    37    12    35    1
    38    12    36    1
    39    13    37    1
    40    13    38    1
    41    14    39    1
    42    14    40    1
    43    18    41    1
    44    19    42    1
    45    21    43    1
    46    21    44    1
    47    23    45    1
