
     RDKit          3D

 45 47  0  0  0  0  0  0  0  0999 V2000
    2.6090    3.0873    0.2783 C   0  0  0  0  0  0  0  0  0  0  0  0
    2.0610    1.6831    0.3562 C   0  0  0  0  0  0  0  0  0  0  0  0
    0.8003    1.4377    0.6454 N   0  0  0  0  0  0  0  0  0  0  0  0
    0.2323    0.4393    0.7427 C   0  0  0  0  0  0  0  0  0  0  0  0
   -1.0682   -0.1637    1.0280 N   0  0  0  0  0  0  0  0  0  0  0  0
   -1.9968   -0.4212   -0.0071 C   0  0  0  0  0  0  0  0  0  0  0  0
   -1.7092   -0.1315   -1.1889 O   0  0  0  0  0  0  0  0  0  0  0  0
   -3.2898   -1.0245    0.3036 C   0  0  0  0  0  0  0  0  0  0  0  0
   -2.9744   -2.3937    0.9351 C   0  0  0  0  0  0  0  0  0  0  0  0
   -4.1176   -1.3429   -0.9192 C   0  0  0  0  0  0  0  0  0  0  0  0
   -4.6478   -0.0446   -1.4781 C   0  0  0  0  0  0  0  0  0  0  0  0
   -5.6121    0.5236   -0.4553 C   0  0  0  0  0  0  0  0  0  0  0  0
   -4.9170    0.8303    0.8503 C   0  0  0  0  0  0  0  0  0  0  0  0
   -4.0707   -0.2820    1.3501 C   0  0  0  0  0  0  0  0  0  0  0  0
    1.6429   -0.7627    0.3642 S   0  0  0  0  0  0  0  0  0  0  0  0
    2.8305    0.5826    0.1332 C   0  0  0  0  0  0  0  0  0  0  0  0
    4.2223    0.3502   -0.2050 C   0  0  0  0  0  0  0  0  0  0  0  0
    4.6529   -0.9774   -0.3596 C   0  0  0  0  0  0  0  0  0  0  0  0
    5.9574   -1.2805   -0.6796 C   0  0  0  0  0  0  0  0  0  0  0  0
    6.9020   -0.2985   -0.8634 C   0  0  0  0  0  0  0  0  0  0  0  0
    8.2553   -0.6131   -1.1954 N   0  0  0  0  0  0  0  0  0  0  0  0
    6.4882    0.9641   -0.7154 N   0  0  0  0  0  0  0  0  0  0  0  0
    5.1926    1.2887   -0.3966 C   0  0  0  0  0  0  0  0  0  0  0  0
    1.7919    3.8438    0.4931 H   0  0  0  0  0  0  0  0  0  0  0  0
    2.9618    3.3471   -0.7282 H   0  0  0  0  0  0  0  0  0  0  0  0
    3.3711    3.2946    1.0217 H   0  0  0  0  0  0  0  0  0  0  0  0
   -1.3434   -0.4187    2.0002 H   0  0  0  0  0  0  0  0  0  0  0  0
   -2.3194   -2.2026    1.7926 H   0  0  0  0  0  0  0  0  0  0  0  0
   -3.9087   -2.9354    1.1869 H   0  0  0  0  0  0  0  0  0  0  0  0
   -2.3791   -2.9361    0.1713 H   0  0  0  0  0  0  0  0  0  0  0  0
   -3.5134   -1.9053   -1.6412 H   0  0  0  0  0  0  0  0  0  0  0  0
   -4.9914   -1.9537   -0.5459 H   0  0  0  0  0  0  0  0  0  0  0  0
   -3.8408    0.6791   -1.6390 H   0  0  0  0  0  0  0  0  0  0  0  0
   -5.2484   -0.2388   -2.3930 H   0  0  0  0  0  0  0  0  0  0  0  0
   -5.9989    1.4944   -0.8613 H   0  0  0  0  0  0  0  0  0  0  0  0
   -6.4684   -0.1594   -0.3448 H   0  0  0  0  0  0  0  0  0  0  0  0
   -5.7272    1.0162    1.6020 H   0  0  0  0  0  0  0  0  0  0  0  0
   -4.3878    1.8007    0.7332 H   0  0  0  0  0  0  0  0  0  0  0  0
   -4.7418   -1.0360    1.8577 H   0  0  0  0  0  0  0  0  0  0  0  0
   -3.3816    0.0834    2.1209 H   0  0  0  0  0  0  0  0  0  0  0  0
    3.9296   -1.7605   -0.2201 H   0  0  0  0  0  0  0  0  0  0  0  0
    6.2822   -2.3142   -0.7975 H   0  0  0  0  0  0  0  0  0  0  0  0
    8.5053   -1.4962   -1.6917 H   0  0  0  0  0  0  0  0  0  0  0  0
    9.0436    0.0289   -0.9536 H   0  0  0  0  0  0  0  0  0  0  0  0
    4.9219    2.3180   -0.2914 H   0  0  0  0  0  0  0  0  0  0  0  0
  1  2  1  0
  2  3  1  0
  3  4  2  0
  4  5  1  0
  5  6  1  0
  6  7  2  0
  6  8  1  0
  8  9  1  0
  8 10  1  0
 10 11  1  0
 11 12  1  0
 12 13  1  0
 13 14  1  0
  4 15  1  0
 15 16  1  0
 16 17  1  0
 17 18  2  0
 18 19  1  0
 19 20  2  0
 20 21  1  0
 20 22  1  0
 22 23  2  0
 16  2  2  0
 23 17  1  0
 14  8  1  0
  1 24  1  0
  1 25  1  0
  1 26  1  0
  5 27  1  0
  9 28  1  0
  9 29  1  0
  9 30  1  0
 10 31  1  0
 10 32  1  0
 11 33  1  0
 11 34  1  0
 12 35  1  0
 12 36  1  0
 13 37  1  0
 13 38  1  0
 14 39  1  0
 14 40  1  0
 18 41  1  0
 19 42  1  0
 21 43  1  0
 21 44  1  0
 23 45  1  0
M  END
$$$$
