@<TRIPOS>MOLECULE
*****
 61 64 0 0 0
SMALL
GASTEIGER

@<TRIPOS>ATOM
      1 C          -3.4252   -3.8761   -0.1816 C.3     1  UNL1       -0.0127
      2 N          -3.7086   -2.4574   -0.1509 N.3     1  UNL1       -0.3040
      3 C          -2.8847   -1.6876   -1.0186 C.3     1  UNL1        0.0062
      4 C          -2.5655   -0.3892   -0.3430 C.3     1  UNL1        0.0092
      5 C          -1.0826   -0.2727   -0.2768 C.ar    1  UNL1       -0.0423
      6 C          -0.2914   -1.2095    0.3623 C.ar    1  UNL1       -0.0577
      7 C           1.0912   -1.0637    0.4031 C.ar    1  UNL1       -0.0543
      8 C           1.7275    0.0074   -0.1840 C.ar    1  UNL1       -0.0249
      9 C           3.1730    0.1212   -0.1179 C.2     1  UNL1       -0.0497
     10 C           3.8992    1.0825   -0.6307 C.2     1  UNL1        0.0010
     11 C           5.3256    1.1489   -0.5377 C.2     1  UNL1        0.2411
     12 O           5.9365    2.1346   -1.0760 O.2     1  UNL1       -0.2705
     13 N           6.1017    0.1620    0.1308 N.am    1  UNL1       -0.2804
     14 C           7.5300    0.3535    0.1485 C.ar    1  UNL1        0.0545
     15 C           8.0739    1.0653    1.1931 C.ar    1  UNL1       -0.0387
     16 C           9.4557    1.2670    1.2369 C.ar    1  UNL1       -0.0599
     17 C          10.2719    0.7675    0.2575 C.ar    1  UNL1       -0.0599
     18 C           9.7053    0.0512   -0.7898 C.ar    1  UNL1       -0.0392
     19 C           8.3372   -0.1554   -0.8444 C.ar    1  UNL1        0.0461
     20 N           7.7468   -0.8921   -1.9200 N.pl3   1  UNL1       -0.3565
     21 C           0.9639    0.9354   -0.8153 C.ar    1  UNL1       -0.0543
     22 C          -0.4301    0.7926   -0.8590 C.ar    1  UNL1       -0.0577
     23 C          -3.2052   -0.4575    0.9926 C.3     1  UNL1        0.0565
     24 C          -4.4104    0.4347    0.9704 C.2     1  UNL1        0.2221
     25 O          -4.4815    1.3932    1.7700 O.2     1  UNL1       -0.2751
     26 N          -5.4693    0.2148    0.0633 N.am    1  UNL1       -0.2852
     27 C          -6.6303    1.0198   -0.0061 C.ar    1  UNL1        0.0335
     28 C          -7.7624    0.7422    0.7436 C.ar    1  UNL1       -0.0391
     29 C          -8.8883    1.5273    0.6730 C.ar    1  UNL1       -0.0416
     30 C          -8.8997    2.6186   -0.1609 C.ar    1  UNL1        0.0411
     31 CL        -10.3175    3.6099   -0.2518 Cl      1  UNL1       -0.0835
     32 C          -7.7810    2.9286   -0.9291 C.ar    1  UNL1       -0.0416
     33 C          -6.6483    2.1133   -0.8385 C.ar    1  UNL1       -0.0391
     34 C          -3.6218   -1.8938    1.1570 C.3     1  UNL1        0.0103
     35 H          -4.3976   -4.4040   -0.0843 H       1  UNL1        0.0391
     36 H          -2.7929   -4.1872    0.6499 H       1  UNL1        0.0391
     37 H          -3.0140   -4.1246   -1.1768 H       1  UNL1        0.0391
     38 H          -3.3564   -1.4742   -2.0056 H       1  UNL1        0.0433
     39 H          -1.9459   -2.2546   -1.2990 H       1  UNL1        0.0433
     40 H          -2.9176    0.4893   -0.9470 H       1  UNL1        0.0369
     41 H          -0.7824   -2.0568    0.8269 H       1  UNL1        0.0621
     42 H           1.6656   -1.8255    0.9165 H       1  UNL1        0.0624
     43 H           3.7601   -0.6594    0.4085 H       1  UNL1        0.0625
     44 H           3.3833    1.8719   -1.1556 H       1  UNL1        0.0670
     45 H           5.7062   -0.6721    0.5976 H       1  UNL1        0.1552
     46 H           7.4184    1.4480    1.9495 H       1  UNL1        0.0637
     47 H           9.8742    1.8327    2.0699 H       1  UNL1        0.0618
     48 H          11.3408    0.9087    0.2673 H       1  UNL1        0.0618
     49 H          10.3288   -0.3595   -1.5852 H       1  UNL1        0.0636
     50 H           8.2639   -0.9564   -2.8288 H       1  UNL1        0.1424
     51 H           6.8280   -1.3544   -1.8092 H       1  UNL1        0.1424
     52 H           1.4232    1.7843   -1.2849 H       1  UNL1        0.0624
     53 H          -0.9783    1.5809   -1.3859 H       1  UNL1        0.0621
     54 H          -2.5332   -0.1424    1.8262 H       1  UNL1        0.0413
     55 H          -5.4496   -0.5893   -0.6348 H       1  UNL1        0.1548
     56 H          -7.7388   -0.1243    1.3988 H       1  UNL1        0.0636
     57 H          -9.7526    1.2943    1.2616 H       1  UNL1        0.0633
     58 H          -7.8280    3.7917   -1.5705 H       1  UNL1        0.0633
     59 H          -5.8165    2.4105   -1.4609 H       1  UNL1        0.0636
     60 H          -2.9213   -2.4362    1.8176 H       1  UNL1        0.0434
     61 H          -4.6029   -1.9276    1.6833 H       1  UNL1        0.0434
@<TRIPOS>BOND
     1     1     2    1
     2     2     3    1
     3     3     4    1
     4     4     5    1
     5     5     6   ar
     6     6     7   ar
     7     7     8   ar
     8     8     9    1
     9     9    10    2
    10    10    11    1
    11    11    12    2
    12    11    13   am
    13    13    14    1
    14    14    15   ar
    15    15    16   ar
    16    16    17   ar
    17    17    18   ar
    18    18    19   ar
    19    19    20    1
    20     8    21   ar
    21    21    22   ar
    22     4    23    1
    23    23    24    1
    24    24    25    2
    25    24    26   am
    26    26    27    1
    27    27    28   ar
    28    28    29   ar
    29    29    30   ar
    30    30    31    1
    31    30    32   ar
    32    32    33   ar
    33    23    34    1
    34    34     2    1
    35    22     5   ar
    36    33    27   ar
    37    19    14   ar
    38     1    35    1
    39     1    36    1
    40     1    37    1
    41     3    38    1
    42     3    39    1
    43     4    40    1
    44     6    41    1
    45     7    42    1
    46     9    43    1
    47    10    44    1
    48    13    45    1
    49    15    46    1
    50    16    47    1
    51    17    48    1
    52    18    49    1
    53    20    50    1
    54    20    51    1
    55    21    52    1
    56    22    53    1
    57    23    54    1
    58    26    55    1
    59    28    56    1
    60    29    57    1
    61    32    58    1
    62    33    59    1
    63    34    60    1
    64    34    61    1
