@<TRIPOS>MOLECULE
*****
 33 35 0 0 0
SMALL
GASTEIGER

@<TRIPOS>ATOM
      1 O           7.7926   -0.1813    0.0071 O.2     1  UNL1       -0.2703
      2 C           6.5647   -0.2578   -0.1433 C.2     1  UNL1        0.2700
      3 C           5.8659    0.8368   -0.8710 C.3     1  UNL1        0.1685
      4 O           4.5555    0.9606   -0.3852 O.2     1  UNL1       -0.4656
      5 C           3.7811   -0.0878    0.0735 C.2     1  UNL1        0.2379
      6 C           2.3477    0.1076    0.1457 C.ar    1  UNL1        0.0379
      7 C           1.5705   -0.9297    0.6007 C.ar    1  UNL1       -0.0474
      8 C           0.2045   -0.7762    0.6815 C.ar    1  UNL1       -0.0338
      9 C          -0.4232    0.4116    0.3122 C.ar    1  UNL1        0.0862
     10 N          -1.8540    0.5378    0.4094 N.2     1  UNL1       -0.1493
     11 N          -2.6189   -0.3605   -0.1034 N.2     1  UNL1       -0.1492
     12 C          -4.0390   -0.2737   -0.0295 C.ar    1  UNL1        0.0889
     13 C          -4.7332   -0.9004    0.9742 C.ar    1  UNL1       -0.0344
     14 C          -6.1041   -0.7960    1.0158 C.ar    1  UNL1       -0.0570
     15 C          -6.8381   -0.0855    0.0915 C.ar    1  UNL1       -0.0263
     16 C          -6.1046    0.5341   -0.9073 C.ar    1  UNL1        0.1255
     17 F          -6.7922    1.2414   -1.8335 F       1  UNL1       -0.2054
     18 C          -4.7312    0.4443   -0.9705 C.ar    1  UNL1        0.0007
     19 C           0.3559    1.4482   -0.1427 C.ar    1  UNL1       -0.0338
     20 C           1.7423    1.2833   -0.2214 C.ar    1  UNL1       -0.0474
     21 N           4.3573   -1.1822    0.4140 N.2     1  UNL1       -0.1417
     22 N           5.7421   -1.3161    0.3241 N.am    1  UNL1       -0.2008
     23 H           5.7856    0.5700   -1.9538 H       1  UNL1        0.0796
     24 H           6.3658    1.8204   -0.7249 H       1  UNL1        0.0796
     25 H           2.0075   -1.8684    0.8985 H       1  UNL1        0.0626
     26 H          -0.4039   -1.5957    1.0404 H       1  UNL1        0.0639
     27 H          -4.1925   -1.4829    1.7405 H       1  UNL1        0.0639
     28 H          -6.6513   -1.3004    1.8219 H       1  UNL1        0.0619
     29 H          -7.9143   -0.0250    0.1551 H       1  UNL1        0.0646
     30 H          -4.1888    0.9481   -1.7751 H       1  UNL1        0.0668
     31 H          -0.0728    2.3905   -0.4426 H       1  UNL1        0.0639
     32 H           2.3738    2.0939   -0.5793 H       1  UNL1        0.0626
     33 H           6.2490   -2.2089    0.5983 H       1  UNL1        0.1775
@<TRIPOS>BOND
     1     1     2    2
     2     2     3    1
     3     3     4    1
     4     4     5    1
     5     5     6    1
     6     6     7   ar
     7     7     8   ar
     8     8     9   ar
     9     9    10    1
    10    10    11    2
    11    11    12    1
    12    12    13   ar
    13    13    14   ar
    14    14    15   ar
    15    15    16   ar
    16    16    17    1
    17    16    18   ar
    18     9    19   ar
    19    19    20   ar
    20     5    21    2
    21    21    22    1
    22    22     2   am
    23    20     6   ar
    24    18    12   ar
    25     3    23    1
    26     3    24    1
    27     7    25    1
    28     8    26    1
    29    13    27    1
    30    14    28    1
    31    15    29    1
    32    18    30    1
    33    19    31    1
    34    20    32    1
    35    22    33    1
