@<TRIPOS>MOLECULE
*****
 37 40 0 0 0
SMALL
GASTEIGER

@<TRIPOS>ATOM
      1 C          -2.8430   -2.1439   -1.0868 C.3     1  UNL1       -0.0122
      2 N          -2.3512   -1.3037   -0.0420 N.3     1  UNL1       -0.2978
      3 C          -3.2758   -0.3977    0.5062 C.3     1  UNL1        0.0032
      4 C          -3.1824    0.9937   -0.0776 C.3     1  UNL1       -0.0145
      5 C          -1.8050    1.4811    0.0009 C.ar    1  UNL1       -0.0409
      6 C          -1.5633    2.8240    0.0909 C.ar    1  UNL1       -0.0582
      7 C          -0.2831    3.3022    0.1661 C.ar    1  UNL1       -0.0609
      8 C           0.8081    2.4128    0.1539 C.ar    1  UNL1       -0.0536
      9 C           0.5429    1.0673    0.0646 C.ar    1  UNL1       -0.0091
     10 C          -0.7573    0.5727   -0.0163 C.ar    1  UNL1       -0.0189
     11 C          -0.9973   -0.8532   -0.2290 C.3     1  UNL1        0.0401
     12 C          -0.0051   -1.7739    0.3772 C.3     1  UNL1       -0.0072
     13 C           1.3642   -1.2294    0.2357 C.ar    1  UNL1       -0.0341
     14 C           2.4204   -2.1492    0.2391 C.ar    1  UNL1       -0.0543
     15 C           3.7022   -1.7143    0.1982 C.ar    1  UNL1       -0.0162
     16 C           3.9898   -0.3693    0.1527 C.ar    1  UNL1        0.1589
     17 O           5.3202    0.0049    0.1143 O.3     1  UNL1       -0.5033
     18 C           2.9530    0.5733    0.1464 C.ar    1  UNL1        0.1664
     19 O           3.3602    1.8729    0.0980 O.3     1  UNL1       -0.5029
     20 C           1.6678    0.1137    0.1869 C.ar    1  UNL1        0.0308
     21 H          -1.9622   -2.5356   -1.6598 H       1  UNL1        0.0391
     22 H          -3.4014   -3.0314   -0.7270 H       1  UNL1        0.0391
     23 H          -3.4780   -1.6189   -1.8279 H       1  UNL1        0.0391
     24 H          -4.3025   -0.7601    0.2903 H       1  UNL1        0.0430
     25 H          -3.2102   -0.3040    1.6090 H       1  UNL1        0.0430
     26 H          -3.8167    1.6528    0.5556 H       1  UNL1        0.0326
     27 H          -3.6207    1.0421   -1.1017 H       1  UNL1        0.0326
     28 H          -2.3909    3.5383    0.1041 H       1  UNL1        0.0620
     29 H          -0.0850    4.3664    0.2361 H       1  UNL1        0.0618
     30 H           1.7855    2.8415    0.2215 H       1  UNL1        0.0624
     31 H          -0.8426   -0.9856   -1.3653 H       1  UNL1        0.0515
     32 H          -0.2160   -2.0047    1.4517 H       1  UNL1        0.0332
     33 H          -0.0287   -2.7418   -0.1814 H       1  UNL1        0.0332
     34 H           2.1793   -3.2223    0.2754 H       1  UNL1        0.0622
     35 H           4.4939   -2.4757    0.2030 H       1  UNL1        0.0655
     36 H           5.6740    0.6966    0.7382 H       1  UNL1        0.2923
     37 H           4.1567    2.2585    0.5964 H       1  UNL1        0.2923
@<TRIPOS>BOND
     1     1     2    1
     2     2     3    1
     3     3     4    1
     4     4     5    1
     5     5     6   ar
     6     6     7   ar
     7     7     8   ar
     8     8     9   ar
     9     9    10   ar
    10    10    11    1
    11    11    12    1
    12    12    13    1
    13    13    14   ar
    14    14    15   ar
    15    15    16   ar
    16    16    17    1
    17    16    18   ar
    18    18    19    1
    19    18    20   ar
    20    11     2    1
    21    20    13   ar
    22    10     5   ar
    23    20     9    1
    24     1    21    1
    25     1    22    1
    26     1    23    1
    27     3    24    1
    28     3    25    1
    29     4    26    1
    30     4    27    1
    31     6    28    1
    32     7    29    1
    33     8    30    1
    34    11    31    1
    35    12    32    1
    36    12    33    1
    37    14    34    1
    38    15    35    1
    39    17    36    1
    40    19    37    1
