
     RDKit          3D

 37 40  0  0  0  0  0  0  0  0999 V2000
   -2.8430   -2.1439   -1.0868 C   0  0  0  0  0  0  0  0  0  0  0  0
   -2.3512   -1.3037   -0.0420 N   0  0  0  0  0  0  0  0  0  0  0  0
   -3.2758   -0.3977    0.5062 C   0  0  0  0  0  0  0  0  0  0  0  0
   -3.1824    0.9937   -0.0776 C   0  0  0  0  0  0  0  0  0  0  0  0
   -1.8050    1.4811    0.0009 C   0  0  0  0  0  0  0  0  0  0  0  0
   -1.5633    2.8240    0.0909 C   0  0  0  0  0  0  0  0  0  0  0  0
   -0.2831    3.3022    0.1661 C   0  0  0  0  0  0  0  0  0  0  0  0
    0.8081    2.4128    0.1539 C   0  0  0  0  0  0  0  0  0  0  0  0
    0.5429    1.0673    0.0646 C   0  0  0  0  0  0  0  0  0  0  0  0
   -0.7573    0.5727   -0.0163 C   0  0  0  0  0  0  0  0  0  0  0  0
   -0.9973   -0.8532   -0.2290 C   0  0  1  0  0  0  0  0  0  0  0  0
   -0.0051   -1.7739    0.3772 C   0  0  0  0  0  0  0  0  0  0  0  0
    1.3642   -1.2294    0.2357 C   0  0  0  0  0  0  0  0  0  0  0  0
    2.4204   -2.1492    0.2391 C   0  0  0  0  0  0  0  0  0  0  0  0
    3.7022   -1.7143    0.1982 C   0  0  0  0  0  0  0  0  0  0  0  0
    3.9898   -0.3693    0.1527 C   0  0  0  0  0  0  0  0  0  0  0  0
    5.3202    0.0049    0.1143 O   0  0  0  0  0  0  0  0  0  0  0  0
    2.9530    0.5733    0.1464 C   0  0  0  0  0  0  0  0  0  0  0  0
    3.3602    1.8729    0.0980 O   0  0  0  0  0  0  0  0  0  0  0  0
    1.6678    0.1137    0.1869 C   0  0  0  0  0  0  0  0  0  0  0  0
   -1.9622   -2.5356   -1.6598 H   0  0  0  0  0  0  0  0  0  0  0  0
   -3.4014   -3.0314   -0.7270 H   0  0  0  0  0  0  0  0  0  0  0  0
   -3.4780   -1.6189   -1.8279 H   0  0  0  0  0  0  0  0  0  0  0  0
   -4.3025   -0.7601    0.2903 H   0  0  0  0  0  0  0  0  0  0  0  0
   -3.2102   -0.3040    1.6090 H   0  0  0  0  0  0  0  0  0  0  0  0
   -3.8167    1.6528    0.5556 H   0  0  0  0  0  0  0  0  0  0  0  0
   -3.6207    1.0421   -1.1017 H   0  0  0  0  0  0  0  0  0  0  0  0
   -2.3909    3.5383    0.1041 H   0  0  0  0  0  0  0  0  0  0  0  0
   -0.0850    4.3664    0.2361 H   0  0  0  0  0  0  0  0  0  0  0  0
    1.7855    2.8415    0.2215 H   0  0  0  0  0  0  0  0  0  0  0  0
   -0.8426   -0.9856   -1.3653 H   0  0  0  0  0  0  0  0  0  0  0  0
   -0.2160   -2.0047    1.4517 H   0  0  0  0  0  0  0  0  0  0  0  0
   -0.0287   -2.7418   -0.1814 H   0  0  0  0  0  0  0  0  0  0  0  0
    2.1793   -3.2223    0.2754 H   0  0  0  0  0  0  0  0  0  0  0  0
    4.4939   -2.4757    0.2030 H   0  0  0  0  0  0  0  0  0  0  0  0
    5.6740    0.6966    0.7382 H   0  0  0  0  0  0  0  0  0  0  0  0
    4.1567    2.2585    0.5964 H   0  0  0  0  0  0  0  0  0  0  0  0
  1  2  1  0
  2  3  1  0
  3  4  1  0
  4  5  1  0
  5  6  2  0
  6  7  1  0
  7  8  2  0
  8  9  1  0
  9 10  2  0
 10 11  1  0
 11 12  1  0
 12 13  1  0
 13 14  2  0
 14 15  1  0
 15 16  2  0
 16 17  1  0
 16 18  1  0
 18 19  1  0
 18 20  2  0
 11  2  1  0
 20 13  1  0
 10  5  1  0
 20  9  1  0
  1 21  1  0
  1 22  1  0
  1 23  1  0
  3 24  1  0
  3 25  1  0
  4 26  1  0
  4 27  1  0
  6 28  1  0
  7 29  1  0
  8 30  1  0
 11 31  1  6
 12 32  1  0
 12 33  1  0
 14 34  1  0
 15 35  1  0
 17 36  1  0
 19 37  1  0
M  END
$$$$
