
     RDKit          3D

 21 21  0  0  0  0  0  0  0  0999 V2000
    3.2811   -0.9846    0.2933 N   0  0  0  0  0  0  0  0  0  0  0  0
    2.6012   -0.0358   -0.5496 C   0  0  0  0  0  0  0  0  0  0  0  0
    3.0661    0.7141   -1.5182 N   0  0  0  0  0  0  0  0  0  0  0  0
    1.1728    0.0648   -0.2298 C   0  0  0  0  0  0  0  0  0  0  0  0
    0.6498   -0.1447    1.0310 C   0  0  0  0  0  0  0  0  0  0  0  0
   -0.7104   -0.0292    1.2440 C   0  0  0  0  0  0  0  0  0  0  0  0
   -1.5891    0.2936    0.2288 C   0  0  0  0  0  0  0  0  0  0  0  0
   -3.0569    0.3977    0.5538 C   0  0  0  0  0  0  0  0  0  0  0  0
   -3.5750   -0.8901    0.3513 O   0  0  0  0  0  0  0  0  0  0  0  0
   -1.0851    0.5072   -1.0408 C   0  0  0  0  0  0  0  0  0  0  0  0
    0.2792    0.3846   -1.2229 C   0  0  0  0  0  0  0  0  0  0  0  0
    3.3362   -1.7598   -0.4035 H   0  0  0  0  0  0  0  0  0  0  0  0
    3.6059   -0.8899    1.2964 H   0  0  0  0  0  0  0  0  0  0  0  0
    2.4567    1.3726   -2.0618 H   0  0  0  0  0  0  0  0  0  0  0  0
    1.3456   -0.3972    1.8207 H   0  0  0  0  0  0  0  0  0  0  0  0
   -1.0455   -0.2118    2.2767 H   0  0  0  0  0  0  0  0  0  0  0  0
   -3.5216    1.0573   -0.2104 H   0  0  0  0  0  0  0  0  0  0  0  0
   -3.1381    0.7513    1.5804 H   0  0  0  0  0  0  0  0  0  0  0  0
   -2.8860   -1.5298    0.6483 H   0  0  0  0  0  0  0  0  0  0  0  0
   -1.7732    0.7600   -1.8357 H   0  0  0  0  0  0  0  0  0  0  0  0
    0.5863    0.5697   -2.2519 H   0  0  0  0  0  0  0  0  0  0  0  0
  1  2  1  0
  2  3  2  3
  2  4  1  0
  4  5  2  0
  5  6  1  0
  6  7  2  0
  7  8  1  0
  8  9  1  0
  7 10  1  0
 10 11  2  0
 11  4  1  0
  1 12  1  0
  1 13  1  0
  3 14  1  0
  5 15  1  0
  6 16  1  0
  8 17  1  0
  8 18  1  0
  9 19  1  0
 10 20  1  0
 11 21  1  0
M  END
$$$$
