@<TRIPOS>MOLECULE
*****
 21 21 0 0 0
SMALL
GASTEIGER

@<TRIPOS>ATOM
      1 N           3.2811   -0.9846    0.2933 N.pl3   1  UNL1       -0.2466
      2 C           2.6012   -0.0358   -0.5496 C.2     1  UNL1        0.3081
      3 N           3.0661    0.7141   -1.5182 N.2     1  UNL1       -0.0994
      4 C           1.1728    0.0648   -0.2298 C.ar    1  UNL1        0.0647
      5 C           0.6498   -0.1447    1.0310 C.ar    1  UNL1       -0.0466
      6 C          -0.7104   -0.0292    1.2440 C.ar    1  UNL1       -0.0556
      7 C          -1.5891    0.2936    0.2288 C.ar    1  UNL1       -0.0221
      8 C          -3.0569    0.3977    0.5538 C.3     1  UNL1        0.0692
      9 O          -3.5750   -0.8901    0.3513 O.3     1  UNL1       -0.3904
     10 C          -1.0851    0.5072   -1.0408 C.ar    1  UNL1       -0.0556
     11 C           0.2792    0.3846   -1.2229 C.ar    1  UNL1       -0.0466
     12 H           3.3362   -1.7598   -0.4035 H       1  UNL1        0.2884
     13 H           3.6059   -0.8899    1.2964 H       1  UNL1        0.2884
     14 H           2.4567    1.3726   -2.0618 H       1  UNL1        0.3633
     15 H           1.3456   -0.3972    1.8207 H       1  UNL1        0.0626
     16 H          -1.0455   -0.2118    2.2767 H       1  UNL1        0.0621
     17 H          -3.5216    1.0573   -0.2104 H       1  UNL1        0.0607
     18 H          -3.1381    0.7513    1.5804 H       1  UNL1        0.0607
     19 H          -2.8860   -1.5298    0.6483 H       1  UNL1        0.2098
     20 H          -1.7732    0.7600   -1.8357 H       1  UNL1        0.0621
     21 H           0.5863    0.5697   -2.2519 H       1  UNL1        0.0626
@<TRIPOS>BOND
     1     1     2    1
     2     2     3    2
     3     2     4    1
     4     4     5   ar
     5     5     6   ar
     6     6     7   ar
     7     7     8    1
     8     8     9    1
     9     7    10   ar
    10    10    11   ar
    11    11     4   ar
    12     1    12    1
    13     1    13    1
    14     3    14    1
    15     5    15    1
    16     6    16    1
    17     8    17    1
    18     8    18    1
    19     9    19    1
    20    10    20    1
    21    11    21    1
