@<TRIPOS>MOLECULE
*****
 50 53 0 0 0
SMALL
GASTEIGER

@<TRIPOS>ATOM
      1 C           7.2142    0.6829   -0.4796 C.3     1  UNL1       -0.0392
      2 C           5.8907    0.1701   -0.1493 C.ar    1  UNL1       -0.0385
      3 C           5.6270   -1.1795   -0.1583 C.ar    1  UNL1       -0.0533
      4 C           4.3921   -1.7028    0.1467 C.ar    1  UNL1       -0.0241
      5 C           3.3705   -0.8231    0.4762 C.ar    1  UNL1        0.0415
      6 C           3.5938    0.5327    0.4984 C.ar    1  UNL1       -0.0281
      7 C           4.8664    1.0274    0.1817 C.ar    1  UNL1        0.0595
      8 C           5.1240    2.4689    0.1988 C.3     1  UNL1        0.4177
      9 F           3.9704    3.1441    0.5539 F       1  UNL1       -0.1659
     10 F           5.5029    2.9508   -1.0433 F       1  UNL1       -0.1659
     11 F           6.0713    2.8083    1.1753 F       1  UNL1       -0.1659
     12 N           2.2375   -1.6261    0.7251 N.am    1  UNL1       -0.2547
     13 C           0.8779   -1.2955    0.5015 C.2     1  UNL1        0.3108
     14 O           0.0248   -2.1115    0.9638 O.2     1  UNL1       -0.2519
     15 N           0.4469   -0.1558   -0.1829 N.am    1  UNL1       -0.2677
     16 C          -0.8967    0.1903   -0.4051 C.ar    1  UNL1        0.0532
     17 C          -2.0095   -0.5027   -0.0046 C.ar    1  UNL1       -0.0339
     18 C          -3.3102   -0.0539   -0.2875 C.ar    1  UNL1        0.0021
     19 C          -3.5275    1.1015   -0.9786 C.ar    1  UNL1        0.2206
     20 O          -4.7866    1.5791   -1.2803 O.3     1  UNL1       -0.4363
     21 C          -5.9354    0.9541   -0.8500 C.ar    1  UNL1        0.1512
     22 C          -6.8462    0.3993   -1.7496 C.ar    1  UNL1       -0.0161
     23 C          -7.9649   -0.2034   -1.2517 C.ar    1  UNL1       -0.0401
     24 C          -8.2330   -0.2872    0.1003 C.ar    1  UNL1        0.0281
     25 N          -7.3469    0.2522    0.9566 N.ar    1  UNL1       -0.2565
     26 C          -6.2267    0.8582    0.5000 C.ar    1  UNL1        0.0803
     27 C          -5.2919    1.4651    1.5044 C.3     1  UNL1       -0.0188
     28 N          -2.4285    1.7808   -1.3715 N.ar    1  UNL1       -0.2191
     29 C          -1.1860    1.3749   -1.1153 C.ar    1  UNL1        0.0526
     30 C           2.6991   -2.9375    1.2187 C.3     1  UNL1        0.0253
     31 C           3.8799   -3.1164    0.2402 C.3     1  UNL1       -0.0096
     32 H           7.6281    1.4168    0.2228 H       1  UNL1        0.0278
     33 H           7.2752    1.1233   -1.5005 H       1  UNL1        0.0278
     34 H           7.9517   -0.1722   -0.4947 H       1  UNL1        0.0278
     35 H           6.4319   -1.8769   -0.4194 H       1  UNL1        0.0624
     36 H           2.8049    1.2155    0.7758 H       1  UNL1        0.0642
     37 H           1.1861    0.4685   -0.5732 H       1  UNL1        0.1564
     38 H          -1.9212   -1.4117    0.5390 H       1  UNL1        0.0638
     39 H          -4.1616   -0.6651    0.0497 H       1  UNL1        0.0671
     40 H          -6.6311    0.4677   -2.8105 H       1  UNL1        0.0655
     41 H          -8.6944   -0.6464   -1.9434 H       1  UNL1        0.0634
     42 H          -9.1409   -0.7806    0.4250 H       1  UNL1        0.0829
     43 H          -5.9646    2.0499    2.1972 H       1  UNL1        0.0294
     44 H          -4.7648    0.7173    2.0990 H       1  UNL1        0.0294
     45 H          -4.6161    2.1767    1.0260 H       1  UNL1        0.0294
     46 H          -0.3146    1.9518   -1.4494 H       1  UNL1        0.0850
     47 H           1.9521   -3.7191    1.1286 H       1  UNL1        0.0472
     48 H           3.0610   -2.7620    2.2468 H       1  UNL1        0.0472
     49 H           4.5846   -3.7891    0.7222 H       1  UNL1        0.0329
     50 H           3.5344   -3.5099   -0.7205 H       1  UNL1        0.0329
@<TRIPOS>BOND
     1     1     2    1
     2     2     3   ar
     3     3     4   ar
     4     4     5   ar
     5     5     6   ar
     6     6     7   ar
     7     7     8    1
     8     8     9    1
     9     8    10    1
    10     8    11    1
    11     5    12    1
    12    12    13   am
    13    13    14    2
    14    13    15   am
    15    15    16    1
    16    16    17   ar
    17    17    18   ar
    18    18    19   ar
    19    19    20    1
    20    20    21    1
    21    21    22   ar
    22    22    23   ar
    23    23    24   ar
    24    24    25   ar
    25    25    26   ar
    26    26    27    1
    27    19    28   ar
    28    28    29   ar
    29    12    30    1
    30    30    31    1
    31     7     2   ar
    32    29    16   ar
    33    31     4    1
    34    26    21   ar
    35     1    32    1
    36     1    33    1
    37     1    34    1
    38     3    35    1
    39     6    36    1
    40    15    37    1
    41    17    38    1
    42    18    39    1
    43    22    40    1
    44    23    41    1
    45    24    42    1
    46    27    43    1
    47    27    44    1
    48    27    45    1
    49    29    46    1
    50    30    47    1
    51    30    48    1
    52    31    49    1
    53    31    50    1
