
     RDKit          3D

 57 59  0  0  0  0  0  0  0  0999 V2000
   -8.6236   -1.7314    3.6147 C   0  0  0  0  0  0  0  0  0  0  0  0
   -7.3490   -1.3847    3.1298 O   0  0  0  0  0  0  0  0  0  0  0  0
   -7.1511   -0.4407    2.1178 C   0  0  0  0  0  0  0  0  0  0  0  0
   -8.2120    0.0758    1.6706 O   0  0  0  0  0  0  0  0  0  0  0  0
   -5.8654   -0.0012    1.5321 C   0  0  0  0  0  0  0  0  0  0  0  0
   -5.7535   -0.1729    0.0518 C   0  0  2  0  0  0  0  0  0  0  0  0
   -4.3894    0.3307   -0.3928 C   0  0  0  0  0  0  0  0  0  0  0  0
   -4.5534    1.8093   -0.6323 C   0  0  1  0  0  0  0  0  0  0  0  0
   -3.6584    2.2964   -1.7539 C   0  0  0  0  0  0  0  0  0  0  0  0
   -2.3364    2.3843   -1.5399 O   0  0  0  0  0  0  0  0  0  0  0  0
   -1.3051    1.6129   -1.2520 C   0  0  0  0  0  0  0  0  0  0  0  0
   -0.2123    2.5000   -1.1743 C   0  0  0  0  0  0  0  0  0  0  0  0
    1.0831    2.0894   -0.8880 C   0  0  0  0  0  0  0  0  0  0  0  0
    1.3227    0.7277   -0.6638 C   0  0  0  0  0  0  0  0  0  0  0  0
    0.3029   -0.1786   -0.7257 C   0  0  0  0  0  0  0  0  0  0  0  0
   -0.9480    0.3083   -1.0149 C   0  0  0  0  0  0  0  0  0  0  0  0
    2.6332    0.1626   -0.3603 C   0  0  0  0  0  0  0  0  0  0  0  0
    2.8579   -0.9514    0.4274 C   0  0  0  0  0  0  0  0  0  0  0  0
    4.1384   -1.4159    0.6533 C   0  0  0  0  0  0  0  0  0  0  0  0
    5.2161   -0.7513    0.0781 C   0  0  0  0  0  0  0  0  0  0  0  0
    4.9832    0.3716   -0.7153 C   0  0  0  0  0  0  0  0  0  0  0  0
    3.6972    0.8542   -0.9535 C   0  0  0  0  0  0  0  0  0  0  0  0
    6.6187   -1.1604    0.2445 C   0  0  0  0  0  0  0  0  0  0  0  0
    7.6441   -0.1449    0.2094 N   0  0  0  0  0  0  0  0  0  0  0  0
    7.0468   -2.3667    0.4227 N   0  0  0  0  0  0  0  0  0  0  0  0
    8.4360   -2.6542    0.5737 C   0  0  0  0  0  0  0  0  0  0  0  0
    8.8666   -3.6427    1.2275 O   0  0  0  0  0  0  0  0  0  0  0  0
    9.3592   -1.8066   -0.0264 O   0  0  0  0  0  0  0  0  0  0  0  0
   10.7426   -1.9750    0.0441 C   0  0  0  0  0  0  0  0  0  0  0  0
   -5.9351    1.8795   -1.1634 N   0  0  0  0  0  0  0  0  0  0  0  0
   -6.6510    0.7654   -0.6531 C   0  0  0  0  0  0  0  0  0  0  0  0
   -7.9207    0.6978   -0.8481 O   0  0  0  0  0  0  0  0  0  0  0  0
   -8.8449   -1.3144    4.6217 H   0  0  0  0  0  0  0  0  0  0  0  0
   -8.6974   -2.8366    3.6147 H   0  0  0  0  0  0  0  0  0  0  0  0
   -9.3638   -1.3969    2.8470 H   0  0  0  0  0  0  0  0  0  0  0  0
   -5.0132   -0.4762    2.0857 H   0  0  0  0  0  0  0  0  0  0  0  0
   -5.7644    1.0967    1.7987 H   0  0  0  0  0  0  0  0  0  0  0  0
   -5.9168   -1.2223   -0.2728 H   0  0  0  0  0  0  0  0  0  0  0  0
   -3.6383    0.0726    0.3605 H   0  0  0  0  0  0  0  0  0  0  0  0
   -4.1392   -0.1867   -1.3462 H   0  0  0  0  0  0  0  0  0  0  0  0
   -4.4508    2.4070    0.2776 H   0  0  0  0  0  0  0  0  0  0  0  0
   -4.0664    3.2805   -2.1427 H   0  0  0  0  0  0  0  0  0  0  0  0
   -3.8462    1.6101   -2.6434 H   0  0  0  0  0  0  0  0  0  0  0  0
   -0.1344    3.5890   -1.3060 H   0  0  0  0  0  0  0  0  0  0  0  0
    1.9978    2.6491   -0.7977 H   0  0  0  0  0  0  0  0  0  0  0  0
    0.3685   -1.2412   -0.5713 H   0  0  0  0  0  0  0  0  0  0  0  0
   -1.7801   -0.3356   -1.0931 H   0  0  0  0  0  0  0  0  0  0  0  0
    1.9925   -1.4370    0.8546 H   0  0  0  0  0  0  0  0  0  0  0  0
    4.3428   -2.2793    1.2604 H   0  0  0  0  0  0  0  0  0  0  0  0
    5.8386    0.8815   -1.1602 H   0  0  0  0  0  0  0  0  0  0  0  0
    3.6380    1.7245   -1.5791 H   0  0  0  0  0  0  0  0  0  0  0  0
    7.8096    0.5382   -0.5775 H   0  0  0  0  0  0  0  0  0  0  0  0
    8.3949    0.1203    0.9059 H   0  0  0  0  0  0  0  0  0  0  0  0
   11.2745   -1.8872   -0.9224 H   0  0  0  0  0  0  0  0  0  0  0  0
   11.1568   -1.1565    0.6933 H   0  0  0  0  0  0  0  0  0  0  0  0
   11.0271   -2.9263    0.5885 H   0  0  0  0  0  0  0  0  0  0  0  0
   -6.2699    2.6393   -1.7975 H   0  0  0  0  0  0  0  0  0  0  0  0
  1  2  1  0
  2  3  1  0
  3  4  2  0
  3  5  1  0
  5  6  1  0
  6  7  1  0
  7  8  1  0
  8  9  1  0
  9 10  1  0
 10 11  1  0
 11 12  2  0
 12 13  1  0
 13 14  2  0
 14 15  1  0
 15 16  2  0
 14 17  1  0
 17 18  2  0
 18 19  1  0
 19 20  2  0
 20 21  1  0
 21 22  2  0
 20 23  1  0
 23 24  1  0
 23 25  2  0
 25 26  1  0
 26 27  2  0
 26 28  1  0
 28 29  1  0
  8 30  1  0
 30 31  1  0
 31 32  2  0
 31  6  1  0
 16 11  1  0
 22 17  1  0
  1 33  1  0
  1 34  1  0
  1 35  1  0
  5 36  1  0
  5 37  1  0
  6 38  1  1
  7 39  1  0
  7 40  1  0
  8 41  1  1
  9 42  1  0
  9 43  1  0
 12 44  1  0
 13 45  1  0
 15 46  1  0
 16 47  1  0
 18 48  1  0
 19 49  1  0
 21 50  1  0
 22 51  1  0
 24 52  1  0
 24 53  1  0
 29 54  1  0
 29 55  1  0
 29 56  1  0
 30 57  1  0
M  END
$$$$
