@<TRIPOS>MOLECULE
*****
 25 26 0 0 0
SMALL
GASTEIGER

@<TRIPOS>ATOM
      1 N           3.8311    0.8801    0.0201 N.3     1  UNL1       -0.3297
      2 C           2.5406    0.3875    0.4462 C.3     1  UNL1       -0.0029
      3 C           1.9382   -0.4065   -0.6852 C.3     1  UNL1       -0.0133
      4 C           0.6168   -0.9362   -0.2890 C.ar    1  UNL1       -0.0211
      5 C           0.3251   -2.2289    0.1037 C.ar    1  UNL1        0.0059
      6 N          -0.9800   -2.3343    0.3994 N.ar    1  UNL1       -0.3604
      7 C          -1.5909   -1.1294    0.2148 C.ar    1  UNL1        0.0470
      8 C          -2.8882   -0.7122    0.3735 C.ar    1  UNL1       -0.0343
      9 C          -3.2138    0.5878    0.1042 C.ar    1  UNL1       -0.0182
     10 C          -2.2281    1.4637   -0.3248 C.ar    1  UNL1        0.1176
     11 O          -2.5207    2.7915   -0.6096 O.3     1  UNL1       -0.5067
     12 C          -0.9305    1.0472   -0.4828 C.ar    1  UNL1       -0.0108
     13 C          -0.5814   -0.2644   -0.2155 C.ar    1  UNL1        0.0063
     14 H           3.7024    1.8531   -0.2869 H       1  UNL1        0.1182
     15 H           4.5499    0.7902    0.7902 H       1  UNL1        0.1182
     16 H           1.8791    1.1419    0.8862 H       1  UNL1        0.0425
     17 H           2.7534   -0.3400    1.2869 H       1  UNL1        0.0425
     18 H           1.8765    0.2682   -1.5865 H       1  UNL1        0.0326
     19 H           2.6589   -1.2027   -0.9673 H       1  UNL1        0.0326
     20 H           1.0879   -3.0078    0.1458 H       1  UNL1        0.0810
     21 H          -1.4918   -3.1746    0.7250 H       1  UNL1        0.1653
     22 H          -3.6597   -1.3719    0.7027 H       1  UNL1        0.0639
     23 H          -4.2071    1.0025    0.1997 H       1  UNL1        0.0655
     24 H          -3.3386    3.1900   -0.1331 H       1  UNL1        0.2921
     25 H          -0.1290    1.7049   -0.8176 H       1  UNL1        0.0661
@<TRIPOS>BOND
     1     1     2    1
     2     2     3    1
     3     3     4    1
     4     4     5   ar
     5     5     6   ar
     6     6     7   ar
     7     7     8   ar
     8     8     9   ar
     9     9    10   ar
    10    10    11    1
    11    10    12   ar
    12    12    13   ar
    13    13     4   ar
    14    13     7   ar
    15     1    14    1
    16     1    15    1
    17     2    16    1
    18     2    17    1
    19     3    18    1
    20     3    19    1
    21     5    20    1
    22     6    21    1
    23     8    22    1
    24     9    23    1
    25    11    24    1
    26    12    25    1
