
     RDKit          3D

 25 26  0  0  0  0  0  0  0  0999 V2000
    3.8311    0.8801    0.0201 N   0  0  0  0  0  0  0  0  0  0  0  0
    2.5406    0.3875    0.4462 C   0  0  0  0  0  0  0  0  0  0  0  0
    1.9382   -0.4065   -0.6852 C   0  0  0  0  0  0  0  0  0  0  0  0
    0.6168   -0.9362   -0.2890 C   0  0  0  0  0  0  0  0  0  0  0  0
    0.3251   -2.2289    0.1037 C   0  0  0  0  0  0  0  0  0  0  0  0
   -0.9800   -2.3343    0.3994 N   0  0  0  0  0  0  0  0  0  0  0  0
   -1.5909   -1.1294    0.2148 C   0  0  0  0  0  0  0  0  0  0  0  0
   -2.8882   -0.7122    0.3735 C   0  0  0  0  0  0  0  0  0  0  0  0
   -3.2138    0.5878    0.1042 C   0  0  0  0  0  0  0  0  0  0  0  0
   -2.2281    1.4637   -0.3248 C   0  0  0  0  0  0  0  0  0  0  0  0
   -2.5207    2.7915   -0.6096 O   0  0  0  0  0  0  0  0  0  0  0  0
   -0.9305    1.0472   -0.4828 C   0  0  0  0  0  0  0  0  0  0  0  0
   -0.5814   -0.2644   -0.2155 C   0  0  0  0  0  0  0  0  0  0  0  0
    3.7024    1.8531   -0.2869 H   0  0  0  0  0  0  0  0  0  0  0  0
    4.5499    0.7902    0.7902 H   0  0  0  0  0  0  0  0  0  0  0  0
    1.8791    1.1419    0.8862 H   0  0  0  0  0  0  0  0  0  0  0  0
    2.7534   -0.3400    1.2869 H   0  0  0  0  0  0  0  0  0  0  0  0
    1.8765    0.2682   -1.5865 H   0  0  0  0  0  0  0  0  0  0  0  0
    2.6589   -1.2027   -0.9673 H   0  0  0  0  0  0  0  0  0  0  0  0
    1.0879   -3.0078    0.1458 H   0  0  0  0  0  0  0  0  0  0  0  0
   -1.4918   -3.1746    0.7250 H   0  0  0  0  0  0  0  0  0  0  0  0
   -3.6597   -1.3719    0.7027 H   0  0  0  0  0  0  0  0  0  0  0  0
   -4.2071    1.0025    0.1997 H   0  0  0  0  0  0  0  0  0  0  0  0
   -3.3386    3.1900   -0.1331 H   0  0  0  0  0  0  0  0  0  0  0  0
   -0.1290    1.7049   -0.8176 H   0  0  0  0  0  0  0  0  0  0  0  0
  1  2  1  0
  2  3  1  0
  3  4  1  0
  4  5  2  0
  5  6  1  0
  6  7  1  0
  7  8  2  0
  8  9  1  0
  9 10  2  0
 10 11  1  0
 10 12  1  0
 12 13  2  0
 13  4  1  0
 13  7  1  0
  1 14  1  0
  1 15  1  0
  2 16  1  0
  2 17  1  0
  3 18  1  0
  3 19  1  0
  5 20  1  0
  6 21  1  0
  8 22  1  0
  9 23  1  0
 11 24  1  0
 12 25  1  0
M  END
$$$$
