@<TRIPOS>MOLECULE
*****
 53 56 0 0 0
SMALL
GASTEIGER

@<TRIPOS>ATOM
      1 C          -2.6504    0.6375   -0.4655 C.3     1  UNL1       -0.0252
      2 C          -3.6046    1.7286   -0.1130 C.3     1  UNL1       -0.0424
      3 C          -4.9521    1.0501   -0.3741 C.3     1  UNL1        0.0067
      4 C          -4.6729   -0.4200   -0.3862 C.2     1  UNL1        0.1395
      5 O          -5.4647   -1.2076   -0.8224 O.2     1  UNL1       -0.2968
      6 C          -3.3211   -0.5292    0.2206 C.3     1  UNL1        0.0293
      7 C          -3.4840   -0.3623    1.6974 C.3     1  UNL1       -0.0526
      8 C          -2.5643   -1.7543   -0.1800 C.3     1  UNL1       -0.0404
      9 C          -1.1976   -1.6219    0.4586 C.3     1  UNL1       -0.0483
     10 C          -0.4800   -0.4522   -0.1374 C.3     1  UNL1       -0.0285
     11 C          -1.2307    0.8455   -0.1122 C.3     1  UNL1       -0.0303
     12 C          -0.6071    1.6622   -1.2545 C.3     1  UNL1       -0.0311
     13 C           0.8802    1.6757   -1.0150 C.2     1  UNL1       -0.0839
     14 C           1.5453    0.8502   -0.2116 C.2     1  UNL1       -0.0648
     15 C           3.0211    1.0318   -0.1150 C.3     1  UNL1       -0.0025
     16 C           3.7052   -0.2970    0.0135 C.3     1  UNL1        0.0935
     17 C           3.0646   -1.2149    1.0151 C.3     1  UNL1       -0.0232
     18 C           1.6246   -1.4822    0.6326 C.3     1  UNL1       -0.0412
     19 C           0.8413   -0.2136    0.5605 C.3     1  UNL1       -0.0078
     20 C           0.6277    0.3806    1.9561 C.3     1  UNL1       -0.0556
     21 O           5.0255   -0.1068    0.4378 O.3     1  UNL1       -0.2122
     22 S           6.0730   -0.7423   -0.6998 S.O2    1  UNL1        0.2078
     23 O           6.8521    0.5150   -1.4876 O.3     1  UNL1       -0.2311
     24 O           5.3103   -1.5727   -1.6926 O.2     1  UNL1       -0.1181
     25 O           7.0930   -1.6599   -0.0489 O.2     1  UNL1       -0.1181
     26 H          -2.7475    0.4556   -1.5501 H       1  UNL1        0.0313
     27 H          -3.4583    2.6121   -0.7517 H       1  UNL1        0.0272
     28 H          -3.5193    2.0614    0.9440 H       1  UNL1        0.0272
     29 H          -5.7040    1.3313    0.3844 H       1  UNL1        0.0342
     30 H          -5.2493    1.3698   -1.4003 H       1  UNL1        0.0342
     31 H          -2.9570    0.4860    2.1336 H       1  UNL1        0.0239
     32 H          -4.5600   -0.3117    2.0167 H       1  UNL1        0.0239
     33 H          -3.1051   -1.2692    2.2537 H       1  UNL1        0.0239
     34 H          -2.4106   -1.7092   -1.2693 H       1  UNL1        0.0275
     35 H          -3.0669   -2.6936    0.1290 H       1  UNL1        0.0275
     36 H          -1.2089   -1.5633    1.5449 H       1  UNL1        0.0269
     37 H          -0.6180   -2.5226    0.1771 H       1  UNL1        0.0269
     38 H          -0.2254   -0.7262   -1.1818 H       1  UNL1        0.0312
     39 H          -1.0644    1.4474    0.8080 H       1  UNL1        0.0310
     40 H          -1.0108    2.6728   -1.3229 H       1  UNL1        0.0310
     41 H          -0.7483    1.0419   -2.1649 H       1  UNL1        0.0310
     42 H           1.3722    2.4712   -1.5982 H       1  UNL1        0.0572
     43 H           3.1962    1.6579    0.8003 H       1  UNL1        0.0336
     44 H           3.4322    1.5348   -1.0143 H       1  UNL1        0.0336
     45 H           3.6775   -0.8154   -0.9602 H       1  UNL1        0.0624
     46 H           3.1835   -0.8955    2.0632 H       1  UNL1        0.0291
     47 H           3.5942   -2.1950    0.9273 H       1  UNL1        0.0291
     48 H           1.1588   -2.1515    1.3733 H       1  UNL1        0.0274
     49 H           1.6602   -1.8999   -0.3955 H       1  UNL1        0.0274
     50 H           1.4884    0.1040    2.6243 H       1  UNL1        0.0238
     51 H           0.6475    1.4898    1.9343 H       1  UNL1        0.0238
     52 H          -0.3287    0.0633    2.4063 H       1  UNL1        0.0238
     53 H           7.1377    1.2132   -0.8574 H       1  UNL1        0.2469
@<TRIPOS>BOND
     1     1     2    1
     2     2     3    1
     3     3     4    1
     4     4     5    2
     5     4     6    1
     6     6     7    1
     7     6     8    1
     8     8     9    1
     9     9    10    1
    10    10    11    1
    11    11    12    1
    12    12    13    1
    13    13    14    2
    14    14    15    1
    15    15    16    1
    16    16    17    1
    17    17    18    1
    18    18    19    1
    19    19    20    1
    20    16    21    1
    21    21    22    1
    22    22    23    1
    23    22    24    2
    24    22    25    2
    25     6     1    1
    26    19    10    1
    27    11     1    1
    28    19    14    1
    29     1    26    1
    30     2    27    1
    31     2    28    1
    32     3    29    1
    33     3    30    1
    34     7    31    1
    35     7    32    1
    36     7    33    1
    37     8    34    1
    38     8    35    1
    39     9    36    1
    40     9    37    1
    41    10    38    1
    42    11    39    1
    43    12    40    1
    44    12    41    1
    45    13    42    1
    46    15    43    1
    47    15    44    1
    48    16    45    1
    49    17    46    1
    50    17    47    1
    51    18    48    1
    52    18    49    1
    53    20    50    1
    54    20    51    1
    55    20    52    1
    56    23    53    1
