@<TRIPOS>MOLECULE
*****
 58 61 0 0 0
SMALL
GASTEIGER

@<TRIPOS>ATOM
      1 C           9.0385   -0.1010   -2.5794 C.3     1  UNL1        0.0790
      2 O           8.6008    0.1607   -1.2643 O.3     1  UNL1       -0.4914
      3 C           7.2516    0.1046   -0.9526 C.ar    1  UNL1        0.1635
      4 C           6.3566   -0.2091   -1.9614 C.ar    1  UNL1        0.0099
      5 C           4.9829   -0.2843   -1.7172 C.ar    1  UNL1        0.0815
      6 N           4.0911   -0.5845   -2.6665 N.ar    1  UNL1       -0.2350
      7 C           2.7757   -0.6422   -2.3642 C.ar    1  UNL1        0.1204
      8 N           2.2943   -0.4097   -1.1329 N.ar    1  UNL1       -0.2006
      9 C           3.1712   -0.1062   -0.1618 C.ar    1  UNL1        0.2312
     10 O           2.7910    0.1487    1.1385 O.3     1  UNL1       -0.4373
     11 C           1.4702    0.1215    1.5105 C.ar    1  UNL1        0.1304
     12 C           0.8994   -1.0917    1.7954 C.ar    1  UNL1       -0.0190
     13 C          -0.4327   -1.1653    2.1821 C.ar    1  UNL1       -0.0546
     14 C          -1.1871   -0.0198    2.2822 C.ar    1  UNL1       -0.0384
     15 C          -2.5757   -0.1439    2.7179 C.3     1  UNL1        0.0494
     16 C          -3.6086   -0.0435    1.6856 C.2     1  UNL1        0.2216
     17 O          -3.8795    1.0555    1.1460 O.2     1  UNL1       -0.2751
     18 N          -4.3358   -1.1907    1.2645 N.am    1  UNL1       -0.2828
     19 C          -5.3635   -1.1619    0.2867 C.ar    1  UNL1        0.0713
     20 C          -6.0054   -2.2805   -0.2692 C.ar    1  UNL1        0.0706
     21 N          -6.9526   -1.8277   -1.1193 N.ar    1  UNL1       -0.1775
     22 N          -6.9530   -0.5109   -1.1380 N.ar    1  UNL1       -0.2671
     23 C          -7.8751    0.3123   -1.9398 C.3     1  UNL1        0.0471
     24 C          -8.9857    0.7551   -0.9612 C.3     1  UNL1       -0.0429
     25 C          -7.2115    1.5410   -2.4512 C.3     1  UNL1       -0.0429
     26 C          -5.9977   -0.0851   -0.2960 C.ar    1  UNL1        0.0470
     27 C          -0.6141    1.1798    1.9970 C.ar    1  UNL1       -0.0546
     28 C           0.7209    1.2682    1.6067 C.ar    1  UNL1       -0.0190
     29 C           4.5303   -0.0396   -0.4468 C.ar    1  UNL1        0.0660
     30 C           5.4443    0.2728    0.5449 C.ar    1  UNL1       -0.0020
     31 C           6.8062    0.3527    0.3265 C.ar    1  UNL1        0.1623
     32 O           7.7276    0.6642    1.3138 O.3     1  UNL1       -0.4914
     33 C           7.4263    0.9383    2.6469 C.3     1  UNL1        0.0790
     34 H          10.1466    0.0829   -2.5833 H       1  UNL1        0.0660
     35 H           8.8999   -1.1856   -2.8394 H       1  UNL1        0.0660
     36 H           8.5039    0.5149   -3.3347 H       1  UNL1        0.0660
     37 H           6.7028   -0.4033   -2.9632 H       1  UNL1        0.0677
     38 H           2.0863   -0.8919   -3.1832 H       1  UNL1        0.1048
     39 H           1.4207   -2.0350    1.7392 H       1  UNL1        0.0654
     40 H          -0.8961   -2.1114    2.4110 H       1  UNL1        0.0622
     41 H          -2.7401   -1.0791    3.3379 H       1  UNL1        0.0407
     42 H          -2.7615    0.6757    3.4735 H       1  UNL1        0.0407
     43 H          -4.0868   -2.1260    1.7045 H       1  UNL1        0.1549
     44 H          -5.7481   -3.3109   -0.0260 H       1  UNL1        0.0867
     45 H          -8.3493   -0.2902   -2.7345 H       1  UNL1        0.0539
     46 H          -9.2655   -0.1032   -0.3002 H       1  UNL1        0.0250
     47 H          -8.6450    1.5960   -0.3198 H       1  UNL1        0.0250
     48 H          -9.8424    1.1243   -1.5560 H       1  UNL1        0.0250
     49 H          -6.9254    1.3567   -3.5135 H       1  UNL1        0.0250
     50 H          -6.3562    1.8391   -1.8331 H       1  UNL1        0.0250
     51 H          -7.9547    2.3945   -2.4011 H       1  UNL1        0.0250
     52 H          -5.7877    0.9464   -0.1199 H       1  UNL1        0.0845
     53 H          -1.1572    2.1075    2.0591 H       1  UNL1        0.0622
     54 H           1.1578    2.2530    1.3828 H       1  UNL1        0.0654
     55 H           5.0557    0.4572    1.5422 H       1  UNL1        0.0663
     56 H           8.2842    0.6460    3.3030 H       1  UNL1        0.0660
     57 H           7.3755    2.0597    2.7523 H       1  UNL1        0.0660
     58 H           6.4817    0.5112    2.9792 H       1  UNL1        0.0660
@<TRIPOS>BOND
     1     1     2    1
     2     2     3    1
     3     3     4   ar
     4     4     5   ar
     5     5     6   ar
     6     6     7   ar
     7     7     8   ar
     8     8     9   ar
     9     9    10    1
    10    10    11    1
    11    11    12   ar
    12    12    13   ar
    13    13    14   ar
    14    14    15    1
    15    15    16    1
    16    16    17    2
    17    16    18   am
    18    18    19    1
    19    19    20   ar
    20    20    21   ar
    21    21    22   ar
    22    22    23    1
    23    23    24    1
    24    23    25    1
    25    22    26   ar
    26    14    27   ar
    27    27    28   ar
    28     9    29   ar
    29    29    30   ar
    30    30    31   ar
    31    31    32    1
    32    32    33    1
    33    31     3   ar
    34    29     5   ar
    35    28    11   ar
    36    26    19   ar
    37     1    34    1
    38     1    35    1
    39     1    36    1
    40     4    37    1
    41     7    38    1
    42    12    39    1
    43    13    40    1
    44    15    41    1
    45    15    42    1
    46    18    43    1
    47    20    44    1
    48    23    45    1
    49    24    46    1
    50    24    47    1
    51    24    48    1
    52    25    49    1
    53    25    50    1
    54    25    51    1
    55    26    52    1
    56    27    53    1
    57    28    54    1
    58    30    55    1
    59    33    56    1
    60    33    57    1
    61    33    58    1
