
     RDKit          3D

 58 61  0  0  0  0  0  0  0  0999 V2000
    9.0385   -0.1010   -2.5794 C   0  0  0  0  0  0  0  0  0  0  0  0
    8.6008    0.1607   -1.2643 O   0  0  0  0  0  0  0  0  0  0  0  0
    7.2516    0.1046   -0.9526 C   0  0  0  0  0  0  0  0  0  0  0  0
    6.3566   -0.2091   -1.9614 C   0  0  0  0  0  0  0  0  0  0  0  0
    4.9829   -0.2843   -1.7172 C   0  0  0  0  0  0  0  0  0  0  0  0
    4.0911   -0.5845   -2.6665 N   0  0  0  0  0  0  0  0  0  0  0  0
    2.7757   -0.6422   -2.3642 C   0  0  0  0  0  0  0  0  0  0  0  0
    2.2943   -0.4097   -1.1329 N   0  0  0  0  0  0  0  0  0  0  0  0
    3.1712   -0.1062   -0.1618 C   0  0  0  0  0  0  0  0  0  0  0  0
    2.7910    0.1487    1.1385 O   0  0  0  0  0  0  0  0  0  0  0  0
    1.4702    0.1215    1.5105 C   0  0  0  0  0  0  0  0  0  0  0  0
    0.8994   -1.0917    1.7954 C   0  0  0  0  0  0  0  0  0  0  0  0
   -0.4327   -1.1653    2.1821 C   0  0  0  0  0  0  0  0  0  0  0  0
   -1.1871   -0.0198    2.2822 C   0  0  0  0  0  0  0  0  0  0  0  0
   -2.5757   -0.1439    2.7179 C   0  0  0  0  0  0  0  0  0  0  0  0
   -3.6086   -0.0435    1.6856 C   0  0  0  0  0  0  0  0  0  0  0  0
   -3.8795    1.0555    1.1460 O   0  0  0  0  0  0  0  0  0  0  0  0
   -4.3358   -1.1907    1.2645 N   0  0  0  0  0  0  0  0  0  0  0  0
   -5.3635   -1.1619    0.2867 C   0  0  0  0  0  0  0  0  0  0  0  0
   -6.0054   -2.2805   -0.2692 C   0  0  0  0  0  0  0  0  0  0  0  0
   -6.9526   -1.8277   -1.1193 N   0  0  0  0  0  0  0  0  0  0  0  0
   -6.9530   -0.5109   -1.1380 N   0  0  0  0  0  0  0  0  0  0  0  0
   -7.8751    0.3123   -1.9398 C   0  0  0  0  0  0  0  0  0  0  0  0
   -8.9857    0.7551   -0.9612 C   0  0  0  0  0  0  0  0  0  0  0  0
   -7.2115    1.5410   -2.4512 C   0  0  0  0  0  0  0  0  0  0  0  0
   -5.9977   -0.0851   -0.2960 C   0  0  0  0  0  0  0  0  0  0  0  0
   -0.6141    1.1798    1.9970 C   0  0  0  0  0  0  0  0  0  0  0  0
    0.7209    1.2682    1.6067 C   0  0  0  0  0  0  0  0  0  0  0  0
    4.5303   -0.0396   -0.4468 C   0  0  0  0  0  0  0  0  0  0  0  0
    5.4443    0.2728    0.5449 C   0  0  0  0  0  0  0  0  0  0  0  0
    6.8062    0.3527    0.3265 C   0  0  0  0  0  0  0  0  0  0  0  0
    7.7276    0.6642    1.3138 O   0  0  0  0  0  0  0  0  0  0  0  0
    7.4263    0.9383    2.6469 C   0  0  0  0  0  0  0  0  0  0  0  0
   10.1466    0.0829   -2.5833 H   0  0  0  0  0  0  0  0  0  0  0  0
    8.8999   -1.1856   -2.8394 H   0  0  0  0  0  0  0  0  0  0  0  0
    8.5039    0.5149   -3.3347 H   0  0  0  0  0  0  0  0  0  0  0  0
    6.7028   -0.4033   -2.9632 H   0  0  0  0  0  0  0  0  0  0  0  0
    2.0863   -0.8919   -3.1832 H   0  0  0  0  0  0  0  0  0  0  0  0
    1.4207   -2.0350    1.7392 H   0  0  0  0  0  0  0  0  0  0  0  0
   -0.8961   -2.1114    2.4110 H   0  0  0  0  0  0  0  0  0  0  0  0
   -2.7401   -1.0791    3.3379 H   0  0  0  0  0  0  0  0  0  0  0  0
   -2.7615    0.6757    3.4735 H   0  0  0  0  0  0  0  0  0  0  0  0
   -4.0868   -2.1260    1.7045 H   0  0  0  0  0  0  0  0  0  0  0  0
   -5.7481   -3.3109   -0.0260 H   0  0  0  0  0  0  0  0  0  0  0  0
   -8.3493   -0.2902   -2.7345 H   0  0  0  0  0  0  0  0  0  0  0  0
   -9.2655   -0.1032   -0.3002 H   0  0  0  0  0  0  0  0  0  0  0  0
   -8.6450    1.5960   -0.3198 H   0  0  0  0  0  0  0  0  0  0  0  0
   -9.8424    1.1243   -1.5560 H   0  0  0  0  0  0  0  0  0  0  0  0
   -6.9254    1.3567   -3.5135 H   0  0  0  0  0  0  0  0  0  0  0  0
   -6.3562    1.8391   -1.8331 H   0  0  0  0  0  0  0  0  0  0  0  0
   -7.9547    2.3945   -2.4011 H   0  0  0  0  0  0  0  0  0  0  0  0
   -5.7877    0.9464   -0.1199 H   0  0  0  0  0  0  0  0  0  0  0  0
   -1.1572    2.1075    2.0591 H   0  0  0  0  0  0  0  0  0  0  0  0
    1.1578    2.2530    1.3828 H   0  0  0  0  0  0  0  0  0  0  0  0
    5.0557    0.4572    1.5422 H   0  0  0  0  0  0  0  0  0  0  0  0
    8.2842    0.6460    3.3030 H   0  0  0  0  0  0  0  0  0  0  0  0
    7.3755    2.0597    2.7523 H   0  0  0  0  0  0  0  0  0  0  0  0
    6.4817    0.5112    2.9792 H   0  0  0  0  0  0  0  0  0  0  0  0
  1  2  1  0
  2  3  1  0
  3  4  2  0
  4  5  1  0
  5  6  2  0
  6  7  1  0
  7  8  2  0
  8  9  1  0
  9 10  1  0
 10 11  1  0
 11 12  2  0
 12 13  1  0
 13 14  2  0
 14 15  1  0
 15 16  1  0
 16 17  2  0
 16 18  1  0
 18 19  1  0
 19 20  1  0
 20 21  2  0
 21 22  1  0
 22 23  1  0
 23 24  1  0
 23 25  1  0
 22 26  1  0
 14 27  1  0
 27 28  2  0
  9 29  2  0
 29 30  1  0
 30 31  2  0
 31 32  1  0
 32 33  1  0
 31  3  1  0
 29  5  1  0
 28 11  1  0
 26 19  2  0
  1 34  1  0
  1 35  1  0
  1 36  1  0
  4 37  1  0
  7 38  1  0
 12 39  1  0
 13 40  1  0
 15 41  1  0
 15 42  1  0
 18 43  1  0
 20 44  1  0
 23 45  1  0
 24 46  1  0
 24 47  1  0
 24 48  1  0
 25 49  1  0
 25 50  1  0
 25 51  1  0
 26 52  1  0
 27 53  1  0
 28 54  1  0
 30 55  1  0
 33 56  1  0
 33 57  1  0
 33 58  1  0
M  END
$$$$
