@<TRIPOS>MOLECULE
*****
 30 31 0 0 0
SMALL
GASTEIGER

@<TRIPOS>ATOM
      1 O           4.5565    2.1296   -0.6623 O.2     1  UNL1       -0.2451
      2 C           3.3886    1.8016   -0.3311 C.2     1  UNL1        0.3369
      3 O           2.4621    2.7413    0.0711 O.3     1  UNL1       -0.4771
      4 C           2.9949    0.3811   -0.3716 C.ar    1  UNL1        0.0606
      5 C           3.8821   -0.5925   -0.7653 C.ar    1  UNL1       -0.0477
      6 C           3.5477   -1.9271   -0.8146 C.ar    1  UNL1       -0.0592
      7 C           2.2868   -2.3407   -0.4643 C.ar    1  UNL1       -0.0405
      8 C           1.3794   -1.3571   -0.0634 C.ar    1  UNL1        0.0321
      9 N           0.0914   -1.8144    0.3123 N.pl3   1  UNL1       -0.3145
     10 C          -1.0382   -0.9728    0.1195 C.ar    1  UNL1        0.0313
     11 C          -1.1177    0.0121   -0.8365 C.ar    1  UNL1       -0.0400
     12 C          -2.2398    0.8211   -0.9732 C.ar    1  UNL1       -0.0484
     13 C          -3.3391    0.6775   -0.1532 C.ar    1  UNL1        0.0549
     14 C          -4.5221    1.5525   -0.3200 C.3     1  UNL1        0.4174
     15 F          -5.0740    1.8937    0.9169 F       1  UNL1       -0.1659
     16 F          -4.1999    2.7378   -0.9369 F       1  UNL1       -0.1659
     17 F          -5.5306    0.9482   -1.0436 F       1  UNL1       -0.1659
     18 C          -3.2724   -0.3077    0.8098 C.ar    1  UNL1       -0.0484
     19 C          -2.1600   -1.1093    0.9455 C.ar    1  UNL1       -0.0400
     20 C           1.7260   -0.0200   -0.0170 C.ar    1  UNL1       -0.0266
     21 H           2.7863    3.6438    0.4410 H       1  UNL1        0.2954
     22 H           4.8912   -0.2604   -1.0458 H       1  UNL1        0.0626
     23 H           4.2754   -2.6599   -1.1297 H       1  UNL1        0.0618
     24 H           1.9873   -3.3901   -0.4915 H       1  UNL1        0.0636
     25 H           0.0192   -2.7697    0.7260 H       1  UNL1        0.1522
     26 H          -0.2908    0.1601   -1.5161 H       1  UNL1        0.0636
     27 H          -2.2806    1.5944   -1.7363 H       1  UNL1        0.0624
     28 H          -4.1407   -0.4161    1.4520 H       1  UNL1        0.0624
     29 H          -2.1105   -1.8879    1.7085 H       1  UNL1        0.0636
     30 H           1.0416    0.7310    0.3007 H       1  UNL1        0.0644
@<TRIPOS>BOND
     1     1     2    2
     2     2     3    1
     3     2     4    1
     4     4     5   ar
     5     5     6   ar
     6     6     7   ar
     7     7     8   ar
     8     8     9    1
     9     9    10    1
    10    10    11   ar
    11    11    12   ar
    12    12    13   ar
    13    13    14    1
    14    14    15    1
    15    14    16    1
    16    14    17    1
    17    13    18   ar
    18    18    19   ar
    19     8    20   ar
    20    20     4   ar
    21    19    10   ar
    22     3    21    1
    23     5    22    1
    24     6    23    1
    25     7    24    1
    26     9    25    1
    27    11    26    1
    28    12    27    1
    29    18    28    1
    30    19    29    1
    31    20    30    1
