@<TRIPOS>MOLECULE
*****
 60 63 0 0 0
SMALL
GASTEIGER

@<TRIPOS>ATOM
      1 O           2.6740    0.9037    2.5333 O.3     1  UNL1       -0.3814
      2 C           1.7745    0.0590    3.1554 C.3     1  UNL1        0.1653
      3 C           1.0135   -0.8167    2.2241 C.3     1  UNL1        0.0475
      4 N           0.1993   -0.1917    1.2505 N.pl3   1  UNL1       -0.3139
      5 C          -1.2373   -0.3027    1.4894 C.ar    1  UNL1        0.0732
      6 C          -1.7381   -0.5179    2.7614 C.ar    1  UNL1       -0.0370
      7 C          -3.1204   -0.6194    2.9559 C.ar    1  UNL1       -0.0592
      8 C          -3.9589   -0.5029    1.8768 C.ar    1  UNL1       -0.0504
      9 C          -3.4864   -0.2877    0.6001 C.ar    1  UNL1        0.0258
     10 C          -4.4209   -0.1681   -0.5393 C.ar    1  UNL1       -0.0109
     11 C          -5.4696   -1.0538   -0.6798 C.ar    1  UNL1       -0.0537
     12 C          -6.3683   -0.9859   -1.7211 C.ar    1  UNL1       -0.0577
     13 C          -6.1930    0.0226   -2.6557 C.ar    1  UNL1       -0.0196
     14 C          -5.1319    0.9209   -2.5163 C.ar    1  UNL1        0.1306
     15 O          -5.0053    1.9099   -3.4818 O.3     1  UNL1       -0.4057
     16 C          -5.6624    3.1443   -3.2891 C.3     1  UNL1        0.5752
     17 F          -5.3903    3.9694   -4.3806 F       1  UNL1       -0.1328
     18 F          -7.0242    3.0145   -3.1467 F       1  UNL1       -0.1328
     19 F          -5.0895    3.7470   -2.1828 F       1  UNL1       -0.1328
     20 C          -4.2509    0.8386   -1.4779 C.ar    1  UNL1       -0.0118
     21 C          -2.1277   -0.1925    0.4412 C.ar    1  UNL1        0.1492
     22 O          -1.6053    0.0241   -0.8210 O.3     1  UNL1       -0.4873
     23 C          -0.2287   -0.0871   -1.1083 C.3     1  UNL1        0.1122
     24 C           0.5222    0.5545    0.0831 C.3     1  UNL1        0.0830
     25 C           1.9078    0.7868   -0.2671 C.ar    1  UNL1       -0.0204
     26 C           2.3887    2.0671   -0.3881 C.ar    1  UNL1       -0.0565
     27 C           3.6915    2.2719   -0.7546 C.ar    1  UNL1       -0.0580
     28 C           4.5518    1.2281   -1.0105 C.ar    1  UNL1       -0.0197
     29 C           4.1059   -0.0680   -0.9002 C.ar    1  UNL1        0.1277
     30 O           4.8997   -1.1748   -1.1380 O.3     1  UNL1       -0.4280
     31 C           6.2414   -1.0385   -1.5113 C.3     1  UNL1        0.4625
     32 F           6.9006   -0.3615   -0.5038 F       1  UNL1       -0.1583
     33 F           6.3909   -0.3848   -2.7228 F       1  UNL1       -0.1583
     34 C           6.8955   -2.3964   -1.6726 C.3     1  UNL1        0.3402
     35 F           6.2443   -3.1405   -2.6566 F       1  UNL1       -0.1984
     36 F           8.2087   -2.3072   -2.0154 F       1  UNL1       -0.1984
     37 C           2.7682   -0.2438   -0.5242 C.ar    1  UNL1       -0.0147
     38 C           2.6081   -0.7608    4.1475 C.3     1  UNL1        0.4168
     39 F           3.5890   -1.4847    3.5004 F       1  UNL1       -0.1679
     40 F           3.2313    0.0501    5.0586 F       1  UNL1       -0.1679
     41 F           1.8100   -1.6580    4.8301 F       1  UNL1       -0.1679
     42 H           3.5664    0.5167    2.5196 H       1  UNL1        0.2102
     43 H           1.0551    0.6347    3.8109 H       1  UNL1        0.0699
     44 H           0.4711   -1.5634    2.8652 H       1  UNL1        0.0492
     45 H           1.7786   -1.4832    1.7077 H       1  UNL1        0.0492
     46 H          -1.0645   -0.5927    3.5723 H       1  UNL1        0.0637
     47 H          -3.5243   -0.7867    3.9397 H       1  UNL1        0.0618
     48 H          -5.0519   -0.5757    1.9777 H       1  UNL1        0.0625
     49 H          -5.5808   -1.8353    0.0702 H       1  UNL1        0.0624
     50 H          -7.1991   -1.6942   -1.8236 H       1  UNL1        0.0619
     51 H          -6.8739    0.1113   -3.4872 H       1  UNL1        0.0654
     52 H          -3.4246    1.5186   -1.3462 H       1  UNL1        0.0660
     53 H          -0.0295    0.5672   -1.9899 H       1  UNL1        0.0719
     54 H           0.1057   -1.1239   -1.2599 H       1  UNL1        0.0719
     55 H           0.0122    1.5613    0.1673 H       1  UNL1        0.0583
     56 H           1.7583    2.9137   -0.1998 H       1  UNL1        0.0621
     57 H           4.1069    3.2871   -0.8602 H       1  UNL1        0.0619
     58 H           5.6001    1.4182   -1.3044 H       1  UNL1        0.0654
     59 H           6.7928   -3.0187   -0.7432 H       1  UNL1        0.1124
     60 H           2.3928   -1.2806   -0.4584 H       1  UNL1        0.0657
@<TRIPOS>BOND
     1     1     2    1
     2     2     3    1
     3     3     4    1
     4     4     5    1
     5     5     6   ar
     6     6     7   ar
     7     7     8   ar
     8     8     9   ar
     9     9    10    1
    10    10    11   ar
    11    11    12   ar
    12    12    13   ar
    13    13    14   ar
    14    14    15    1
    15    15    16    1
    16    16    17    1
    17    16    18    1
    18    16    19    1
    19    14    20   ar
    20     9    21   ar
    21    21    22    1
    22    22    23    1
    23    23    24    1
    24    24    25    1
    25    25    26   ar
    26    26    27   ar
    27    27    28   ar
    28    28    29   ar
    29    29    30    1
    30    30    31    1
    31    31    32    1
    32    31    33    1
    33    31    34    1
    34    34    35    1
    35    34    36    1
    36    29    37   ar
    37     2    38    1
    38    38    39    1
    39    38    40    1
    40    38    41    1
    41    24     4    1
    42    37    25   ar
    43    21     5   ar
    44    20    10   ar
    45     1    42    1
    46     2    43    1
    47     3    44    1
    48     3    45    1
    49     6    46    1
    50     7    47    1
    51     8    48    1
    52    11    49    1
    53    12    50    1
    54    13    51    1
    55    20    52    1
    56    23    53    1
    57    23    54    1
    58    24    55    1
    59    26    56    1
    60    27    57    1
    61    28    58    1
    62    34    59    1
    63    37    60    1
