
     RDKit          3D

 60 63  0  0  0  0  0  0  0  0999 V2000
    2.6740    0.9037    2.5333 O   0  0  0  0  0  0  0  0  0  0  0  0
    1.7745    0.0590    3.1554 C   0  0  1  0  0  0  0  0  0  0  0  0
    1.0135   -0.8167    2.2241 C   0  0  0  0  0  0  0  0  0  0  0  0
    0.1993   -0.1917    1.2505 N   0  0  0  0  0  0  0  0  0  0  0  0
   -1.2373   -0.3027    1.4894 C   0  0  0  0  0  0  0  0  0  0  0  0
   -1.7381   -0.5179    2.7614 C   0  0  0  0  0  0  0  0  0  0  0  0
   -3.1204   -0.6194    2.9559 C   0  0  0  0  0  0  0  0  0  0  0  0
   -3.9589   -0.5029    1.8768 C   0  0  0  0  0  0  0  0  0  0  0  0
   -3.4864   -0.2877    0.6001 C   0  0  0  0  0  0  0  0  0  0  0  0
   -4.4209   -0.1681   -0.5393 C   0  0  0  0  0  0  0  0  0  0  0  0
   -5.4696   -1.0538   -0.6798 C   0  0  0  0  0  0  0  0  0  0  0  0
   -6.3683   -0.9859   -1.7211 C   0  0  0  0  0  0  0  0  0  0  0  0
   -6.1930    0.0226   -2.6557 C   0  0  0  0  0  0  0  0  0  0  0  0
   -5.1319    0.9209   -2.5163 C   0  0  0  0  0  0  0  0  0  0  0  0
   -5.0053    1.9099   -3.4818 O   0  0  0  0  0  0  0  0  0  0  0  0
   -5.6624    3.1443   -3.2891 C   0  0  0  0  0  0  0  0  0  0  0  0
   -5.3903    3.9694   -4.3806 F   0  0  0  0  0  0  0  0  0  0  0  0
   -7.0242    3.0145   -3.1467 F   0  0  0  0  0  0  0  0  0  0  0  0
   -5.0895    3.7470   -2.1828 F   0  0  0  0  0  0  0  0  0  0  0  0
   -4.2509    0.8386   -1.4779 C   0  0  0  0  0  0  0  0  0  0  0  0
   -2.1277   -0.1925    0.4412 C   0  0  0  0  0  0  0  0  0  0  0  0
   -1.6053    0.0241   -0.8210 O   0  0  0  0  0  0  0  0  0  0  0  0
   -0.2287   -0.0871   -1.1083 C   0  0  0  0  0  0  0  0  0  0  0  0
    0.5222    0.5545    0.0831 C   0  0  2  0  0  0  0  0  0  0  0  0
    1.9078    0.7868   -0.2671 C   0  0  0  0  0  0  0  0  0  0  0  0
    2.3887    2.0671   -0.3881 C   0  0  0  0  0  0  0  0  0  0  0  0
    3.6915    2.2719   -0.7546 C   0  0  0  0  0  0  0  0  0  0  0  0
    4.5518    1.2281   -1.0105 C   0  0  0  0  0  0  0  0  0  0  0  0
    4.1059   -0.0680   -0.9002 C   0  0  0  0  0  0  0  0  0  0  0  0
    4.8997   -1.1748   -1.1380 O   0  0  0  0  0  0  0  0  0  0  0  0
    6.2414   -1.0385   -1.5113 C   0  0  0  0  0  0  0  0  0  0  0  0
    6.9006   -0.3615   -0.5038 F   0  0  0  0  0  0  0  0  0  0  0  0
    6.3909   -0.3848   -2.7228 F   0  0  0  0  0  0  0  0  0  0  0  0
    6.8955   -2.3964   -1.6726 C   0  0  0  0  0  0  0  0  0  0  0  0
    6.2443   -3.1405   -2.6566 F   0  0  0  0  0  0  0  0  0  0  0  0
    8.2087   -2.3072   -2.0154 F   0  0  0  0  0  0  0  0  0  0  0  0
    2.7682   -0.2438   -0.5242 C   0  0  0  0  0  0  0  0  0  0  0  0
    2.6081   -0.7608    4.1475 C   0  0  0  0  0  0  0  0  0  0  0  0
    3.5890   -1.4847    3.5004 F   0  0  0  0  0  0  0  0  0  0  0  0
    3.2313    0.0501    5.0586 F   0  0  0  0  0  0  0  0  0  0  0  0
    1.8100   -1.6580    4.8301 F   0  0  0  0  0  0  0  0  0  0  0  0
    3.5664    0.5167    2.5196 H   0  0  0  0  0  0  0  0  0  0  0  0
    1.0551    0.6347    3.8109 H   0  0  0  0  0  0  0  0  0  0  0  0
    0.4711   -1.5634    2.8652 H   0  0  0  0  0  0  0  0  0  0  0  0
    1.7786   -1.4832    1.7077 H   0  0  0  0  0  0  0  0  0  0  0  0
   -1.0645   -0.5927    3.5723 H   0  0  0  0  0  0  0  0  0  0  0  0
   -3.5243   -0.7867    3.9397 H   0  0  0  0  0  0  0  0  0  0  0  0
   -5.0519   -0.5757    1.9777 H   0  0  0  0  0  0  0  0  0  0  0  0
   -5.5808   -1.8353    0.0702 H   0  0  0  0  0  0  0  0  0  0  0  0
   -7.1991   -1.6942   -1.8236 H   0  0  0  0  0  0  0  0  0  0  0  0
   -6.8739    0.1113   -3.4872 H   0  0  0  0  0  0  0  0  0  0  0  0
   -3.4246    1.5186   -1.3462 H   0  0  0  0  0  0  0  0  0  0  0  0
   -0.0295    0.5672   -1.9899 H   0  0  0  0  0  0  0  0  0  0  0  0
    0.1057   -1.1239   -1.2599 H   0  0  0  0  0  0  0  0  0  0  0  0
    0.0122    1.5613    0.1673 H   0  0  0  0  0  0  0  0  0  0  0  0
    1.7583    2.9137   -0.1998 H   0  0  0  0  0  0  0  0  0  0  0  0
    4.1069    3.2871   -0.8602 H   0  0  0  0  0  0  0  0  0  0  0  0
    5.6001    1.4182   -1.3044 H   0  0  0  0  0  0  0  0  0  0  0  0
    6.7928   -3.0187   -0.7432 H   0  0  0  0  0  0  0  0  0  0  0  0
    2.3928   -1.2806   -0.4584 H   0  0  0  0  0  0  0  0  0  0  0  0
  1  2  1  0
  2  3  1  0
  3  4  1  0
  4  5  1  0
  5  6  2  0
  6  7  1  0
  7  8  2  0
  8  9  1  0
  9 10  1  0
 10 11  2  0
 11 12  1  0
 12 13  2  0
 13 14  1  0
 14 15  1  0
 15 16  1  0
 16 17  1  0
 16 18  1  0
 16 19  1  0
 14 20  2  0
  9 21  2  0
 21 22  1  0
 22 23  1  0
 23 24  1  0
 24 25  1  0
 25 26  2  0
 26 27  1  0
 27 28  2  0
 28 29  1  0
 29 30  1  0
 30 31  1  0
 31 32  1  0
 31 33  1  0
 31 34  1  0
 34 35  1  0
 34 36  1  0
 29 37  2  0
  2 38  1  0
 38 39  1  0
 38 40  1  0
 38 41  1  0
 24  4  1  0
 37 25  1  0
 21  5  1  0
 20 10  1  0
  1 42  1  0
  2 43  1  1
  3 44  1  0
  3 45  1  0
  6 46  1  0
  7 47  1  0
  8 48  1  0
 11 49  1  0
 12 50  1  0
 13 51  1  0
 20 52  1  0
 23 53  1  0
 23 54  1  0
 24 55  1  1
 26 56  1  0
 27 57  1  0
 28 58  1  0
 34 59  1  0
 37 60  1  0
M  END
$$$$
