@<TRIPOS>MOLECULE
*****
 50 53 0 0 0
SMALL
GASTEIGER

@<TRIPOS>ATOM
      1 C           7.6411    1.2348    0.1024 C.3     1  UNL1       -0.0025
      2 C           7.4381   -0.1852    0.4623 C.1     1  UNL1       -0.1022
      3 C           7.2553   -1.3564    0.7443 C.1     1  UNL1       -0.0617
      4 C           7.0127   -2.7549    1.0903 C.3     1  UNL1        0.1516
      5 O           5.8003   -2.9548    1.7805 O.3     1  UNL1       -0.4624
      6 C           4.6200   -2.5838    1.1483 C.ar    1  UNL1        0.2344
      7 C           3.4090   -2.7620    1.7848 C.ar    1  UNL1        0.0899
      8 N           2.2326   -2.4193    1.2170 N.ar    1  UNL1       -0.2435
      9 C           2.1944   -1.8762   -0.0237 C.ar    1  UNL1        0.1439
     10 C           0.9415   -1.4985   -0.6627 C.2     1  UNL1        0.2681
     11 O           0.9883   -0.9899   -1.8084 O.2     1  UNL1       -0.2681
     12 N          -0.3297   -1.6744   -0.0602 N.am    1  UNL1       -0.2802
     13 C          -1.5590   -1.3123   -0.6610 C.ar    1  UNL1        0.0341
     14 C          -2.2817   -2.1365   -1.4646 C.ar    1  UNL1       -0.0391
     15 C          -3.4680   -1.7185   -2.0053 C.ar    1  UNL1       -0.0413
     16 C          -3.9484   -0.4246   -1.7299 C.ar    1  UNL1        0.0466
     17 CL         -5.4987    0.0634   -2.3927 Cl      1  UNL1       -0.0832
     18 C          -3.2439    0.4373   -0.9222 C.ar    1  UNL1        0.0030
     19 C          -3.7247    1.8349   -0.6553 C.3     1  UNL1        0.1271
     20 C          -3.6705    2.5918   -1.9758 C.3     1  UNL1        0.1199
     21 F          -2.3749    2.6052   -2.4367 F       1  UNL1       -0.2462
     22 N          -5.0379    1.7965   -0.0842 N.2     1  UNL1       -0.2225
     23 C          -5.2355    1.5141    1.1398 C.2     1  UNL1        0.2763
     24 N          -6.5471    1.4705    1.7119 N.pl3   1  UNL1       -0.3134
     25 O          -4.0773    1.2498    1.8855 O.2     1  UNL1       -0.4622
     26 C          -2.9407    2.0266    1.6788 C.3     1  UNL1        0.1090
     27 C          -3.1017    3.4579    1.3044 C.3     1  UNL1       -0.0065
     28 C          -2.7027    2.4736    0.2708 C.3     1  UNL1        0.0314
     29 C          -2.0472   -0.0359   -0.3989 C.ar    1  UNL1       -0.0335
     30 C           3.4087   -1.7023   -0.6510 C.ar    1  UNL1        0.0619
     31 N           4.5882   -2.0435   -0.0877 N.ar    1  UNL1       -0.2177
     32 H           7.0431    1.8952    0.7846 H       1  UNL1        0.0362
     33 H           7.2664    1.4161   -0.9239 H       1  UNL1        0.0362
     34 H           8.6905    1.4706    0.2577 H       1  UNL1        0.0362
     35 H           6.9730   -3.3916    0.1662 H       1  UNL1        0.0837
     36 H           7.8422   -3.1315    1.7301 H       1  UNL1        0.0837
     37 H           3.4463   -3.1998    2.7862 H       1  UNL1        0.0884
     38 H          -0.3345   -2.1083    0.9070 H       1  UNL1        0.1552
     39 H          -1.8998   -3.1442   -1.6731 H       1  UNL1        0.0636
     40 H          -4.0690   -2.3490   -2.6505 H       1  UNL1        0.0633
     41 H          -4.0846    3.6223   -1.8565 H       1  UNL1        0.0643
     42 H          -4.2928    2.1046   -2.7223 H       1  UNL1        0.0643
     43 H          -7.2562    2.1555    1.4128 H       1  UNL1        0.1466
     44 H          -6.7764    0.7567    2.4190 H       1  UNL1        0.1466
     45 H          -2.0313    1.7002    2.2306 H       1  UNL1        0.0737
     46 H          -2.3171    4.1397    1.6504 H       1  UNL1        0.0306
     47 H          -4.1429    3.8266    1.3460 H       1  UNL1        0.0306
     48 H          -1.6997    2.5573   -0.1696 H       1  UNL1        0.0365
     49 H          -1.4696    0.6143    0.2350 H       1  UNL1        0.0640
     50 H           3.3717   -1.2620   -1.6573 H       1  UNL1        0.0854
@<TRIPOS>BOND
     1     1     2    1
     2     2     3    3
     3     3     4    1
     4     4     5    1
     5     5     6    1
     6     6     7   ar
     7     7     8   ar
     8     8     9   ar
     9     9    10    1
    10    10    11    2
    11    10    12   am
    12    12    13    1
    13    13    14   ar
    14    14    15   ar
    15    15    16   ar
    16    16    17    1
    17    16    18   ar
    18    18    19    1
    19    19    20    1
    20    20    21    1
    21    19    22    1
    22    22    23    2
    23    23    24    1
    24    23    25    1
    25    25    26    1
    26    26    27    1
    27    27    28    1
    28    18    29   ar
    29     9    30   ar
    30    30    31   ar
    31    31     6   ar
    32    29    13   ar
    33    28    19    1
    34    28    26    1
    35     1    32    1
    36     1    33    1
    37     1    34    1
    38     4    35    1
    39     4    36    1
    40     7    37    1
    41    12    38    1
    42    14    39    1
    43    15    40    1
    44    20    41    1
    45    20    42    1
    46    24    43    1
    47    24    44    1
    48    26    45    1
    49    27    46    1
    50    27    47    1
    51    28    48    1
    52    29    49    1
    53    30    50    1
