
     RDKit          3D

 50 53  0  0  0  0  0  0  0  0999 V2000
    7.6411    1.2348    0.1024 C   0  0  0  0  0  0  0  0  0  0  0  0
    7.4381   -0.1852    0.4623 C   0  0  0  0  0  0  0  0  0  0  0  0
    7.2553   -1.3564    0.7443 C   0  0  0  0  0  0  0  0  0  0  0  0
    7.0127   -2.7549    1.0903 C   0  0  0  0  0  0  0  0  0  0  0  0
    5.8003   -2.9548    1.7805 O   0  0  0  0  0  0  0  0  0  0  0  0
    4.6200   -2.5838    1.1483 C   0  0  0  0  0  0  0  0  0  0  0  0
    3.4090   -2.7620    1.7848 C   0  0  0  0  0  0  0  0  0  0  0  0
    2.2326   -2.4193    1.2170 N   0  0  0  0  0  0  0  0  0  0  0  0
    2.1944   -1.8762   -0.0237 C   0  0  0  0  0  0  0  0  0  0  0  0
    0.9415   -1.4985   -0.6627 C   0  0  0  0  0  0  0  0  0  0  0  0
    0.9883   -0.9899   -1.8084 O   0  0  0  0  0  0  0  0  0  0  0  0
   -0.3297   -1.6744   -0.0602 N   0  0  0  0  0  0  0  0  0  0  0  0
   -1.5590   -1.3123   -0.6610 C   0  0  0  0  0  0  0  0  0  0  0  0
   -2.2817   -2.1365   -1.4646 C   0  0  0  0  0  0  0  0  0  0  0  0
   -3.4680   -1.7185   -2.0053 C   0  0  0  0  0  0  0  0  0  0  0  0
   -3.9484   -0.4246   -1.7299 C   0  0  0  0  0  0  0  0  0  0  0  0
   -5.4987    0.0634   -2.3927 Cl  0  0  0  0  0  0  0  0  0  0  0  0
   -3.2439    0.4373   -0.9222 C   0  0  0  0  0  0  0  0  0  0  0  0
   -3.7247    1.8349   -0.6553 C   0  0  1  0  0  0  0  0  0  0  0  0
   -3.6705    2.5918   -1.9758 C   0  0  0  0  0  0  0  0  0  0  0  0
   -2.3749    2.6052   -2.4367 F   0  0  0  0  0  0  0  0  0  0  0  0
   -5.0379    1.7965   -0.0842 N   0  0  0  0  0  0  0  0  0  0  0  0
   -5.2355    1.5141    1.1398 C   0  0  0  0  0  0  0  0  0  0  0  0
   -6.5471    1.4705    1.7119 N   0  0  0  0  0  0  0  0  0  0  0  0
   -4.0773    1.2498    1.8855 O   0  0  0  0  0  0  0  0  0  0  0  0
   -2.9407    2.0266    1.6788 C   0  0  2  0  0  0  0  0  0  0  0  0
   -3.1017    3.4579    1.3044 C   0  0  0  0  0  0  0  0  0  0  0  0
   -2.7027    2.4736    0.2708 C   0  0  2  0  0  0  0  0  0  0  0  0
   -2.0472   -0.0359   -0.3989 C   0  0  0  0  0  0  0  0  0  0  0  0
    3.4087   -1.7023   -0.6510 C   0  0  0  0  0  0  0  0  0  0  0  0
    4.5882   -2.0435   -0.0877 N   0  0  0  0  0  0  0  0  0  0  0  0
    7.0431    1.8952    0.7846 H   0  0  0  0  0  0  0  0  0  0  0  0
    7.2664    1.4161   -0.9239 H   0  0  0  0  0  0  0  0  0  0  0  0
    8.6905    1.4706    0.2577 H   0  0  0  0  0  0  0  0  0  0  0  0
    6.9730   -3.3916    0.1662 H   0  0  0  0  0  0  0  0  0  0  0  0
    7.8422   -3.1315    1.7301 H   0  0  0  0  0  0  0  0  0  0  0  0
    3.4463   -3.1998    2.7862 H   0  0  0  0  0  0  0  0  0  0  0  0
   -0.3345   -2.1083    0.9070 H   0  0  0  0  0  0  0  0  0  0  0  0
   -1.8998   -3.1442   -1.6731 H   0  0  0  0  0  0  0  0  0  0  0  0
   -4.0690   -2.3490   -2.6505 H   0  0  0  0  0  0  0  0  0  0  0  0
   -4.0846    3.6223   -1.8565 H   0  0  0  0  0  0  0  0  0  0  0  0
   -4.2928    2.1046   -2.7223 H   0  0  0  0  0  0  0  0  0  0  0  0
   -7.2562    2.1555    1.4128 H   0  0  0  0  0  0  0  0  0  0  0  0
   -6.7764    0.7567    2.4190 H   0  0  0  0  0  0  0  0  0  0  0  0
   -2.0313    1.7002    2.2306 H   0  0  0  0  0  0  0  0  0  0  0  0
   -2.3171    4.1397    1.6504 H   0  0  0  0  0  0  0  0  0  0  0  0
   -4.1429    3.8266    1.3460 H   0  0  0  0  0  0  0  0  0  0  0  0
   -1.6997    2.5573   -0.1696 H   0  0  0  0  0  0  0  0  0  0  0  0
   -1.4696    0.6143    0.2350 H   0  0  0  0  0  0  0  0  0  0  0  0
    3.3717   -1.2620   -1.6573 H   0  0  0  0  0  0  0  0  0  0  0  0
  1  2  1  0
  2  3  3  0
  3  4  1  0
  4  5  1  0
  5  6  1  0
  6  7  2  0
  7  8  1  0
  8  9  2  0
  9 10  1  0
 10 11  2  0
 10 12  1  0
 12 13  1  0
 13 14  2  0
 14 15  1  0
 15 16  2  0
 16 17  1  0
 16 18  1  0
 18 19  1  0
 19 20  1  6
 20 21  1  0
 19 22  1  0
 22 23  2  0
 23 24  1  0
 23 25  1  0
 25 26  1  0
 26 27  1  0
 27 28  1  0
 18 29  2  0
  9 30  1  0
 30 31  2  0
 31  6  1  0
 29 13  1  0
 28 19  1  0
 28 26  1  0
  1 32  1  0
  1 33  1  0
  1 34  1  0
  4 35  1  0
  4 36  1  0
  7 37  1  0
 12 38  1  0
 14 39  1  0
 15 40  1  0
 20 41  1  0
 20 42  1  0
 24 43  1  0
 24 44  1  0
 26 45  1  1
 27 46  1  0
 27 47  1  0
 28 48  1  6
 29 49  1  0
 30 50  1  0
M  END
$$$$
