@<TRIPOS>MOLECULE
*****
 57 59 0 0 0
SMALL
GASTEIGER

@<TRIPOS>ATOM
      1 C           0.6160   -0.1931    1.1443 C.3     1  UNL1        0.1188
      2 C           0.8826    1.2146    0.6329 C.3     1  UNL1       -0.0203
      3 C          -0.2980    1.7698   -0.1067 C.3     1  UNL1       -0.0199
      4 C           0.0523    3.1817   -0.5859 C.3     1  UNL1        0.0647
      5 N          -1.0299    3.7865   -1.3071 N.pl3   1  UNL1       -0.2761
      6 C          -0.7611    5.1096   -1.7842 C.cat   1  UNL1        0.3762
      7 N          -1.6330    5.6744   -2.7829 N.pl3   1  UNL1       -0.2893
      8 N           0.1987    5.8983   -1.4248 N.pl3   1  UNL1       -0.1298
      9 N          -0.5182   -0.1589    2.0432 N.2     1  UNL1       -0.2417
     10 C          -1.6686   -0.5673    1.6279 C.2     1  UNL1        0.2044
     11 O          -2.6547   -0.4715    2.6067 O.2     1  UNL1       -0.4943
     12 C          -2.2656   -1.1294    0.3653 C.3     1  UNL1        0.1037
     13 C          -3.3580   -0.2467   -0.1555 C.3     1  UNL1        0.0019
     14 C          -4.4788   -1.2497   -0.4613 C.3     1  UNL1        0.0731
     15 O          -4.0560   -1.9891   -1.5506 O.3     1  UNL1       -0.3902
     16 C          -4.3503   -2.1411    0.7815 C.3     1  UNL1        0.0415
     17 N          -2.9079   -2.4019    0.7229 N.am    1  UNL1       -0.2875
     18 C          -2.2261   -3.6271    0.9579 C.2     1  UNL1        0.2132
     19 C          -3.0162   -4.8296    1.3103 C.3     1  UNL1        0.0124
     20 O          -0.9780   -3.7736    0.8885 O.2     1  UNL1       -0.2759
     21 C           1.7694   -0.7159    1.9081 C.2     1  UNL1        0.2122
     22 O           1.8425   -1.0764    3.0947 O.2     1  UNL1       -0.2876
     23 C           2.9116   -0.7332    0.9245 C.ar    1  UNL1        0.1468
     24 N           3.3193   -0.5365   -0.1269 N.ar    1  UNL1       -0.2360
     25 C           4.5310   -0.7131   -0.6177 C.ar    1  UNL1        0.0790
     26 C           5.0028   -0.4687   -1.8917 C.ar    1  UNL1       -0.0352
     27 C           6.3240   -0.7350   -2.1715 C.ar    1  UNL1       -0.0597
     28 C           7.2601   -1.2359   -1.2897 C.ar    1  UNL1       -0.0606
     29 C           6.8365   -1.4953   -0.0071 C.ar    1  UNL1       -0.0459
     30 C           5.4848   -1.2129    0.2449 C.ar    1  UNL1        0.0396
     31 S           4.4725   -1.4031    1.8239 S.2     1  UNL1       -0.0643
     32 H           0.3701   -0.8604    0.2945 H       1  UNL1        0.0629
     33 H           1.1030    1.8727    1.4959 H       1  UNL1        0.0291
     34 H           1.7419    1.2390   -0.0521 H       1  UNL1        0.0291
     35 H          -0.5868    1.1724   -0.9811 H       1  UNL1        0.0296
     36 H          -1.1721    1.8935    0.5609 H       1  UNL1        0.0296
     37 H           0.9480    3.1459   -1.2180 H       1  UNL1        0.0655
     38 H           0.3049    3.8338    0.2858 H       1  UNL1        0.0655
     39 H          -1.9649    3.3736   -1.5136 H       1  UNL1        0.2579
     40 H          -2.5464    6.1800   -2.7816 H       1  UNL1        0.2546
     41 H          -2.2082    6.0567   -3.5543 H       1  UNL1        0.2546
     42 H           0.9077    5.6131   -0.7043 H       1  UNL1        0.3062
     43 H          -2.5059   -0.0944    3.5322 H       1  UNL1        0.2935
     44 H          -1.4958   -1.2973   -0.3892 H       1  UNL1        0.0599
     45 H          -3.0762    0.3131   -1.0644 H       1  UNL1        0.0313
     46 H          -3.7656    0.3987    0.6521 H       1  UNL1        0.0313
     47 H          -5.4564   -0.7819   -0.5585 H       1  UNL1        0.0610
     48 H          -3.5110   -1.4577   -2.2004 H       1  UNL1        0.2098
     49 H          -4.9460   -3.0535    0.7180 H       1  UNL1        0.0490
     50 H          -4.5271   -1.5508    1.7013 H       1  UNL1        0.0490
     51 H          -2.3903   -5.5918    1.8413 H       1  UNL1        0.0323
     52 H          -3.8735   -4.6406    1.9648 H       1  UNL1        0.0323
     53 H          -3.4157   -5.3556    0.3993 H       1  UNL1        0.0323
     54 H           4.3911   -0.0721   -2.7085 H       1  UNL1        0.0639
     55 H           6.6880   -0.5341   -3.1960 H       1  UNL1        0.0618
     56 H           8.2798   -1.4478   -1.4831 H       1  UNL1        0.0618
     57 H           7.4037   -1.8845    0.8260 H       1  UNL1        0.0629
@<TRIPOS>BOND
     1     1     2    1
     2     2     3    1
     3     3     4    1
     4     4     5    1
     5     5     6    1
     6     6     7    1
     7     6     8    2
     8     1     9    1
     9     9    10    2
    10    10    11    1
    11    10    12    1
    12    12    13    1
    13    13    14    1
    14    14    15    1
    15    14    16    1
    16    16    17    1
    17    17    18   am
    18    18    19    1
    19    18    20    2
    20     1    21    1
    21    21    22    2
    22    21    23    1
    23    23    24   ar
    24    24    25   ar
    25    25    26   ar
    26    26    27   ar
    27    27    28   ar
    28    28    29   ar
    29    29    30   ar
    30    30    31   ar
    31    17    12    1
    32    31    23   ar
    33    30    25   ar
    34     1    32    1
    35     2    33    1
    36     2    34    1
    37     3    35    1
    38     3    36    1
    39     4    37    1
    40     4    38    1
    41     5    39    1
    42     7    40    1
    43     7    41    1
    44     8    42    1
    45    11    43    1
    46    12    44    1
    47    13    45    1
    48    13    46    1
    49    14    47    1
    50    15    48    1
    51    16    49    1
    52    16    50    1
    53    19    51    1
    54    19    52    1
    55    19    53    1
    56    26    54    1
    57    27    55    1
    58    28    56    1
    59    29    57    1
