
     RDKit          3D

 30 29  0  0  0  0  0  0  0  0999 V2000
    4.9459   -0.2572    0.5187 C   0  0  0  0  0  0  0  0  0  0  0  0
    4.7058   -0.5090   -0.8194 O   0  0  0  0  0  0  0  0  0  0  0  0
    3.8758    0.4311   -1.3920 C   0  0  0  0  0  0  0  0  0  0  0  0
    2.5221    0.5389   -0.7797 C   0  0  0  0  0  0  0  0  0  0  0  0
    1.8034   -0.6653   -0.8484 O   0  0  0  0  0  0  0  0  0  0  0  0
    0.5651   -0.3622   -0.2244 C   0  0  0  0  0  0  0  0  0  0  0  0
   -0.3454   -1.5344   -0.2012 C   0  0  0  0  0  0  0  0  0  0  0  0
   -1.5599   -1.2799    0.4032 O   0  0  0  0  0  0  0  0  0  0  0  0
   -2.2528   -0.2752   -0.2413 C   0  0  0  0  0  0  0  0  0  0  0  0
   -3.5827   -0.0979    0.4932 C   0  0  0  0  0  0  0  0  0  0  0  0
   -4.3389    0.9136   -0.1144 O   0  0  0  0  0  0  0  0  0  0  0  0
   -5.5289    1.0209    0.6007 C   0  0  0  0  0  0  0  0  0  0  0  0
    5.4242    0.7316    0.7112 H   0  0  0  0  0  0  0  0  0  0  0  0
    3.9828   -0.3157    1.0619 H   0  0  0  0  0  0  0  0  0  0  0  0
    5.6338   -1.0882    0.8670 H   0  0  0  0  0  0  0  0  0  0  0  0
    3.8641    0.3273   -2.4914 H   0  0  0  0  0  0  0  0  0  0  0  0
    4.3815    1.4236   -1.2033 H   0  0  0  0  0  0  0  0  0  0  0  0
    1.9218    1.2631   -1.3754 H   0  0  0  0  0  0  0  0  0  0  0  0
    2.5793    0.8832    0.2514 H   0  0  0  0  0  0  0  0  0  0  0  0
    0.7748    0.0594    0.7598 H   0  0  0  0  0  0  0  0  0  0  0  0
    0.1426    0.4672   -0.8606 H   0  0  0  0  0  0  0  0  0  0  0  0
   -0.4893   -1.9102   -1.2356 H   0  0  0  0  0  0  0  0  0  0  0  0
    0.1408   -2.3443    0.3949 H   0  0  0  0  0  0  0  0  0  0  0  0
   -1.6797    0.6872   -0.0781 H   0  0  0  0  0  0  0  0  0  0  0  0
   -2.4030   -0.4769   -1.3173 H   0  0  0  0  0  0  0  0  0  0  0  0
   -3.3447    0.2681    1.5130 H   0  0  0  0  0  0  0  0  0  0  0  0
   -4.1497   -1.0280    0.5382 H   0  0  0  0  0  0  0  0  0  0  0  0
   -6.0664    0.0468    0.5610 H   0  0  0  0  0  0  0  0  0  0  0  0
   -6.1310    1.8241    0.1310 H   0  0  0  0  0  0  0  0  0  0  0  0
   -5.3915    1.2583    1.6628 H   0  0  0  0  0  0  0  0  0  0  0  0
  1  2  1  0
  2  3  1  0
  3  4  1  0
  4  5  1  0
  5  6  1  0
  6  7  1  0
  7  8  1  0
  8  9  1  0
  9 10  1  0
 10 11  1  0
 11 12  1  0
  1 13  1  0
  1 14  1  0
  1 15  1  0
  3 16  1  0
  3 17  1  0
  4 18  1  0
  4 19  1  0
  6 20  1  0
  6 21  1  0
  7 22  1  0
  7 23  1  0
  9 24  1  0
  9 25  1  0
 10 26  1  0
 10 27  1  0
 12 28  1  0
 12 29  1  0
 12 30  1  0
M  END
$$$$
