@<TRIPOS>MOLECULE
*****
 30 29 0 0 0
SMALL
GASTEIGER

@<TRIPOS>ATOM
      1 C           4.9459   -0.2572    0.5187 C.3     1  UNL1        0.0365
      2 O           4.7058   -0.5090   -0.8194 O.3     1  UNL1       -0.3807
      3 C           3.8758    0.4311   -1.3920 C.3     1  UNL1        0.0706
      4 C           2.5221    0.5389   -0.7797 C.3     1  UNL1        0.0711
      5 O           1.8034   -0.6653   -0.8484 O.3     1  UNL1       -0.3752
      6 C           0.5651   -0.3622   -0.2244 C.3     1  UNL1        0.0711
      7 C          -0.3454   -1.5344   -0.2012 C.3     1  UNL1        0.0711
      8 O          -1.5599   -1.2799    0.4032 O.3     1  UNL1       -0.3752
      9 C          -2.2528   -0.2752   -0.2413 C.3     1  UNL1        0.0711
     10 C          -3.5827   -0.0979    0.4932 C.3     1  UNL1        0.0706
     11 O          -4.3389    0.9136   -0.1144 O.3     1  UNL1       -0.3807
     12 C          -5.5289    1.0209    0.6007 C.3     1  UNL1        0.0365
     13 H           5.4242    0.7316    0.7112 H       1  UNL1        0.0524
     14 H           3.9828   -0.3157    1.0619 H       1  UNL1        0.0524
     15 H           5.6338   -1.0882    0.8670 H       1  UNL1        0.0524
     16 H           3.8641    0.3273   -2.4914 H       1  UNL1        0.0582
     17 H           4.3815    1.4236   -1.2033 H       1  UNL1        0.0582
     18 H           1.9218    1.2631   -1.3754 H       1  UNL1        0.0583
     19 H           2.5793    0.8832    0.2514 H       1  UNL1        0.0583
     20 H           0.7748    0.0594    0.7598 H       1  UNL1        0.0583
     21 H           0.1426    0.4672   -0.8606 H       1  UNL1        0.0583
     22 H          -0.4893   -1.9102   -1.2356 H       1  UNL1        0.0583
     23 H           0.1408   -2.3443    0.3949 H       1  UNL1        0.0583
     24 H          -1.6797    0.6872   -0.0781 H       1  UNL1        0.0583
     25 H          -2.4030   -0.4769   -1.3173 H       1  UNL1        0.0583
     26 H          -3.3447    0.2681    1.5130 H       1  UNL1        0.0582
     27 H          -4.1497   -1.0280    0.5382 H       1  UNL1        0.0582
     28 H          -6.0664    0.0468    0.5610 H       1  UNL1        0.0524
     29 H          -6.1310    1.8241    0.1310 H       1  UNL1        0.0524
     30 H          -5.3915    1.2583    1.6628 H       1  UNL1        0.0524
@<TRIPOS>BOND
     1     1     2    1
     2     2     3    1
     3     3     4    1
     4     4     5    1
     5     5     6    1
     6     6     7    1
     7     7     8    1
     8     8     9    1
     9     9    10    1
    10    10    11    1
    11    11    12    1
    12     1    13    1
    13     1    14    1
    14     1    15    1
    15     3    16    1
    16     3    17    1
    17     4    18    1
    18     4    19    1
    19     6    20    1
    20     6    21    1
    21     7    22    1
    22     7    23    1
    23     9    24    1
    24     9    25    1
    25    10    26    1
    26    10    27    1
    27    12    28    1
    28    12    29    1
    29    12    30    1
