
     RDKit          3D

 30 31  0  0  0  0  0  0  0  0999 V2000
   -3.8853    1.9247    0.2069 O   0  0  0  0  0  0  0  0  0  0  0  0
   -2.7455    2.0627   -0.3852 C   0  0  0  0  0  0  0  0  0  0  0  0
   -1.9336    3.1368   -0.1241 O   0  0  0  0  0  0  0  0  0  0  0  0
   -2.3343    1.0234   -1.3581 C   0  0  0  0  0  0  0  0  0  0  0  0
   -1.9652   -0.1662   -0.5566 C   0  0  0  0  0  0  0  0  0  0  0  0
   -2.9729   -1.0619   -0.2483 C   0  0  0  0  0  0  0  0  0  0  0  0
   -2.7569   -2.1552    0.5512 C   0  0  0  0  0  0  0  0  0  0  0  0
   -1.4550   -2.3148    1.0402 C   0  0  0  0  0  0  0  0  0  0  0  0
   -0.4588   -1.4256    0.7318 C   0  0  0  0  0  0  0  0  0  0  0  0
   -0.6852   -0.3116   -0.0864 C   0  0  0  0  0  0  0  0  0  0  0  0
    0.3658    0.5325   -0.4608 N   0  0  0  0  0  0  0  0  0  0  0  0
    1.7123    0.2958   -0.1090 C   0  0  0  0  0  0  0  0  0  0  0  0
    2.4946   -0.4742   -0.9722 C   0  0  0  0  0  0  0  0  0  0  0  0
    1.8465   -1.1694   -2.4472 Cl  0  0  0  0  0  0  0  0  0  0  0  0
    3.8256   -0.7350   -0.7057 C   0  0  0  0  0  0  0  0  0  0  0  0
    4.3998   -0.2239    0.4424 C   0  0  0  0  0  0  0  0  0  0  0  0
    3.6555    0.5326    1.3050 C   0  0  0  0  0  0  0  0  0  0  0  0
    2.3387    0.7768    1.0160 C   0  0  0  0  0  0  0  0  0  0  0  0
    1.3791    1.7478    2.1182 Cl  0  0  0  0  0  0  0  0  0  0  0  0
   -2.0945    3.7737    0.6576 H   0  0  0  0  0  0  0  0  0  0  0  0
   -3.2120    0.7538   -1.9973 H   0  0  0  0  0  0  0  0  0  0  0  0
   -1.5240    1.4017   -1.9761 H   0  0  0  0  0  0  0  0  0  0  0  0
   -4.0011   -0.9386   -0.6385 H   0  0  0  0  0  0  0  0  0  0  0  0
   -3.5344   -2.8642    0.8051 H   0  0  0  0  0  0  0  0  0  0  0  0
   -1.2679   -3.1665    1.6716 H   0  0  0  0  0  0  0  0  0  0  0  0
    0.5604   -1.5192    1.0993 H   0  0  0  0  0  0  0  0  0  0  0  0
    0.2176    1.4147   -1.0387 H   0  0  0  0  0  0  0  0  0  0  0  0
    4.4443   -1.3321   -1.3692 H   0  0  0  0  0  0  0  0  0  0  0  0
    5.4645   -0.4407    0.6381 H   0  0  0  0  0  0  0  0  0  0  0  0
    4.1220    0.9219    2.1902 H   0  0  0  0  0  0  0  0  0  0  0  0
  1  2  2  0
  2  3  1  0
  2  4  1  0
  4  5  1  0
  5  6  2  0
  6  7  1  0
  7  8  2  0
  8  9  1  0
  9 10  2  0
 10 11  1  0
 11 12  1  0
 12 13  2  0
 13 14  1  0
 13 15  1  0
 15 16  2  0
 16 17  1  0
 17 18  2  0
 18 19  1  0
 10  5  1  0
 18 12  1  0
  3 20  1  0
  4 21  1  0
  4 22  1  0
  6 23  1  0
  7 24  1  0
  8 25  1  0
  9 26  1  0
 11 27  1  0
 15 28  1  0
 16 29  1  0
 17 30  1  0
M  END
$$$$
