@<TRIPOS>MOLECULE
*****
 30 31 0 0 0
SMALL
GASTEIGER

@<TRIPOS>ATOM
      1 O          -3.8853    1.9247    0.2069 O.2     1  UNL1       -0.2507
      2 C          -2.7455    2.0627   -0.3852 C.2     1  UNL1        0.3091
      3 O          -1.9336    3.1368   -0.1241 O.3     1  UNL1       -0.4804
      4 C          -2.3343    1.0234   -1.3581 C.3     1  UNL1        0.0716
      5 C          -1.9652   -0.1662   -0.5566 C.ar    1  UNL1       -0.0156
      6 C          -2.9729   -1.0619   -0.2483 C.ar    1  UNL1       -0.0563
      7 C          -2.7569   -2.1552    0.5512 C.ar    1  UNL1       -0.0614
      8 C          -1.4550   -2.3148    1.0402 C.ar    1  UNL1       -0.0600
      9 C          -0.4588   -1.4256    0.7318 C.ar    1  UNL1       -0.0403
     10 C          -0.6852   -0.3116   -0.0864 C.ar    1  UNL1        0.0351
     11 N           0.3658    0.5325   -0.4608 N.pl3   1  UNL1       -0.3120
     12 C           1.7123    0.2958   -0.1090 C.ar    1  UNL1        0.0684
     13 C           2.4946   -0.4742   -0.9722 C.ar    1  UNL1        0.0635
     14 CL          1.8465   -1.1694   -2.4472 Cl      1  UNL1       -0.0816
     15 C           3.8256   -0.7350   -0.7057 C.ar    1  UNL1       -0.0415
     16 C           4.3998   -0.2239    0.4424 C.ar    1  UNL1       -0.0589
     17 C           3.6555    0.5326    1.3050 C.ar    1  UNL1       -0.0415
     18 C           2.3387    0.7768    1.0160 C.ar    1  UNL1        0.0635
     19 CL          1.3791    1.7478    2.1182 Cl      1  UNL1       -0.0816
     20 H          -2.0945    3.7737    0.6576 H       1  UNL1        0.2951
     21 H          -3.2120    0.7538   -1.9973 H       1  UNL1        0.0427
     22 H          -1.5240    1.4017   -1.9761 H       1  UNL1        0.0427
     23 H          -4.0011   -0.9386   -0.6385 H       1  UNL1        0.0621
     24 H          -3.5344   -2.8642    0.8051 H       1  UNL1        0.0618
     25 H          -1.2679   -3.1665    1.6716 H       1  UNL1        0.0618
     26 H           0.5604   -1.5192    1.0993 H       1  UNL1        0.0636
     27 H           0.2176    1.4147   -1.0387 H       1  UNL1        0.1522
     28 H           4.4443   -1.3321   -1.3692 H       1  UNL1        0.0633
     29 H           5.4645   -0.4407    0.6381 H       1  UNL1        0.0618
     30 H           4.1220    0.9219    2.1902 H       1  UNL1        0.0633
@<TRIPOS>BOND
     1     1     2    2
     2     2     3    1
     3     2     4    1
     4     4     5    1
     5     5     6   ar
     6     6     7   ar
     7     7     8   ar
     8     8     9   ar
     9     9    10   ar
    10    10    11    1
    11    11    12    1
    12    12    13   ar
    13    13    14    1
    14    13    15   ar
    15    15    16   ar
    16    16    17   ar
    17    17    18   ar
    18    18    19    1
    19    10     5   ar
    20    18    12   ar
    21     3    20    1
    22     4    21    1
    23     4    22    1
    24     6    23    1
    25     7    24    1
    26     8    25    1
    27     9    26    1
    28    11    27    1
    29    15    28    1
    30    16    29    1
    31    17    30    1
