
     RDKit          3D

 30 31  0  0  0  0  0  0  0  0999 V2000
   -3.9294    1.3973    0.4075 C   0  0  0  0  0  0  0  0  0  0  0  0
   -3.2193    0.6752   -0.7445 C   0  0  0  0  0  0  0  0  0  0  0  0
   -4.1319   -0.2413   -1.4242 C   0  0  0  0  0  0  0  0  0  0  0  0
   -4.6836   -1.2139   -0.5897 O   0  0  0  0  0  0  0  0  0  0  0  0
   -4.4834   -0.2738   -2.6389 O   0  0  0  0  0  0  0  0  0  0  0  0
   -2.0755   -0.0128   -0.1420 C   0  0  0  0  0  0  0  0  0  0  0  0
   -1.9690   -1.0760    0.7760 C   0  0  0  0  0  0  0  0  0  0  0  0
   -0.7075   -1.4684    1.1247 C   0  0  0  0  0  0  0  0  0  0  0  0
    0.3714   -0.8146    0.5695 C   0  0  0  0  0  0  0  0  0  0  0  0
   -0.3711    0.4117   -0.4943 S   0  0  0  0  0  0  0  0  0  0  0  0
    1.7456   -1.0591    0.7988 C   0  0  0  0  0  0  0  0  0  0  0  0
    2.0389   -1.9604    1.6186 O   0  0  0  0  0  0  0  0  0  0  0  0
    2.7993   -0.3194    0.1337 C   0  0  0  0  0  0  0  0  0  0  0  0
    3.9801   -0.2675    0.8757 C   0  0  0  0  0  0  0  0  0  0  0  0
    5.1262    0.3918    0.4224 C   0  0  0  0  0  0  0  0  0  0  0  0
    5.0709    1.0100   -0.8086 C   0  0  0  0  0  0  0  0  0  0  0  0
    3.9199    0.9757   -1.5635 C   0  0  0  0  0  0  0  0  0  0  0  0
    2.8092    0.3159   -1.0840 C   0  0  0  0  0  0  0  0  0  0  0  0
   -4.7201    2.0354   -0.0212 H   0  0  0  0  0  0  0  0  0  0  0  0
   -3.1861    2.0550    0.9193 H   0  0  0  0  0  0  0  0  0  0  0  0
   -4.3248    0.6629    1.1218 H   0  0  0  0  0  0  0  0  0  0  0  0
   -2.9053    1.4828   -1.4400 H   0  0  0  0  0  0  0  0  0  0  0  0
   -5.3850   -1.8725   -0.9601 H   0  0  0  0  0  0  0  0  0  0  0  0
   -2.9201   -1.4628    1.1020 H   0  0  0  0  0  0  0  0  0  0  0  0
   -0.6061   -2.2888    1.8335 H   0  0  0  0  0  0  0  0  0  0  0  0
    4.1048   -0.7330    1.8613 H   0  0  0  0  0  0  0  0  0  0  0  0
    6.0323    0.4208    1.0132 H   0  0  0  0  0  0  0  0  0  0  0  0
    5.9191    1.5448   -1.2336 H   0  0  0  0  0  0  0  0  0  0  0  0
    3.8240    1.4401   -2.5275 H   0  0  0  0  0  0  0  0  0  0  0  0
    1.8763    0.2449   -1.6202 H   0  0  0  0  0  0  0  0  0  0  0  0
  1  2  1  0
  2  3  1  0
  3  4  1  0
  3  5  2  0
  2  6  1  0
  6  7  2  0
  7  8  1  0
  8  9  2  0
  9 10  1  0
  9 11  1  0
 11 12  2  0
 11 13  1  0
 13 14  2  0
 14 15  1  0
 15 16  2  0
 16 17  1  0
 17 18  2  0
 10  6  1  0
 18 13  1  0
  1 19  1  0
  1 20  1  0
  1 21  1  0
  2 22  1  0
  4 23  1  0
  7 24  1  0
  8 25  1  0
 14 26  1  0
 15 27  1  0
 16 28  1  0
 17 29  1  0
 18 30  1  0
M  END
$$$$
