@<TRIPOS>MOLECULE
*****
 52 56 0 0 0
SMALL
GASTEIGER

@<TRIPOS>ATOM
      1 N           2.9921    4.8862    0.3470 N.1     1  UNL1       -0.1893
      2 C           2.4723    4.2470   -0.5146 C.1     1  UNL1        0.1192
      3 C           1.8531    3.4699   -1.5240 C.ar    1  UNL1        0.1438
      4 C           1.5613    3.8835   -2.8312 C.ar    1  UNL1        0.0643
      5 N           0.9822    2.8390   -3.4415 N.ar    1  UNL1       -0.2348
      6 C           0.8946    1.7980   -2.5947 C.ar    1  UNL1        0.1385
      7 C           0.3840    0.5100   -2.7428 C.ar    1  UNL1       -0.0181
      8 C           0.4403   -0.3410   -1.6708 C.ar    1  UNL1       -0.0477
      9 C           0.9871    0.0631   -0.4773 C.ar    1  UNL1        0.0173
     10 C           1.0275   -0.8868    0.6449 C.ar    1  UNL1        0.0779
     11 C           1.9659   -1.8577    0.9064 C.ar    1  UNL1        0.0968
     12 C           3.1520   -2.1555    0.1272 C.ar    1  UNL1        0.0040
     13 C           4.3980   -2.0402    0.6995 C.ar    1  UNL1       -0.0497
     14 C           5.5558   -2.3128    0.0028 C.ar    1  UNL1       -0.0244
     15 C           5.4591   -2.7127   -1.3053 C.ar    1  UNL1        0.1417
     16 F           6.5905   -2.9796   -1.9851 F       1  UNL1       -0.2040
     17 C           4.2327   -2.8429   -1.9225 C.ar    1  UNL1        0.0767
     18 CL          4.1769   -3.3577   -3.5992 Cl      1  UNL1       -0.0806
     19 C           3.1010   -2.5597   -1.1879 C.ar    1  UNL1       -0.0313
     20 N           1.5885   -2.4882    2.0223 N.ar    1  UNL1       -0.2351
     21 C           0.4482   -1.9165    2.4326 C.ar    1  UNL1        0.0971
     22 N           0.0946   -0.9346    1.5969 N.ar    1  UNL1       -0.3283
     23 C          -1.0910   -0.0860    1.7194 C.3     1  UNL1        0.0375
     24 C          -2.2274   -0.7279    0.9595 C.3     1  UNL1        0.0171
     25 N          -3.4320   -0.0014    0.9895 N.3     1  UNL1       -0.2963
     26 C          -4.5399   -0.5449    0.2900 C.3     1  UNL1        0.0225
     27 C          -5.3475    0.6543   -0.2273 C.3     1  UNL1        0.0604
     28 O          -5.7288    1.3771    0.8966 O.3     1  UNL1       -0.3772
     29 C          -4.6888    1.9285    1.5957 C.3     1  UNL1        0.0604
     30 C          -3.7158    0.8546    2.0628 C.3     1  UNL1        0.0225
     31 C           1.4783    1.3476   -0.3827 C.ar    1  UNL1        0.0216
     32 N           1.4312    2.2018   -1.4297 N.ar    1  UNL1       -0.2906
     33 H           1.7546    4.8454   -3.2793 H       1  UNL1        0.0859
     34 H          -0.0414    0.2057   -3.6784 H       1  UNL1        0.0654
     35 H           0.0414   -1.3661   -1.7668 H       1  UNL1        0.0626
     36 H           4.5114   -1.7238    1.7405 H       1  UNL1        0.0625
     37 H           6.5260   -2.2129    0.4790 H       1  UNL1        0.0647
     38 H           2.1548   -2.6719   -1.6968 H       1  UNL1        0.0640
     39 H          -0.0680   -2.2543    3.3309 H       1  UNL1        0.1029
     40 H          -0.8675    0.9268    1.3948 H       1  UNL1        0.0505
     41 H          -1.3876   -0.1057    2.8110 H       1  UNL1        0.0505
     42 H          -2.4102   -1.7416    1.4095 H       1  UNL1        0.0444
     43 H          -1.9116   -0.8995   -0.0716 H       1  UNL1        0.0444
     44 H          -5.1966   -1.0536    1.0250 H       1  UNL1        0.0449
     45 H          -4.2096   -1.2064   -0.5072 H       1  UNL1        0.0449
     46 H          -6.2558    0.3410   -0.7552 H       1  UNL1        0.0572
     47 H          -4.7204    1.2422   -0.9257 H       1  UNL1        0.0572
     48 H          -4.1542    2.7455    1.0566 H       1  UNL1        0.0572
     49 H          -5.1183    2.3707    2.5254 H       1  UNL1        0.0572
     50 H          -2.7899    1.2959    2.4661 H       1  UNL1        0.0449
     51 H          -4.2698    0.2570    2.8456 H       1  UNL1        0.0449
     52 H           1.9169    1.6910    0.5575 H       1  UNL1        0.0820
@<TRIPOS>BOND
     1     1     2    3
     2     2     3    1
     3     3     4   ar
     4     4     5   ar
     5     5     6   ar
     6     6     7   ar
     7     7     8   ar
     8     8     9   ar
     9     9    10    1
    10    10    11   ar
    11    11    12    1
    12    12    13   ar
    13    13    14   ar
    14    14    15   ar
    15    15    16    1
    16    15    17   ar
    17    17    18    1
    18    17    19   ar
    19    11    20   ar
    20    20    21   ar
    21    21    22   ar
    22    22    23    1
    23    23    24    1
    24    24    25    1
    25    25    26    1
    26    26    27    1
    27    27    28    1
    28    28    29    1
    29    29    30    1
    30     9    31   ar
    31    31    32   ar
    32    32     3   ar
    33    32     6   ar
    34    22    10   ar
    35    30    25    1
    36    19    12   ar
    37     4    33    1
    38     7    34    1
    39     8    35    1
    40    13    36    1
    41    14    37    1
    42    19    38    1
    43    21    39    1
    44    23    40    1
    45    23    41    1
    46    24    42    1
    47    24    43    1
    48    26    44    1
    49    26    45    1
    50    27    46    1
    51    27    47    1
    52    29    48    1
    53    29    49    1
    54    30    50    1
    55    30    51    1
    56    31    52    1
