@<TRIPOS>MOLECULE
*****
 50 54 0 0 0
SMALL
GASTEIGER

@<TRIPOS>ATOM
      1 CL         -7.8066    4.3697    0.2578 Cl      1  UNL1       -0.0835
      2 C          -6.5946    3.1133    0.1003 C.ar    1  UNL1        0.0410
      3 C          -6.4493    2.1119    1.0344 C.ar    1  UNL1       -0.0427
      4 C          -5.4680    1.1259    0.8718 C.ar    1  UNL1       -0.0497
      5 C          -4.6282    1.1299   -0.2169 C.ar    1  UNL1        0.0174
      6 C          -3.6090    0.0931   -0.3714 C.ar    1  UNL1        0.1358
      7 C          -2.7149    0.0152   -1.4384 C.ar    1  UNL1       -0.0152
      8 C          -1.9448   -1.0980   -1.1859 C.ar    1  UNL1       -0.0122
      9 C          -2.3698   -1.6643   -0.0029 C.ar    1  UNL1        0.1711
     10 C          -1.8072   -2.8602    0.6103 C.ar    1  UNL1        0.1811
     11 N          -2.4967   -3.9479    1.0683 N.ar    1  UNL1       -0.2328
     12 C          -1.6092   -4.8299    1.5597 C.ar    1  UNL1        0.0465
     13 C          -0.3485   -4.2508    1.3901 C.ar    1  UNL1        0.0299
     14 N          -0.5008   -3.0537    0.8104 N.ar    1  UNL1       -0.2970
     15 C           0.5262   -2.1492    0.4673 C.ar    1  UNL1        0.0482
     16 C           0.4536   -0.7981    0.7119 C.ar    1  UNL1       -0.0361
     17 C           1.4454    0.1022    0.3847 C.ar    1  UNL1       -0.0387
     18 C           2.5938   -0.3409   -0.2255 C.ar    1  UNL1        0.0299
     19 N           3.6476    0.5367   -0.5870 N.pl3   1  UNL1       -0.3275
     20 C           3.6549    1.9541   -0.4059 C.3     1  UNL1        0.0248
     21 C           4.6962    2.2573    0.6686 C.3     1  UNL1        0.0117
     22 N           5.8949    1.5316    0.3603 N.3     1  UNL1       -0.3130
     23 C           5.9467    1.0346   -0.9946 C.3     1  UNL1        0.0117
     24 C           4.8590   -0.0267   -1.2044 C.3     1  UNL1        0.0248
     25 C           2.6933   -1.6838   -0.4816 C.ar    1  UNL1       -0.0387
     26 C           1.7052   -2.5833   -0.1559 C.ar    1  UNL1       -0.0361
     27 O          -3.3467   -0.9017    0.4043 O.2     1  UNL1       -0.4518
     28 C          -4.7844    2.1317   -1.1372 C.ar    1  UNL1       -0.0497
     29 C          -5.7582    3.1220   -0.9892 C.ar    1  UNL1       -0.0427
     30 H          -7.0918    2.0748    1.9053 H       1  UNL1        0.0632
     31 H          -5.3709    0.3485    1.6172 H       1  UNL1        0.0625
     32 H          -2.6663    0.7012   -2.2696 H       1  UNL1        0.0656
     33 H          -1.1325   -1.4726   -1.8149 H       1  UNL1        0.0657
     34 H          -1.8827   -5.7793    1.9867 H       1  UNL1        0.0845
     35 H           0.5703   -4.7335    1.6950 H       1  UNL1        0.0829
     36 H          -0.4306   -0.4085    1.1893 H       1  UNL1        0.0639
     37 H           1.3486    1.1659    0.5967 H       1  UNL1        0.0637
     38 H           4.0230    2.4084   -1.3747 H       1  UNL1        0.0476
     39 H           2.7004    2.4328   -0.2121 H       1  UNL1        0.0476
     40 H           4.2616    1.8933    1.6254 H       1  UNL1        0.0439
     41 H           4.8712    3.3380    0.7819 H       1  UNL1        0.0439
     42 H           6.7535    2.0974    0.5347 H       1  UNL1        0.1220
     43 H           5.9322    1.8059   -1.7628 H       1  UNL1        0.0439
     44 H           6.9172    0.4932   -1.0943 H       1  UNL1        0.0439
     45 H           4.7009   -0.2332   -2.2631 H       1  UNL1        0.0476
     46 H           5.2202   -0.9128   -0.6190 H       1  UNL1        0.0476
     47 H           3.5941   -2.0885   -0.9694 H       1  UNL1        0.0637
     48 H           1.8121   -3.6412   -0.3711 H       1  UNL1        0.0639
     49 H          -4.1425    2.1532   -1.9900 H       1  UNL1        0.0625
     50 H          -5.8681    3.9159   -1.7365 H       1  UNL1        0.0632
@<TRIPOS>BOND
     1     1     2    1
     2     2     3   ar
     3     3     4   ar
     4     4     5   ar
     5     5     6    1
     6     6     7   ar
     7     7     8   ar
     8     8     9   ar
     9     9    10    1
    10    10    11   ar
    11    11    12   ar
    12    12    13   ar
    13    13    14   ar
    14    14    15    1
    15    15    16   ar
    16    16    17   ar
    17    17    18   ar
    18    18    19    1
    19    19    20    1
    20    20    21    1
    21    21    22    1
    22    22    23    1
    23    23    24    1
    24    18    25   ar
    25    25    26   ar
    26     9    27   ar
    27     5    28   ar
    28    28    29   ar
    29    29     2   ar
    30    27     6   ar
    31    14    10   ar
    32    26    15   ar
    33    24    19    1
    34     3    30    1
    35     4    31    1
    36     7    32    1
    37     8    33    1
    38    12    34    1
    39    13    35    1
    40    16    36    1
    41    17    37    1
    42    20    38    1
    43    20    39    1
    44    21    40    1
    45    21    41    1
    46    22    42    1
    47    23    43    1
    48    23    44    1
    49    24    45    1
    50    24    46    1
    51    25    47    1
    52    26    48    1
    53    28    49    1
    54    29    50    1
