
     RDKit          3D

 50 54  0  0  0  0  0  0  0  0999 V2000
   -7.8066    4.3697    0.2578 Cl  0  0  0  0  0  0  0  0  0  0  0  0
   -6.5946    3.1133    0.1003 C   0  0  0  0  0  0  0  0  0  0  0  0
   -6.4493    2.1119    1.0344 C   0  0  0  0  0  0  0  0  0  0  0  0
   -5.4680    1.1259    0.8718 C   0  0  0  0  0  0  0  0  0  0  0  0
   -4.6282    1.1299   -0.2169 C   0  0  0  0  0  0  0  0  0  0  0  0
   -3.6090    0.0931   -0.3714 C   0  0  0  0  0  0  0  0  0  0  0  0
   -2.7149    0.0152   -1.4384 C   0  0  0  0  0  0  0  0  0  0  0  0
   -1.9448   -1.0980   -1.1859 C   0  0  0  0  0  0  0  0  0  0  0  0
   -2.3698   -1.6643   -0.0029 C   0  0  0  0  0  0  0  0  0  0  0  0
   -1.8072   -2.8602    0.6103 C   0  0  0  0  0  0  0  0  0  0  0  0
   -2.4967   -3.9479    1.0683 N   0  0  0  0  0  0  0  0  0  0  0  0
   -1.6092   -4.8299    1.5597 C   0  0  0  0  0  0  0  0  0  0  0  0
   -0.3485   -4.2508    1.3901 C   0  0  0  0  0  0  0  0  0  0  0  0
   -0.5008   -3.0537    0.8104 N   0  0  0  0  0  0  0  0  0  0  0  0
    0.5262   -2.1492    0.4673 C   0  0  0  0  0  0  0  0  0  0  0  0
    0.4536   -0.7981    0.7119 C   0  0  0  0  0  0  0  0  0  0  0  0
    1.4454    0.1022    0.3847 C   0  0  0  0  0  0  0  0  0  0  0  0
    2.5938   -0.3409   -0.2255 C   0  0  0  0  0  0  0  0  0  0  0  0
    3.6476    0.5367   -0.5870 N   0  0  0  0  0  0  0  0  0  0  0  0
    3.6549    1.9541   -0.4059 C   0  0  0  0  0  0  0  0  0  0  0  0
    4.6962    2.2573    0.6686 C   0  0  0  0  0  0  0  0  0  0  0  0
    5.8949    1.5316    0.3603 N   0  0  0  0  0  0  0  0  0  0  0  0
    5.9467    1.0346   -0.9946 C   0  0  0  0  0  0  0  0  0  0  0  0
    4.8590   -0.0267   -1.2044 C   0  0  0  0  0  0  0  0  0  0  0  0
    2.6933   -1.6838   -0.4816 C   0  0  0  0  0  0  0  0  0  0  0  0
    1.7052   -2.5833   -0.1559 C   0  0  0  0  0  0  0  0  0  0  0  0
   -3.3467   -0.9017    0.4043 O   0  0  0  0  0  0  0  0  0  0  0  0
   -4.7844    2.1317   -1.1372 C   0  0  0  0  0  0  0  0  0  0  0  0
   -5.7582    3.1220   -0.9892 C   0  0  0  0  0  0  0  0  0  0  0  0
   -7.0918    2.0748    1.9053 H   0  0  0  0  0  0  0  0  0  0  0  0
   -5.3709    0.3485    1.6172 H   0  0  0  0  0  0  0  0  0  0  0  0
   -2.6663    0.7012   -2.2696 H   0  0  0  0  0  0  0  0  0  0  0  0
   -1.1325   -1.4726   -1.8149 H   0  0  0  0  0  0  0  0  0  0  0  0
   -1.8827   -5.7793    1.9867 H   0  0  0  0  0  0  0  0  0  0  0  0
    0.5703   -4.7335    1.6950 H   0  0  0  0  0  0  0  0  0  0  0  0
   -0.4306   -0.4085    1.1893 H   0  0  0  0  0  0  0  0  0  0  0  0
    1.3486    1.1659    0.5967 H   0  0  0  0  0  0  0  0  0  0  0  0
    4.0230    2.4084   -1.3747 H   0  0  0  0  0  0  0  0  0  0  0  0
    2.7004    2.4328   -0.2121 H   0  0  0  0  0  0  0  0  0  0  0  0
    4.2616    1.8933    1.6254 H   0  0  0  0  0  0  0  0  0  0  0  0
    4.8712    3.3380    0.7819 H   0  0  0  0  0  0  0  0  0  0  0  0
    6.7535    2.0974    0.5347 H   0  0  0  0  0  0  0  0  0  0  0  0
    5.9322    1.8059   -1.7628 H   0  0  0  0  0  0  0  0  0  0  0  0
    6.9172    0.4932   -1.0943 H   0  0  0  0  0  0  0  0  0  0  0  0
    4.7009   -0.2332   -2.2631 H   0  0  0  0  0  0  0  0  0  0  0  0
    5.2202   -0.9128   -0.6190 H   0  0  0  0  0  0  0  0  0  0  0  0
    3.5941   -2.0885   -0.9694 H   0  0  0  0  0  0  0  0  0  0  0  0
    1.8121   -3.6412   -0.3711 H   0  0  0  0  0  0  0  0  0  0  0  0
   -4.1425    2.1532   -1.9900 H   0  0  0  0  0  0  0  0  0  0  0  0
   -5.8681    3.9159   -1.7365 H   0  0  0  0  0  0  0  0  0  0  0  0
  1  2  1  0
  2  3  2  0
  3  4  1  0
  4  5  2  0
  5  6  1  0
  6  7  2  0
  7  8  1  0
  8  9  2  0
  9 10  1  0
 10 11  2  0
 11 12  1  0
 12 13  2  0
 13 14  1  0
 14 15  1  0
 15 16  2  0
 16 17  1  0
 17 18  2  0
 18 19  1  0
 19 20  1  0
 20 21  1  0
 21 22  1  0
 22 23  1  0
 23 24  1  0
 18 25  1  0
 25 26  2  0
  9 27  1  0
  5 28  1  0
 28 29  2  0
 29  2  1  0
 27  6  1  0
 14 10  1  0
 26 15  1  0
 24 19  1  0
  3 30  1  0
  4 31  1  0
  7 32  1  0
  8 33  1  0
 12 34  1  0
 13 35  1  0
 16 36  1  0
 17 37  1  0
 20 38  1  0
 20 39  1  0
 21 40  1  0
 21 41  1  0
 22 42  1  0
 23 43  1  0
 23 44  1  0
 24 45  1  0
 24 46  1  0
 25 47  1  0
 26 48  1  0
 28 49  1  0
 29 50  1  0
M  END
$$$$
