@<TRIPOS>MOLECULE
*****
 31 32 0 0 0
SMALL
GASTEIGER

@<TRIPOS>ATOM
      1 C          -1.8157    0.4585   -0.8528 C.3     1  UNL1        0.1110
      2 C          -2.5568    1.6767   -1.3056 C.3     1  UNL1        0.0729
      3 O          -2.1090    2.7963   -0.6279 O.3     1  UNL1       -0.3924
      4 O          -0.4513    0.6145   -1.0979 O.3     1  UNL1       -0.3564
      5 C           0.2294   -0.5787   -0.9956 C.3     1  UNL1        0.1645
      6 C           1.6405   -0.3553   -0.5320 C.ar    1  UNL1        0.2483
      7 N           2.2734   -1.0889    0.4314 N.ar    1  UNL1       -0.1095
      8 N           3.4833   -0.6348    0.5909 N.ar    1  UNL1       -0.1126
      9 C           3.6024    0.3869   -0.2789 C.ar    1  UNL1        0.2144
     10 C           4.8135    1.2312   -0.4725 C.3     1  UNL1        0.0138
     11 O           2.4815    0.5331   -0.9403 O.2     1  UNL1       -0.4221
     12 C          -0.4115   -1.6248   -0.1667 C.3     1  UNL1        0.1183
     13 O          -0.9346   -2.6305   -1.0050 O.3     1  UNL1       -0.3861
     14 C          -1.4275   -1.1953    0.8310 C.3     1  UNL1        0.1122
     15 O          -1.0253   -1.4126    2.1657 O.3     1  UNL1       -0.3865
     16 C          -1.8914    0.2365    0.6452 C.3     1  UNL1        0.1117
     17 O          -3.1245    0.4769    1.1911 O.3     1  UNL1       -0.3865
     18 H          -2.2366   -0.4424   -1.3459 H       1  UNL1        0.0646
     19 H          -2.2982    1.8200   -2.3769 H       1  UNL1        0.0584
     20 H          -3.6458    1.5399   -1.2640 H       1  UNL1        0.0584
     21 H          -2.0545    2.6078    0.3434 H       1  UNL1        0.2095
     22 H           0.3486   -0.9354   -2.0540 H       1  UNL1        0.0722
     23 H           5.5141    1.0500    0.3768 H       1  UNL1        0.0324
     24 H           4.5745    2.3063   -0.5042 H       1  UNL1        0.0324
     25 H           5.3967    0.9232   -1.3855 H       1  UNL1        0.0324
     26 H           0.3821   -2.1738    0.4243 H       1  UNL1        0.0651
     27 H          -0.9126   -3.4991   -0.5611 H       1  UNL1        0.2100
     28 H          -2.3538   -1.7986    0.7119 H       1  UNL1        0.0647
     29 H          -1.2042   -2.3567    2.4189 H       1  UNL1        0.2100
     30 H          -1.1624    0.9234    1.1515 H       1  UNL1        0.0647
     31 H          -3.1242    1.1457    1.9223 H       1  UNL1        0.2100
@<TRIPOS>BOND
     1     1     2    1
     2     2     3    1
     3     1     4    1
     4     4     5    1
     5     5     6    1
     6     6     7   ar
     7     7     8   ar
     8     8     9   ar
     9     9    10    1
    10     9    11   ar
    11     5    12    1
    12    12    13    1
    13    12    14    1
    14    14    15    1
    15    14    16    1
    16    16    17    1
    17    16     1    1
    18    11     6   ar
    19     1    18    1
    20     2    19    1
    21     2    20    1
    22     3    21    1
    23     5    22    1
    24    10    23    1
    25    10    24    1
    26    10    25    1
    27    12    26    1
    28    13    27    1
    29    14    28    1
    30    15    29    1
    31    16    30    1
    32    17    31    1
