@<TRIPOS>MOLECULE
*****
 51 55 0 0 0
SMALL
GASTEIGER

@<TRIPOS>ATOM
      1 O           0.7175    0.2008    2.8204 O.2     1  UNL1       -0.1685
      2 S           1.1758   -0.5010    1.5587 S.O2    1  UNL1        0.0072
      3 O           1.0475   -1.9653    1.8901 O.2     1  UNL1       -0.1685
      4 C           2.8356   -0.2250    1.2249 C.ar    1  UNL1        0.0893
      5 C           3.3680    1.0072    1.4886 C.ar    1  UNL1       -0.0355
      6 C           4.6832    1.2726    1.2437 C.ar    1  UNL1       -0.0416
      7 C           5.5186    0.2875    0.7160 C.ar    1  UNL1        0.0411
      8 CL          7.2043    0.6373    0.4053 Cl      1  UNL1       -0.0835
      9 C           4.9486   -0.9466    0.4613 C.ar    1  UNL1       -0.0416
     10 C           3.6204   -1.2085    0.7106 C.ar    1  UNL1       -0.0355
     11 C           0.0571   -0.1792    0.2163 C.3     1  UNL1        0.1302
     12 C           0.4391   -1.0724   -0.9235 C.3     1  UNL1       -0.0227
     13 C          -0.3509   -2.3558   -1.0326 C.3     1  UNL1       -0.0501
     14 C          -1.8163   -2.0680   -1.2664 C.3     1  UNL1       -0.0447
     15 C          -2.3200   -1.0133   -0.3119 C.3     1  UNL1        0.0045
     16 C          -3.4238   -1.7241    0.4981 C.3     1  UNL1       -0.0213
     17 C          -4.6992   -1.0455    0.1410 C.3     1  UNL1        0.0483
     18 O          -4.2873    0.2233   -0.2494 O.3     1  UNL1       -0.3792
     19 C          -3.1737   -0.0532   -1.0635 C.3     1  UNL1        0.0538
     20 C          -1.3332   -0.4912    0.6422 C.3     1  UNL1        0.0307
     21 C          -1.9473    0.6141    1.4834 C.3     1  UNL1        0.0955
     22 O          -1.8332    1.8686    0.8887 O.3     1  UNL1       -0.4883
     23 C          -0.7715    2.1744    0.0831 C.ar    1  UNL1        0.1635
     24 C          -0.6344    3.5056   -0.3957 C.ar    1  UNL1        0.1653
     25 F          -1.5926    4.3787   -0.0027 F       1  UNL1       -0.2016
     26 C           0.4113    3.8560   -1.2030 C.ar    1  UNL1       -0.0201
     27 C           1.3227    2.8870   -1.5367 C.ar    1  UNL1       -0.0232
     28 C           1.2183    1.5883   -1.0892 C.ar    1  UNL1        0.1323
     29 F           2.0959    0.6337   -1.3907 F       1  UNL1       -0.2050
     30 C           0.1480    1.2143   -0.2591 C.ar    1  UNL1        0.0600
     31 H           2.7507    1.7835    1.8941 H       1  UNL1        0.0637
     32 H           5.1498    2.2367    1.4374 H       1  UNL1        0.0633
     33 H           5.6124   -1.7125    0.0474 H       1  UNL1        0.0633
     34 H           3.2635   -2.2217    0.4742 H       1  UNL1        0.0637
     35 H           0.2556   -0.5339   -1.8686 H       1  UNL1        0.0290
     36 H           1.5086   -1.3822   -0.9250 H       1  UNL1        0.0290
     37 H           0.1116   -2.9346   -1.8550 H       1  UNL1        0.0266
     38 H          -0.2766   -2.9852   -0.1255 H       1  UNL1        0.0266
     39 H          -1.8893   -1.6770   -2.3041 H       1  UNL1        0.0271
     40 H          -2.4301   -2.9865   -1.2751 H       1  UNL1        0.0271
     41 H          -3.4362   -2.8183    0.3007 H       1  UNL1        0.0294
     42 H          -3.2358   -1.6312    1.5915 H       1  UNL1        0.0294
     43 H          -5.2848   -1.5472   -0.6525 H       1  UNL1        0.0560
     44 H          -5.3697   -0.9157    1.0309 H       1  UNL1        0.0560
     45 H          -3.6446   -0.6028   -1.9413 H       1  UNL1        0.0565
     46 H          -2.7092    0.8078   -1.5111 H       1  UNL1        0.0565
     47 H          -1.2038   -1.3151    1.4293 H       1  UNL1        0.0365
     48 H          -1.5058    0.6251    2.5222 H       1  UNL1        0.0700
     49 H          -3.0130    0.3600    1.6795 H       1  UNL1        0.0700
     50 H           0.5288    4.8520   -1.5715 H       1  UNL1        0.0648
     51 H           2.1893    3.0984   -2.1827 H       1  UNL1        0.0647
@<TRIPOS>BOND
     1     1     2    2
     2     2     3    2
     3     2     4    1
     4     4     5   ar
     5     5     6   ar
     6     6     7   ar
     7     7     8    1
     8     7     9   ar
     9     9    10   ar
    10    11     2    1
    11    11    12    1
    12    12    13    1
    13    13    14    1
    14    15    14    1
    15    15    16    1
    16    16    17    1
    17    17    18    1
    18    18    19    1
    19    15    20    1
    20    20    21    1
    21    21    22    1
    22    22    23    1
    23    23    24   ar
    24    24    25    1
    25    24    26   ar
    26    26    27   ar
    27    27    28   ar
    28    28    29    1
    29    28    30   ar
    30    10     4   ar
    31    20    11    1
    32    30    23   ar
    33    30    11    1
    34    19    15    1
    35     5    31    1
    36     6    32    1
    37     9    33    1
    38    10    34    1
    39    12    35    1
    40    12    36    1
    41    13    37    1
    42    13    38    1
    43    14    39    1
    44    14    40    1
    45    16    41    1
    46    16    42    1
    47    17    43    1
    48    17    44    1
    49    19    45    1
    50    19    46    1
    51    20    47    1
    52    21    48    1
    53    21    49    1
    54    26    50    1
    55    27    51    1
