
     RDKit          3D

 51 55  0  0  0  0  0  0  0  0999 V2000
    0.7175    0.2008    2.8204 O   0  0  0  0  0  0  0  0  0  0  0  0
    1.1758   -0.5010    1.5587 S   0  0  0  0  0  6  0  0  0  0  0  0
    1.0475   -1.9653    1.8901 O   0  0  0  0  0  0  0  0  0  0  0  0
    2.8356   -0.2250    1.2249 C   0  0  0  0  0  0  0  0  0  0  0  0
    3.3680    1.0072    1.4886 C   0  0  0  0  0  0  0  0  0  0  0  0
    4.6832    1.2726    1.2437 C   0  0  0  0  0  0  0  0  0  0  0  0
    5.5186    0.2875    0.7160 C   0  0  0  0  0  0  0  0  0  0  0  0
    7.2043    0.6373    0.4053 Cl  0  0  0  0  0  0  0  0  0  0  0  0
    4.9486   -0.9466    0.4613 C   0  0  0  0  0  0  0  0  0  0  0  0
    3.6204   -1.2085    0.7106 C   0  0  0  0  0  0  0  0  0  0  0  0
    0.0571   -0.1792    0.2163 C   0  0  1  0  0  0  0  0  0  0  0  0
    0.4391   -1.0724   -0.9235 C   0  0  0  0  0  0  0  0  0  0  0  0
   -0.3509   -2.3558   -1.0326 C   0  0  0  0  0  0  0  0  0  0  0  0
   -1.8163   -2.0680   -1.2664 C   0  0  0  0  0  0  0  0  0  0  0  0
   -2.3200   -1.0133   -0.3119 C   0  0  2  0  0  0  0  0  0  0  0  0
   -3.4238   -1.7241    0.4981 C   0  0  0  0  0  0  0  0  0  0  0  0
   -4.6992   -1.0455    0.1410 C   0  0  0  0  0  0  0  0  0  0  0  0
   -4.2873    0.2233   -0.2494 O   0  0  0  0  0  0  0  0  0  0  0  0
   -3.1737   -0.0532   -1.0635 C   0  0  0  0  0  0  0  0  0  0  0  0
   -1.3332   -0.4912    0.6422 C   0  0  2  0  0  0  0  0  0  0  0  0
   -1.9473    0.6141    1.4834 C   0  0  0  0  0  0  0  0  0  0  0  0
   -1.8332    1.8686    0.8887 O   0  0  0  0  0  0  0  0  0  0  0  0
   -0.7715    2.1744    0.0831 C   0  0  0  0  0  0  0  0  0  0  0  0
   -0.6344    3.5056   -0.3957 C   0  0  0  0  0  0  0  0  0  0  0  0
   -1.5926    4.3787   -0.0027 F   0  0  0  0  0  0  0  0  0  0  0  0
    0.4113    3.8560   -1.2030 C   0  0  0  0  0  0  0  0  0  0  0  0
    1.3227    2.8870   -1.5367 C   0  0  0  0  0  0  0  0  0  0  0  0
    1.2183    1.5883   -1.0892 C   0  0  0  0  0  0  0  0  0  0  0  0
    2.0959    0.6337   -1.3907 F   0  0  0  0  0  0  0  0  0  0  0  0
    0.1480    1.2143   -0.2591 C   0  0  0  0  0  0  0  0  0  0  0  0
    2.7507    1.7835    1.8941 H   0  0  0  0  0  0  0  0  0  0  0  0
    5.1498    2.2367    1.4374 H   0  0  0  0  0  0  0  0  0  0  0  0
    5.6124   -1.7125    0.0474 H   0  0  0  0  0  0  0  0  0  0  0  0
    3.2635   -2.2217    0.4742 H   0  0  0  0  0  0  0  0  0  0  0  0
    0.2556   -0.5339   -1.8686 H   0  0  0  0  0  0  0  0  0  0  0  0
    1.5086   -1.3822   -0.9250 H   0  0  0  0  0  0  0  0  0  0  0  0
    0.1116   -2.9346   -1.8550 H   0  0  0  0  0  0  0  0  0  0  0  0
   -0.2766   -2.9852   -0.1255 H   0  0  0  0  0  0  0  0  0  0  0  0
   -1.8893   -1.6770   -2.3041 H   0  0  0  0  0  0  0  0  0  0  0  0
   -2.4301   -2.9865   -1.2751 H   0  0  0  0  0  0  0  0  0  0  0  0
   -3.4362   -2.8183    0.3007 H   0  0  0  0  0  0  0  0  0  0  0  0
   -3.2358   -1.6312    1.5915 H   0  0  0  0  0  0  0  0  0  0  0  0
   -5.2848   -1.5472   -0.6525 H   0  0  0  0  0  0  0  0  0  0  0  0
   -5.3697   -0.9157    1.0309 H   0  0  0  0  0  0  0  0  0  0  0  0
   -3.6446   -0.6028   -1.9413 H   0  0  0  0  0  0  0  0  0  0  0  0
   -2.7092    0.8078   -1.5111 H   0  0  0  0  0  0  0  0  0  0  0  0
   -1.2038   -1.3151    1.4293 H   0  0  0  0  0  0  0  0  0  0  0  0
   -1.5058    0.6251    2.5222 H   0  0  0  0  0  0  0  0  0  0  0  0
   -3.0130    0.3600    1.6795 H   0  0  0  0  0  0  0  0  0  0  0  0
    0.5288    4.8520   -1.5715 H   0  0  0  0  0  0  0  0  0  0  0  0
    2.1893    3.0984   -2.1827 H   0  0  0  0  0  0  0  0  0  0  0  0
  1  2  2  0
  2  3  2  0
  2  4  1  0
  4  5  2  0
  5  6  1  0
  6  7  2  0
  7  8  1  0
  7  9  1  0
  9 10  2  0
 11  2  1  1
 11 12  1  0
 12 13  1  0
 13 14  1  0
 15 14  1  6
 15 16  1  0
 16 17  1  0
 17 18  1  0
 18 19  1  0
 15 20  1  0
 20 21  1  0
 21 22  1  0
 22 23  1  0
 23 24  2  0
 24 25  1  0
 24 26  1  0
 26 27  2  0
 27 28  1  0
 28 29  1  0
 28 30  2  0
 10  4  1  0
 20 11  1  0
 30 23  1  0
 30 11  1  0
 19 15  1  0
  5 31  1  0
  6 32  1  0
  9 33  1  0
 10 34  1  0
 12 35  1  0
 12 36  1  0
 13 37  1  0
 13 38  1  0
 14 39  1  0
 14 40  1  0
 16 41  1  0
 16 42  1  0
 17 43  1  0
 17 44  1  0
 19 45  1  0
 19 46  1  0
 20 47  1  1
 21 48  1  0
 21 49  1  0
 26 50  1  0
 27 51  1  0
M  END
$$$$
