
     RDKit          3D

 18 17  0  0  0  0  0  0  0  0999 V2000
    0.9364   -1.7544    0.5642 O   0  0  0  0  0  0  0  0  0  0  0  0
    0.0468   -0.6896    0.4781 C   0  0  0  0  0  0  0  0  0  0  0  0
   -1.2331   -1.1414   -0.2266 C   0  0  0  0  0  0  0  0  0  0  0  0
   -2.1390    0.0181   -0.2923 C   0  0  0  0  0  0  0  0  0  0  0  0
   -2.9950    1.1073   -0.3210 O   0  0  0  0  0  0  0  0  0  0  0  0
   -2.5064    0.2564    0.9081 O   0  0  0  0  0  0  0  0  0  0  0  0
    0.6945    0.3391   -0.4197 C   0  0  0  0  0  0  0  0  0  0  0  0
    1.9825    0.8105    0.1168 C   0  0  0  0  0  0  0  0  0  0  0  0
    2.7664    1.7519   -0.5227 O   0  0  0  0  0  0  0  0  0  0  0  0
    2.4682    0.3885    1.2046 O   0  0  0  0  0  0  0  0  0  0  0  0
    1.0227   -2.0038    1.5173 H   0  0  0  0  0  0  0  0  0  0  0  0
   -0.1536   -0.2966    1.4742 H   0  0  0  0  0  0  0  0  0  0  0  0
   -1.7048   -2.0143    0.2862 H   0  0  0  0  0  0  0  0  0  0  0  0
   -1.0047   -1.4610   -1.2572 H   0  0  0  0  0  0  0  0  0  0  0  0
   -2.7564    1.9342   -0.8917 H   0  0  0  0  0  0  0  0  0  0  0  0
    0.7835   -0.1027   -1.4476 H   0  0  0  0  0  0  0  0  0  0  0  0
    0.0237    1.2126   -0.5237 H   0  0  0  0  0  0  0  0  0  0  0  0
    3.7684    1.6451   -0.6470 H   0  0  0  0  0  0  0  0  0  0  0  0
  1  2  1  0
  2  3  1  0
  3  4  1  0
  4  5  1  0
  4  6  2  0
  2  7  1  0
  7  8  1  0
  8  9  1  0
  8 10  2  0
  1 11  1  0
  2 12  1  0
  3 13  1  0
  3 14  1  0
  5 15  1  0
  7 16  1  0
  7 17  1  0
  9 18  1  0
M  END
$$$$
