
     RDKit          3D

 64 68  0  0  0  0  0  0  0  0999 V2000
    0.4497   -1.0806    1.2832 O   0  0  0  0  0  0  0  0  0  0  0  0
    0.3892   -0.3389    0.2770 C   0  0  0  0  0  0  0  0  0  0  0  0
    1.5640   -0.0023   -0.4076 N   0  0  0  0  0  0  0  0  0  0  0  0
    2.8769   -0.4815    0.0014 C   0  0  0  0  0  0  0  0  0  0  0  0
    3.7862    0.6402    0.3996 C   0  0  0  0  0  0  0  0  0  0  0  0
    5.1815    0.0881    0.6031 C   0  0  0  0  0  0  0  0  0  0  0  0
    5.7822   -0.3319   -0.7324 C   0  0  0  0  0  0  0  0  0  0  0  0
    4.6938   -0.6348   -1.7408 C   0  0  0  0  0  0  0  0  0  0  0  0
    3.5050   -1.3031   -1.0794 C   0  0  0  0  0  0  0  0  0  0  0  0
   -0.9828    0.1652   -0.1546 C   0  0  2  0  0  0  0  0  0  0  0  0
   -0.8798    1.6040   -0.0799 C   0  0  0  0  0  0  0  0  0  0  0  0
   -2.1345    2.2900   -0.4666 C   0  0  0  0  0  0  0  0  0  0  0  0
   -2.4893    3.5204    0.2646 C   0  0  0  0  0  0  0  0  0  0  0  0
   -1.3036    4.3307    0.7286 C   0  0  0  0  0  0  0  0  0  0  0  0
   -0.4763    3.4571    1.6038 C   0  0  0  0  0  0  0  0  0  0  0  0
   -0.0414    2.1728    1.0256 C   0  0  0  0  0  0  0  0  0  0  0  0
   -1.9516   -0.6519    0.3803 N   0  0  0  0  0  0  0  0  0  0  0  0
   -2.2108   -1.8985   -0.1616 C   0  0  0  0  0  0  0  0  0  0  0  0
   -1.5667   -2.5274   -1.3098 C   0  0  0  0  0  0  0  0  0  0  0  0
   -2.0111   -2.2517   -2.6091 C   0  0  0  0  0  0  0  0  0  0  0  0
   -1.4492   -2.8093   -3.7250 C   0  0  0  0  0  0  0  0  0  0  0  0
   -0.3962   -3.6819   -3.5436 C   0  0  0  0  0  0  0  0  0  0  0  0
    0.3357   -4.4049   -4.9537 Cl  0  0  0  0  0  0  0  0  0  0  0  0
    0.0742   -3.9823   -2.2823 C   0  0  0  0  0  0  0  0  0  0  0  0
   -0.5194   -3.3987   -1.1735 C   0  0  0  0  0  0  0  0  0  0  0  0
   -3.1786   -2.4795    0.5407 N   0  0  0  0  0  0  0  0  0  0  0  0
   -3.5869   -1.6761    1.5387 C   0  0  0  0  0  0  0  0  0  0  0  0
   -4.5260   -1.7645    2.5407 C   0  0  0  0  0  0  0  0  0  0  0  0
   -4.7054   -0.7321    3.4362 C   0  0  0  0  0  0  0  0  0  0  0  0
   -5.6250   -0.7805    4.4433 F   0  0  0  0  0  0  0  0  0  0  0  0
   -3.9375    0.4018    3.3293 C   0  0  0  0  0  0  0  0  0  0  0  0
   -4.0564    1.4536    4.1692 F   0  0  0  0  0  0  0  0  0  0  0  0
   -3.0003    0.4595    2.3087 C   0  0  0  0  0  0  0  0  0  0  0  0
   -2.7956   -0.5437    1.4042 C   0  0  0  0  0  0  0  0  0  0  0  0
    1.4838    0.6179   -1.2439 H   0  0  0  0  0  0  0  0  0  0  0  0
    2.7392   -1.1213    0.8950 H   0  0  0  0  0  0  0  0  0  0  0  0
    3.4711    1.1208    1.3435 H   0  0  0  0  0  0  0  0  0  0  0  0
    3.8605    1.3957   -0.4061 H   0  0  0  0  0  0  0  0  0  0  0  0
    5.1581   -0.8327    1.2402 H   0  0  0  0  0  0  0  0  0  0  0  0
    5.8370    0.8023    1.1428 H   0  0  0  0  0  0  0  0  0  0  0  0
    6.4982   -1.1604   -0.6249 H   0  0  0  0  0  0  0  0  0  0  0  0
    6.3510    0.5338   -1.1309 H   0  0  0  0  0  0  0  0  0  0  0  0
    5.1164   -1.3733   -2.4509 H   0  0  0  0  0  0  0  0  0  0  0  0
    4.3777    0.2804   -2.2669 H   0  0  0  0  0  0  0  0  0  0  0  0
    3.7823   -2.3036   -0.6844 H   0  0  0  0  0  0  0  0  0  0  0  0
    2.7234   -1.5089   -1.8510 H   0  0  0  0  0  0  0  0  0  0  0  0
   -0.9420   -0.0720   -1.2794 H   0  0  0  0  0  0  0  0  0  0  0  0
   -0.1922    1.8838   -0.9677 H   0  0  0  0  0  0  0  0  0  0  0  0
   -2.2197    2.5365   -1.5711 H   0  0  0  0  0  0  0  0  0  0  0  0
   -2.9739    1.5543   -0.3435 H   0  0  0  0  0  0  0  0  0  0  0  0
   -3.1357    3.3371    1.1468 H   0  0  0  0  0  0  0  0  0  0  0  0
   -3.0966    4.2255   -0.3770 H   0  0  0  0  0  0  0  0  0  0  0  0
   -0.7546    4.7964   -0.1115 H   0  0  0  0  0  0  0  0  0  0  0  0
   -1.6984    5.1670    1.3420 H   0  0  0  0  0  0  0  0  0  0  0  0
    0.4055    4.0717    1.9447 H   0  0  0  0  0  0  0  0  0  0  0  0
   -1.0637    3.2911    2.5515 H   0  0  0  0  0  0  0  0  0  0  0  0
    1.0501    2.2360    0.8110 H   0  0  0  0  0  0  0  0  0  0  0  0
   -0.0695    1.3991    1.8543 H   0  0  0  0  0  0  0  0  0  0  0  0
   -2.8416   -1.5610   -2.7197 H   0  0  0  0  0  0  0  0  0  0  0  0
   -1.8351   -2.5587   -4.7035 H   0  0  0  0  0  0  0  0  0  0  0  0
    0.9109   -4.6756   -2.1337 H   0  0  0  0  0  0  0  0  0  0  0  0
   -0.1822   -3.6061   -0.1646 H   0  0  0  0  0  0  0  0  0  0  0  0
   -5.1466   -2.6390    2.6552 H   0  0  0  0  0  0  0  0  0  0  0  0
   -2.4271    1.3355    2.2454 H   0  0  0  0  0  0  0  0  0  0  0  0
  1  2  2  0
  2  3  1  0
  3  4  1  0
  4  5  1  0
  5  6  1  0
  6  7  1  0
  7  8  1  0
  8  9  1  0
  2 10  1  0
 10 11  1  0
 11 12  1  0
 12 13  1  0
 13 14  1  0
 14 15  1  0
 15 16  1  0
 10 17  1  0
 17 18  1  0
 18 19  1  0
 19 20  2  0
 20 21  1  0
 21 22  2  0
 22 23  1  0
 22 24  1  0
 24 25  2  0
 18 26  2  0
 26 27  1  0
 27 28  2  0
 28 29  1  0
 29 30  1  0
 29 31  2  0
 31 32  1  0
 31 33  1  0
 33 34  2  0
  9  4  1  0
 16 11  1  0
 34 17  1  0
 25 19  1  0
 34 27  1  0
  3 35  1  0
  4 36  1  0
  5 37  1  0
  5 38  1  0
  6 39  1  0
  6 40  1  0
  7 41  1  0
  7 42  1  0
  8 43  1  0
  8 44  1  0
  9 45  1  0
  9 46  1  0
 10 47  1  6
 11 48  1  0
 12 49  1  0
 12 50  1  0
 13 51  1  0
 13 52  1  0
 14 53  1  0
 14 54  1  0
 15 55  1  0
 15 56  1  0
 16 57  1  0
 16 58  1  0
 20 59  1  0
 21 60  1  0
 24 61  1  0
 25 62  1  0
 28 63  1  0
 33 64  1  0
M  END
$$$$
