@<TRIPOS>MOLECULE
*****
 64 68 0 0 0
SMALL
GASTEIGER

@<TRIPOS>ATOM
      1 O           0.4497   -1.0806    1.2832 O.2     1  UNL1       -0.2735
      2 C           0.3892   -0.3389    0.2770 C.2     1  UNL1        0.2365
      3 N           1.5640   -0.0023   -0.4076 N.am    1  UNL1       -0.3107
      4 C           2.8769   -0.4815    0.0014 C.3     1  UNL1        0.0232
      5 C           3.7862    0.6402    0.3996 C.3     1  UNL1       -0.0345
      6 C           5.1815    0.0881    0.6031 C.3     1  UNL1       -0.0514
      7 C           5.7822   -0.3319   -0.7324 C.3     1  UNL1       -0.0529
      8 C           4.6938   -0.6348   -1.7408 C.3     1  UNL1       -0.0514
      9 C           3.5050   -1.3031   -1.0794 C.3     1  UNL1       -0.0345
     10 C          -0.9828    0.1652   -0.1546 C.3     1  UNL1        0.1151
     11 C          -0.8798    1.6040   -0.0799 C.3     1  UNL1       -0.0116
     12 C          -2.1345    2.2900   -0.4666 C.3     1  UNL1       -0.0479
     13 C          -2.4893    3.5204    0.2646 C.3     1  UNL1       -0.0527
     14 C          -1.3036    4.3307    0.7286 C.3     1  UNL1       -0.0530
     15 C          -0.4763    3.4571    1.6038 C.3     1  UNL1       -0.0527
     16 C          -0.0414    2.1728    1.0256 C.3     1  UNL1       -0.0479
     17 N          -1.9516   -0.6519    0.3803 N.ar    1  UNL1       -0.3112
     18 C          -2.2108   -1.8985   -0.1616 C.ar    1  UNL1        0.1425
     19 C          -1.5667   -2.5274   -1.3098 C.ar    1  UNL1        0.0176
     20 C          -2.0111   -2.2517   -2.6091 C.ar    1  UNL1       -0.0497
     21 C          -1.4492   -2.8093   -3.7250 C.ar    1  UNL1       -0.0427
     22 C          -0.3962   -3.6819   -3.5436 C.ar    1  UNL1        0.0410
     23 CL          0.3357   -4.4049   -4.9537 Cl      1  UNL1       -0.0835
     24 C           0.0742   -3.9823   -2.2823 C.ar    1  UNL1       -0.0427
     25 C          -0.5194   -3.3987   -1.1735 C.ar    1  UNL1       -0.0497
     26 N          -3.1786   -2.4795    0.5407 N.ar    1  UNL1       -0.2274
     27 C          -3.5869   -1.6761    1.5387 C.ar    1  UNL1        0.0926
     28 C          -4.5260   -1.7645    2.5407 C.ar    1  UNL1        0.0039
     29 C          -4.7054   -0.7321    3.4362 C.ar    1  UNL1        0.1605
     30 F          -5.6250   -0.7805    4.4433 F       1  UNL1       -0.2024
     31 C          -3.9375    0.4018    3.3293 C.ar    1  UNL1        0.1605
     32 F          -4.0564    1.4536    4.1692 F       1  UNL1       -0.2024
     33 C          -3.0003    0.4595    2.3087 C.ar    1  UNL1        0.0021
     34 C          -2.7956   -0.5437    1.4042 C.ar    1  UNL1        0.0727
     35 H           1.4838    0.6179   -1.2439 H       1  UNL1        0.1490
     36 H           2.7392   -1.1213    0.8950 H       1  UNL1        0.0498
     37 H           3.4711    1.1208    1.3435 H       1  UNL1        0.0283
     38 H           3.8605    1.3957   -0.4061 H       1  UNL1        0.0283
     39 H           5.1581   -0.8327    1.2402 H       1  UNL1        0.0266
     40 H           5.8370    0.8023    1.1428 H       1  UNL1        0.0266
     41 H           6.4982   -1.1604   -0.6249 H       1  UNL1        0.0265
     42 H           6.3510    0.5338   -1.1309 H       1  UNL1        0.0265
     43 H           5.1164   -1.3733   -2.4509 H       1  UNL1        0.0266
     44 H           4.3777    0.2804   -2.2669 H       1  UNL1        0.0266
     45 H           3.7823   -2.3036   -0.6844 H       1  UNL1        0.0283
     46 H           2.7234   -1.5089   -1.8510 H       1  UNL1        0.0283
     47 H          -0.9420   -0.0720   -1.2794 H       1  UNL1        0.0627
     48 H          -0.1922    1.8838   -0.9677 H       1  UNL1        0.0325
     49 H          -2.2197    2.5365   -1.5711 H       1  UNL1        0.0269
     50 H          -2.9739    1.5543   -0.3435 H       1  UNL1        0.0269
     51 H          -3.1357    3.3371    1.1468 H       1  UNL1        0.0265
     52 H          -3.0966    4.2255   -0.3770 H       1  UNL1        0.0265
     53 H          -0.7546    4.7964   -0.1115 H       1  UNL1        0.0265
     54 H          -1.6984    5.1670    1.3420 H       1  UNL1        0.0265
     55 H           0.4055    4.0717    1.9447 H       1  UNL1        0.0265
     56 H          -1.0637    3.2911    2.5515 H       1  UNL1        0.0265
     57 H           1.0501    2.2360    0.8110 H       1  UNL1        0.0269
     58 H          -0.0695    1.3991    1.8543 H       1  UNL1        0.0269
     59 H          -2.8416   -1.5610   -2.7197 H       1  UNL1        0.0625
     60 H          -1.8351   -2.5587   -4.7035 H       1  UNL1        0.0632
     61 H           0.9109   -4.6756   -2.1337 H       1  UNL1        0.0632
     62 H          -0.1822   -3.6061   -0.1646 H       1  UNL1        0.0625
     63 H          -5.1466   -2.6390    2.6552 H       1  UNL1        0.0669
     64 H          -2.4271    1.3355    2.2454 H       1  UNL1        0.0668
@<TRIPOS>BOND
     1     1     2    2
     2     2     3   am
     3     3     4    1
     4     4     5    1
     5     5     6    1
     6     6     7    1
     7     7     8    1
     8     8     9    1
     9     2    10    1
    10    10    11    1
    11    11    12    1
    12    12    13    1
    13    13    14    1
    14    14    15    1
    15    15    16    1
    16    10    17    1
    17    17    18   ar
    18    18    19    1
    19    19    20   ar
    20    20    21   ar
    21    21    22   ar
    22    22    23    1
    23    22    24   ar
    24    24    25   ar
    25    18    26   ar
    26    26    27   ar
    27    27    28   ar
    28    28    29   ar
    29    29    30    1
    30    29    31   ar
    31    31    32    1
    32    31    33   ar
    33    33    34   ar
    34     9     4    1
    35    16    11    1
    36    34    17   ar
    37    25    19   ar
    38    34    27   ar
    39     3    35    1
    40     4    36    1
    41     5    37    1
    42     5    38    1
    43     6    39    1
    44     6    40    1
    45     7    41    1
    46     7    42    1
    47     8    43    1
    48     8    44    1
    49     9    45    1
    50     9    46    1
    51    10    47    1
    52    11    48    1
    53    12    49    1
    54    12    50    1
    55    13    51    1
    56    13    52    1
    57    14    53    1
    58    14    54    1
    59    15    55    1
    60    15    56    1
    61    16    57    1
    62    16    58    1
    63    20    59    1
    64    21    60    1
    65    24    61    1
    66    25    62    1
    67    28    63    1
    68    33    64    1
