@<TRIPOS>MOLECULE
*****
 52 53 0 0 0
SMALL
GASTEIGER

@<TRIPOS>ATOM
      1 CA         -3.3889   -2.0453   -0.2869 C.3     1  PHE1        0.1174
      2 CB         -3.7017   -1.8035   -1.7417 C.3     1  PHE1       -0.0362
      3 N          -2.2515   -1.2433    0.1598 N.am    1  PHE1       -0.3010
      4 C          -2.3842   -0.3405    1.2440 C.2     1  PHE1        0.2343
      5 O          -3.5277   -0.2676    1.7976 O.2     1  PHE1       -0.2738
      6 CA         -1.3493    0.5385    1.8206 C.3     1  PHE1        0.1033
      7 CB         -1.7559    1.9923    1.8433 C.3     1  PHE1       -0.0007
      8 CG         -2.0413    2.5498    0.5010 C.ar    1  PHE1       -0.0451
      9 CD1        -1.0647    3.1476   -0.2871 C.ar    1  PHE1       -0.0585
     10 CE1        -1.3708    3.6547   -1.5315 C.ar    1  PHE1       -0.0615
     11 CZ         -2.6422    3.5989   -2.0571 C.ar    1  PHE1       -0.0617
     12 CE2        -3.6277    3.0119   -1.2968 C.ar    1  PHE1       -0.0615
     13 CD2        -3.3046    2.5100   -0.0548 C.ar    1  PHE1       -0.0585
     14 N          -0.0616    0.4394    1.1779 N.am    1  PHE1       -0.3028
     15 C           1.0966    0.0247    1.8848 C.2     0  UNK0        0.2266
     16 O           0.9060   -0.2486    3.1166 O.2     0  UNK0       -0.2746
     17 C           2.4018   -0.0765    1.2361 C.3     0  UNK0        0.0824
     18 S           3.1037    1.5070    0.7151 S.3     0  UNK0       -0.1652
     19 C           2.4843   -1.0269    0.0863 C.3     0  UNK0       -0.0076
     20 C           3.8961   -0.9651   -0.4142 C.ar    0  UNK0       -0.0459
     21 C           4.3756   -0.1034   -1.3907 C.ar    0  UNK0       -0.0585
     22 C           5.7281   -0.1910   -1.7294 C.ar    0  UNK0       -0.0615
     23 C           6.5900   -1.0851   -1.1412 C.ar    0  UNK0       -0.0617
     24 C           6.1469   -1.9402   -0.1824 C.ar    0  UNK0       -0.0615
     25 C           4.8108   -1.8575    0.1560 C.ar    0  UNK0       -0.0585
     26 C          -3.0329   -3.4671   -0.0320 C.2     1  PHE1        0.3250
     27 O          -3.9393   -4.4687   -0.3632 O.3     1  PHE1       -0.4793
     28 OXT        -1.9327   -3.7837    0.4752 O.2     1  PHE1       -0.2489
     29 HA         -4.2340   -1.7868    0.3556 H       1  PHE1        0.0611
     30 HB1        -4.0802   -2.7604   -2.1551 H       1  PHE1        0.0253
     31 HB2        -2.8565   -1.4371   -2.3253 H       1  PHE1        0.0253
     32 HB3        -4.5620   -1.0840   -1.7659 H       1  PHE1        0.0253
     33 H          -1.3023   -1.2806   -0.2732 H       1  PHE1        0.1496
     34 HA         -1.2888    0.2505    2.9092 H       1  PHE1        0.0598
     35 HB1        -0.9068    2.5358    2.3301 H       1  PHE1        0.0336
     36 HB2        -2.6093    2.1385    2.5570 H       1  PHE1        0.0336
     37 HD1        -0.0513    3.2190    0.0742 H       1  PHE1        0.0620
     38 HE1        -0.6418    4.1303   -2.1827 H       1  PHE1        0.0618
     39 HZ         -2.9059    3.9895   -3.0299 H       1  PHE1        0.0618
     40 HE2        -4.6413    2.9576   -1.6948 H       1  PHE1        0.0618
     41 HD2        -4.1362    2.0661    0.4762 H       1  PHE1        0.0620
     42 H          -0.0393    0.6914    0.1652 H       1  PHE1        0.1495
     43 H           3.1232   -0.4707    2.0099 H       0  UNK0        0.0508
     44 H           2.2098    2.2964   -0.0079 H       0  UNK0        0.1024
     45 H           1.7729   -0.7737   -0.7362 H       0  UNK0        0.0328
     46 H           2.2766   -2.0847    0.3321 H       0  UNK0        0.0328
     47 H           3.6674    0.5656   -1.8111 H       0  UNK0        0.0620
     48 H           6.0859    0.4882   -2.4928 H       0  UNK0        0.0618
     49 H           7.6378   -1.1420   -1.4141 H       0  UNK0        0.0618
     50 H           6.7698   -2.6630    0.3162 H       0  UNK0        0.0618
     51 H           4.4520   -2.5509    0.9333 H       0  UNK0        0.0620
     52 H          -3.9029   -5.3556    0.1593 H       1  PHE1        0.2951
@<TRIPOS>BOND
     1     1     2    1
     2     1     3    1
     3     3     4   am
     4     4     5    2
     5     4     6    1
     6     6     7    1
     7     7     8    1
     8     8     9   ar
     9     9    10   ar
    10    10    11   ar
    11    11    12   ar
    12    12    13   ar
    13     6    14    1
    14    14    15   am
    15    15    16    2
    16    15    17    1
    17    17    18    1
    18    17    19    1
    19    19    20    1
    20    20    21   ar
    21    21    22   ar
    22    22    23   ar
    23    23    24   ar
    24    24    25   ar
    25     1    26    1
    26    26    27    1
    27    26    28    2
    28    13     8   ar
    29    25    20   ar
    30     1    29    1
    31     2    30    1
    32     2    31    1
    33     2    32    1
    34     3    33    1
    35     6    34    1
    36     7    35    1
    37     7    36    1
    38     9    37    1
    39    10    38    1
    40    11    39    1
    41    12    40    1
    42    13    41    1
    43    14    42    1
    44    17    43    1
    45    18    44    1
    46    19    45    1
    47    19    46    1
    48    21    47    1
    49    22    48    1
    50    23    49    1
    51    24    50    1
    52    25    51    1
    53    27    52    1
