@<TRIPOS>MOLECULE
*****
 50 54 0 0 0
SMALL
GASTEIGER

@<TRIPOS>ATOM
      1 N           0.3878   -2.4629   -0.7000 N.pl3   1  UNL1       -0.3425
      2 C          -0.9994   -2.2463   -0.5255 C.ar    1  UNL1        0.1292
      3 N          -1.9001   -3.2415   -0.5102 N.ar    1  UNL1       -0.2204
      4 C          -3.2111   -2.9951   -0.3248 C.ar    1  UNL1        0.1204
      5 N          -3.6865   -1.7498   -0.1462 N.ar    1  UNL1       -0.2176
      6 C          -2.8124   -0.7204   -0.1551 C.ar    1  UNL1        0.1466
      7 C          -1.4633   -0.9432   -0.3436 C.ar    1  UNL1        0.0660
      8 C          -0.8418    0.2797   -0.2968 C.ar    1  UNL1        0.0122
      9 C           0.5785    0.5564   -0.4738 C.ar    1  UNL1       -0.0155
     10 C           1.3254    0.1706   -1.5598 C.ar    1  UNL1       -0.0505
     11 C           2.6935    0.4546   -1.6545 C.ar    1  UNL1       -0.0188
     12 C           3.3485    1.1384   -0.6536 C.ar    1  UNL1        0.1285
     13 O           4.7041    1.3999   -0.7854 O.3     1  UNL1       -0.4560
     14 C           5.7024    0.5888   -0.3577 C.ar    1  UNL1        0.1284
     15 C           5.4236   -0.6006    0.2630 C.ar    1  UNL1       -0.0193
     16 C           6.4483   -1.4391    0.7051 C.ar    1  UNL1       -0.0583
     17 C           7.7446   -1.0659    0.5148 C.ar    1  UNL1       -0.0615
     18 C           8.0449    0.1315   -0.1099 C.ar    1  UNL1       -0.0583
     19 C           7.0136    0.9431   -0.5380 C.ar    1  UNL1       -0.0193
     20 C           2.5999    1.5269    0.4368 C.ar    1  UNL1       -0.0188
     21 C           1.2520    1.2505    0.5373 C.ar    1  UNL1       -0.0505
     22 C          -1.8527    1.2123   -0.0767 C.ar    1  UNL1        0.0152
     23 N          -3.0337    0.5896    0.0056 N.ar    1  UNL1       -0.3281
     24 C          -4.3008    1.2503    0.2294 C.3     1  UNL1        0.0359
     25 C          -4.6043    1.4241    1.6973 C.3     1  UNL1       -0.0321
     26 C          -6.0923    1.1774    1.7929 C.3     1  UNL1       -0.0511
     27 C          -6.2951    0.0877    0.7694 C.3     1  UNL1       -0.0511
     28 C          -5.4649    0.5640   -0.3991 C.3     1  UNL1       -0.0321
     29 H           1.0823   -2.2774    0.0561 H       1  UNL1        0.1437
     30 H           0.7647   -2.8201   -1.6040 H       1  UNL1        0.1437
     31 H          -3.8811   -3.8451   -0.3241 H       1  UNL1        0.1048
     32 H           0.8281   -0.3537   -2.3626 H       1  UNL1        0.0625
     33 H           3.2387    0.1251   -2.5376 H       1  UNL1        0.0654
     34 H           4.4203   -0.9557    0.4448 H       1  UNL1        0.0654
     35 H           6.2380   -2.3708    1.1913 H       1  UNL1        0.0619
     36 H           8.5891   -1.6772    0.8375 H       1  UNL1        0.0618
     37 H           9.0711    0.4415   -0.2682 H       1  UNL1        0.0619
     38 H           7.2317    1.8800   -1.0269 H       1  UNL1        0.0654
     39 H           3.1027    2.0591    1.2184 H       1  UNL1        0.0654
     40 H           0.6656    1.5631    1.4073 H       1  UNL1        0.0625
     41 H          -1.6685    2.2657    0.0082 H       1  UNL1        0.0816
     42 H          -4.2285    2.2672   -0.2082 H       1  UNL1        0.0528
     43 H          -4.4149    2.4550    2.0606 H       1  UNL1        0.0285
     44 H          -4.0352    0.7223    2.3299 H       1  UNL1        0.0285
     45 H          -6.6430    2.0906    1.4979 H       1  UNL1        0.0266
     46 H          -6.3478    0.8740    2.8158 H       1  UNL1        0.0266
     47 H          -6.0124   -0.8909    1.1527 H       1  UNL1        0.0266
     48 H          -7.3680    0.0853    0.4801 H       1  UNL1        0.0266
     49 H          -6.1209    1.2977   -0.9544 H       1  UNL1        0.0285
     50 H          -5.2208   -0.2167   -1.1212 H       1  UNL1        0.0285
@<TRIPOS>BOND
     1     1     2    1
     2     2     3   ar
     3     3     4   ar
     4     4     5   ar
     5     5     6   ar
     6     6     7   ar
     7     7     8   ar
     8     8     9    1
     9     9    10   ar
    10    10    11   ar
    11    11    12   ar
    12    12    13    1
    13    13    14    1
    14    14    15   ar
    15    15    16   ar
    16    16    17   ar
    17    17    18   ar
    18    18    19   ar
    19    12    20   ar
    20    20    21   ar
    21     8    22   ar
    22    22    23   ar
    23    23    24    1
    24    24    25    1
    25    25    26    1
    26    26    27    1
    27    27    28    1
    28     7     2   ar
    29    21     9   ar
    30    28    24    1
    31    23     6   ar
    32    19    14   ar
    33     1    29    1
    34     1    30    1
    35     4    31    1
    36    10    32    1
    37    11    33    1
    38    15    34    1
    39    16    35    1
    40    17    36    1
    41    18    37    1
    42    19    38    1
    43    20    39    1
    44    21    40    1
    45    22    41    1
    46    24    42    1
    47    25    43    1
    48    25    44    1
    49    26    45    1
    50    26    46    1
    51    27    47    1
    52    27    48    1
    53    28    49    1
    54    28    50    1
