
     RDKit          3D

 61 66  0  0  0  0  0  0  0  0999 V2000
    9.6708   -0.4592    1.5180 C   0  0  0  0  0  0  0  0  0  0  0  0
    8.7366   -1.0904    2.4219 N   0  0  0  0  0  0  0  0  0  0  0  0
    7.3339   -1.0678    2.1065 C   0  0  0  0  0  0  0  0  0  0  0  0
    6.4424   -1.6558    2.9219 N   0  0  0  0  0  0  0  0  0  0  0  0
    5.1398   -1.6385    2.6322 C   0  0  0  0  0  0  0  0  0  0  0  0
    4.6745   -1.0118    1.4807 C   0  0  0  0  0  0  0  0  0  0  0  0
    5.5492   -0.4129    0.6423 C   0  0  0  0  0  0  0  0  0  0  0  0
    5.2671    0.2987   -0.5935 C   0  0  0  0  0  0  0  0  0  0  0  0
    6.3363    0.9720   -1.2122 C   0  0  0  0  0  0  0  0  0  0  0  0
    6.1133    1.6379   -2.3884 C   0  0  0  0  0  0  0  0  0  0  0  0
    4.8258    1.6223   -2.9306 C   0  0  0  0  0  0  0  0  0  0  0  0
    3.8330    0.9837   -2.3337 N   0  0  0  0  0  0  0  0  0  0  0  0
    4.0159    0.3051   -1.1551 C   0  0  0  0  0  0  0  0  0  0  0  0
    2.9786   -0.3427   -0.5575 O   0  0  0  0  0  0  0  0  0  0  0  0
    1.6892   -0.4385   -1.0318 C   0  0  0  0  0  0  0  0  0  0  0  0
    0.6297   -0.6408   -0.1270 C   0  0  0  0  0  0  0  0  0  0  0  0
   -0.6755   -0.7461   -0.5260 C   0  0  0  0  0  0  0  0  0  0  0  0
   -1.0090   -0.6558   -1.8684 C   0  0  0  0  0  0  0  0  0  0  0  0
   -2.3484   -0.7478   -2.3131 N   0  0  0  0  0  0  0  0  0  0  0  0
   -3.4619   -0.6443   -1.4028 C   0  0  0  0  0  0  0  0  0  0  0  0
   -3.8465   -1.7049   -0.6719 N   0  0  0  0  0  0  0  0  0  0  0  0
   -4.8607   -1.5857    0.1576 N   0  0  0  0  0  0  0  0  0  0  0  0
   -5.5505   -0.4447    0.3216 C   0  0  0  0  0  0  0  0  0  0  0  0
   -6.6615   -0.3695    1.2871 C   0  0  0  0  0  0  0  0  0  0  0  0
   -7.9265    0.0481    0.9532 C   0  0  0  0  0  0  0  0  0  0  0  0
   -8.9252    0.1227    1.9095 C   0  0  0  0  0  0  0  0  0  0  0  0
   -8.6653   -0.2248    3.2296 C   0  0  0  0  0  0  0  0  0  0  0  0
   -9.6074   -0.1690    4.2025 F   0  0  0  0  0  0  0  0  0  0  0  0
   -7.4034   -0.6466    3.5856 C   0  0  0  0  0  0  0  0  0  0  0  0
   -6.4302   -0.7132    2.6233 C   0  0  0  0  0  0  0  0  0  0  0  0
   -5.1968    0.6665   -0.4008 C   0  0  0  0  0  0  0  0  0  0  0  0
   -5.8285    1.8857   -0.2978 C   0  0  0  0  0  0  0  0  0  0  0  0
   -5.3884    2.9510   -1.0654 C   0  0  0  0  0  0  0  0  0  0  0  0
   -4.3277    2.8189   -1.9331 C   0  0  0  0  0  0  0  0  0  0  0  0
   -3.6706    1.5996   -2.0559 C   0  0  0  0  0  0  0  0  0  0  0  0
   -4.1178    0.5475   -1.2865 C   0  0  0  0  0  0  0  0  0  0  0  0
   -0.0138   -0.4619   -2.7720 C   0  0  0  0  0  0  0  0  0  0  0  0
    1.3099   -0.3563   -2.3503 C   0  0  0  0  0  0  0  0  0  0  0  0
    6.8639   -0.4791    1.0175 N   0  0  0  0  0  0  0  0  0  0  0  0
    9.1392    0.0040    0.6410 H   0  0  0  0  0  0  0  0  0  0  0  0
   10.4419   -1.1892    1.1471 H   0  0  0  0  0  0  0  0  0  0  0  0
   10.2023    0.4084    1.9911 H   0  0  0  0  0  0  0  0  0  0  0  0
    9.0568   -1.5475    3.2734 H   0  0  0  0  0  0  0  0  0  0  0  0
    4.4214   -2.1172    3.2984 H   0  0  0  0  0  0  0  0  0  0  0  0
    3.6337   -1.0039    1.2766 H   0  0  0  0  0  0  0  0  0  0  0  0
    7.3336    0.9559   -0.7439 H   0  0  0  0  0  0  0  0  0  0  0  0
    6.9257    2.1545   -2.8650 H   0  0  0  0  0  0  0  0  0  0  0  0
    4.6997    2.1612   -3.8567 H   0  0  0  0  0  0  0  0  0  0  0  0
    0.8856   -0.7138    0.9355 H   0  0  0  0  0  0  0  0  0  0  0  0
   -1.4998   -0.9007    0.1543 H   0  0  0  0  0  0  0  0  0  0  0  0
   -2.5572   -0.8917   -3.3071 H   0  0  0  0  0  0  0  0  0  0  0  0
   -8.1835    0.3138   -0.0587 H   0  0  0  0  0  0  0  0  0  0  0  0
   -9.9359    0.4494    1.6754 H   0  0  0  0  0  0  0  0  0  0  0  0
   -7.1738   -0.9284    4.6299 H   0  0  0  0  0  0  0  0  0  0  0  0
   -5.4137   -1.0395    2.8480 H   0  0  0  0  0  0  0  0  0  0  0  0
   -6.6508    1.9946    0.3963 H   0  0  0  0  0  0  0  0  0  0  0  0
   -5.9202    3.8864   -0.9467 H   0  0  0  0  0  0  0  0  0  0  0  0
   -3.9768    3.6543   -2.5416 H   0  0  0  0  0  0  0  0  0  0  0  0
   -2.8416    1.4607   -2.7210 H   0  0  0  0  0  0  0  0  0  0  0  0
   -0.1772   -0.3790   -3.8512 H   0  0  0  0  0  0  0  0  0  0  0  0
    2.0965   -0.2152   -3.1122 H   0  0  0  0  0  0  0  0  0  0  0  0
  1  2  1  0
  2  3  1  0
  3  4  2  0
  4  5  1  0
  5  6  2  0
  6  7  1  0
  7  8  1  0
  8  9  2  0
  9 10  1  0
 10 11  2  0
 11 12  1  0
 12 13  2  0
 13 14  1  0
 14 15  1  0
 15 16  2  0
 16 17  1  0
 17 18  2  0
 18 19  1  0
 19 20  1  0
 20 21  2  0
 21 22  1  0
 22 23  2  0
 23 24  1  0
 24 25  2  0
 25 26  1  0
 26 27  2  0
 27 28  1  0
 27 29  1  0
 29 30  2  0
 23 31  1  0
 31 32  2  0
 32 33  1  0
 33 34  2  0
 34 35  1  0
 35 36  2  0
 18 37  1  0
 37 38  2  0
  7 39  2  0
 39  3  1  0
 13  8  1  0
 38 15  1  0
 36 20  1  0
 30 24  1  0
 36 31  1  0
  1 40  1  0
  1 41  1  0
  1 42  1  0
  2 43  1  0
  5 44  1  0
  6 45  1  0
  9 46  1  0
 10 47  1  0
 11 48  1  0
 16 49  1  0
 17 50  1  0
 19 51  1  0
 25 52  1  0
 26 53  1  0
 29 54  1  0
 30 55  1  0
 32 56  1  0
 33 57  1  0
 34 58  1  0
 35 59  1  0
 37 60  1  0
 38 61  1  0
M  END
$$$$
