@<TRIPOS>MOLECULE
*****
 61 66 0 0 0
SMALL
GASTEIGER

@<TRIPOS>ATOM
      1 C           9.6708   -0.4592    1.5180 C.3     1  UNL1        0.0003
      2 N           8.7366   -1.0904    2.4219 N.pl3   1  UNL1       -0.3165
      3 C           7.3339   -1.0678    2.1065 C.ar    1  UNL1        0.2154
      4 N           6.4424   -1.6558    2.9219 N.ar    1  UNL1       -0.2229
      5 C           5.1398   -1.6385    2.6322 C.ar    1  UNL1        0.0332
      6 C           4.6745   -1.0118    1.4807 C.ar    1  UNL1       -0.0172
      7 C           5.5492   -0.4129    0.6423 C.ar    1  UNL1        0.0811
      8 C           5.2671    0.2987   -0.5935 C.ar    1  UNL1        0.0624
      9 C           6.3363    0.9720   -1.2122 C.ar    1  UNL1       -0.0460
     10 C           6.1133    1.6379   -2.3884 C.ar    1  UNL1       -0.0427
     11 C           4.8258    1.6223   -2.9306 C.ar    1  UNL1        0.0314
     12 N           3.8330    0.9837   -2.3337 N.ar    1  UNL1       -0.2204
     13 C           4.0159    0.3051   -1.1551 C.ar    1  UNL1        0.2297
     14 O           2.9786   -0.3427   -0.5575 O.3     1  UNL1       -0.4374
     15 C           1.6892   -0.4385   -1.0318 C.ar    1  UNL1        0.1305
     16 C           0.6297   -0.6408   -0.1270 C.ar    1  UNL1       -0.0175
     17 C          -0.6755   -0.7461   -0.5260 C.ar    1  UNL1       -0.0370
     18 C          -1.0090   -0.6558   -1.8684 C.ar    1  UNL1        0.0326
     19 N          -2.3484   -0.7478   -2.3131 N.pl3   1  UNL1       -0.2975
     20 C          -3.4619   -0.6443   -1.4028 C.ar    1  UNL1        0.1532
     21 N          -3.8465   -1.7049   -0.6719 N.ar    1  UNL1       -0.1328
     22 N          -4.8607   -1.5857    0.1576 N.ar    1  UNL1       -0.1468
     23 C          -5.5505   -0.4447    0.3216 C.ar    1  UNL1        0.1011
     24 C          -6.6615   -0.3695    1.2871 C.ar    1  UNL1        0.0029
     25 C          -7.9265    0.0481    0.9532 C.ar    1  UNL1       -0.0498
     26 C          -8.9252    0.1227    1.9095 C.ar    1  UNL1       -0.0258
     27 C          -8.6653   -0.2248    3.2296 C.ar    1  UNL1        0.1234
     28 F          -9.6074   -0.1690    4.2025 F       1  UNL1       -0.2055
     29 C          -7.4034   -0.6466    3.5856 C.ar    1  UNL1       -0.0258
     30 C          -6.4302   -0.7132    2.6233 C.ar    1  UNL1       -0.0498
     31 C          -5.1968    0.6665   -0.4008 C.ar    1  UNL1        0.0132
     32 C          -5.8285    1.8857   -0.2978 C.ar    1  UNL1       -0.0518
     33 C          -5.3884    2.9510   -1.0654 C.ar    1  UNL1       -0.0611
     34 C          -4.3277    2.8189   -1.9331 C.ar    1  UNL1       -0.0611
     35 C          -3.6706    1.5996   -2.0559 C.ar    1  UNL1       -0.0506
     36 C          -4.1178    0.5475   -1.2865 C.ar    1  UNL1        0.0260
     37 C          -0.0138   -0.4619   -2.7720 C.ar    1  UNL1       -0.0370
     38 C           1.3099   -0.3563   -2.3503 C.ar    1  UNL1       -0.0175
     39 N           6.8639   -0.4791    1.0175 N.ar    1  UNL1       -0.2143
     40 H           9.1392    0.0040    0.6410 H       1  UNL1        0.0426
     41 H          10.4419   -1.1892    1.1471 H       1  UNL1        0.0426
     42 H          10.2023    0.4084    1.9911 H       1  UNL1        0.0426
     43 H           9.0568   -1.5475    3.2734 H       1  UNL1        0.1486
     44 H           4.4214   -2.1172    3.2984 H       1  UNL1        0.0831
     45 H           3.6337   -1.0039    1.2766 H       1  UNL1        0.0654
     46 H           7.3336    0.9559   -0.7439 H       1  UNL1        0.0626
     47 H           6.9257    2.1545   -2.8650 H       1  UNL1        0.0633
     48 H           4.6997    2.1612   -3.8567 H       1  UNL1        0.0831
     49 H           0.8856   -0.7138    0.9355 H       1  UNL1        0.0655
     50 H          -1.4998   -0.9007    0.1543 H       1  UNL1        0.0637
     51 H          -2.5572   -0.8917   -3.3071 H       1  UNL1        0.1536
     52 H          -8.1835    0.3138   -0.0587 H       1  UNL1        0.0625
     53 H          -9.9359    0.4494    1.6754 H       1  UNL1        0.0646
     54 H          -7.1738   -0.9284    4.6299 H       1  UNL1        0.0646
     55 H          -5.4137   -1.0395    2.8480 H       1  UNL1        0.0625
     56 H          -6.6508    1.9946    0.3963 H       1  UNL1        0.0624
     57 H          -5.9202    3.8864   -0.9467 H       1  UNL1        0.0618
     58 H          -3.9768    3.6543   -2.5416 H       1  UNL1        0.0618
     59 H          -2.8416    1.4607   -2.7210 H       1  UNL1        0.0625
     60 H          -0.1772   -0.3790   -3.8512 H       1  UNL1        0.0637
     61 H           2.0965   -0.2152   -3.1122 H       1  UNL1        0.0655
@<TRIPOS>BOND
     1     1     2    1
     2     2     3    1
     3     3     4   ar
     4     4     5   ar
     5     5     6   ar
     6     6     7   ar
     7     7     8    1
     8     8     9   ar
     9     9    10   ar
    10    10    11   ar
    11    11    12   ar
    12    12    13   ar
    13    13    14    1
    14    14    15    1
    15    15    16   ar
    16    16    17   ar
    17    17    18   ar
    18    18    19    1
    19    19    20    1
    20    20    21   ar
    21    21    22   ar
    22    22    23   ar
    23    23    24    1
    24    24    25   ar
    25    25    26   ar
    26    26    27   ar
    27    27    28    1
    28    27    29   ar
    29    29    30   ar
    30    23    31   ar
    31    31    32   ar
    32    32    33   ar
    33    33    34   ar
    34    34    35   ar
    35    35    36   ar
    36    18    37   ar
    37    37    38   ar
    38     7    39   ar
    39    39     3   ar
    40    13     8   ar
    41    38    15   ar
    42    36    20   ar
    43    30    24   ar
    44    36    31   ar
    45     1    40    1
    46     1    41    1
    47     1    42    1
    48     2    43    1
    49     5    44    1
    50     6    45    1
    51     9    46    1
    52    10    47    1
    53    11    48    1
    54    16    49    1
    55    17    50    1
    56    19    51    1
    57    25    52    1
    58    26    53    1
    59    29    54    1
    60    30    55    1
    61    32    56    1
    62    33    57    1
    63    34    58    1
    64    35    59    1
    65    37    60    1
    66    38    61    1
