@<TRIPOS>MOLECULE
*****
 58 60 0 0 0
SMALL
GASTEIGER

@<TRIPOS>ATOM
      1 C           6.5407   -1.9626   -1.1030 C.3     1  UNL1        0.0121
      2 C           5.8664   -0.8764   -1.8618 C.2     1  UNL1        0.2100
      3 O           6.5417   -0.2545   -2.7192 O.2     1  UNL1       -0.2761
      4 N           4.5138   -0.5102   -1.6692 N.am    1  UNL1       -0.3140
      5 C           3.8853    0.5664   -2.4371 C.3     1  UNL1        0.0271
      6 C           2.4429    0.7442   -2.0305 C.3     1  UNL1        0.0275
      7 N           2.4000    1.0762   -0.6101 N.am    1  UNL1       -0.3098
      8 C           1.1630    1.3026    0.0639 C.2     1  UNL1        0.2474
      9 O           0.1512    1.1930   -0.6452 O.2     1  UNL1       -0.2701
     10 C           1.0777    1.6370    1.4815 C.ar    1  UNL1        0.0758
     11 C           2.2584    1.9786    2.1609 C.ar    1  UNL1        0.0415
     12 N           2.2569    2.3524    3.4407 N.ar    1  UNL1       -0.2624
     13 C           1.0822    2.4134    4.1360 C.ar    1  UNL1        0.0293
     14 C          -0.0840    2.0954    3.5339 C.ar    1  UNL1       -0.0217
     15 C          -0.0877    1.6956    2.1726 C.ar    1  UNL1        0.0465
     16 N          -1.3453    1.3642    1.6648 N.pl3   1  UNL1       -0.3135
     17 C          -1.9309    0.2548    1.0886 C.ar    1  UNL1        0.0383
     18 C          -2.5705    0.3777   -0.1491 C.ar    1  UNL1       -0.0141
     19 C          -3.1681   -0.6415   -0.8311 C.ar    1  UNL1        0.0755
     20 C          -3.8275   -0.4667   -2.1273 C.ar    1  UNL1        0.0369
     21 C          -3.8921    0.7412   -2.7524 C.ar    1  UNL1       -0.0314
     22 C          -4.5287    0.8843   -3.9930 C.ar    1  UNL1        0.0418
     23 CL         -4.6163    2.4327   -4.8034 Cl      1  UNL1       -0.0835
     24 C          -5.1052   -0.2172   -4.6013 C.ar    1  UNL1       -0.0406
     25 C          -5.0441   -1.4550   -3.9700 C.ar    1  UNL1       -0.0244
     26 C          -4.4047   -1.5551   -2.7423 C.ar    1  UNL1        0.1326
     27 F          -4.3591   -2.7713   -2.1489 F       1  UNL1       -0.2048
     28 N          -3.1274   -1.8584   -0.2467 N.ar    1  UNL1       -0.2545
     29 C          -2.5272   -2.0191    0.9353 C.ar    1  UNL1        0.0334
     30 C          -1.9165   -0.9992    1.6434 C.ar    1  UNL1       -0.0056
     31 C          -1.3266   -1.3143    2.9644 C.3     1  UNL1       -0.0183
     32 C           0.1676   -1.3450    2.8891 C.3     1  UNL1       -0.0585
     33 C          -1.9117   -0.5692    4.1151 C.3     1  UNL1       -0.0585
     34 H           5.9670   -2.2968   -0.2314 H       1  UNL1        0.0322
     35 H           6.7698   -2.8385   -1.7628 H       1  UNL1        0.0322
     36 H           7.4957   -1.5232   -0.7038 H       1  UNL1        0.0322
     37 H           3.9633   -1.0276   -0.9604 H       1  UNL1        0.1487
     38 H           3.9701    0.3471   -3.5147 H       1  UNL1        0.0477
     39 H           4.4672    1.4910   -2.2561 H       1  UNL1        0.0477
     40 H           2.0897    1.6747   -2.5547 H       1  UNL1        0.0477
     41 H           1.8120   -0.1011   -2.2970 H       1  UNL1        0.0477
     42 H           3.2772    1.1435   -0.0865 H       1  UNL1        0.1491
     43 H           3.1917    1.9470    1.6518 H       1  UNL1        0.0838
     44 H           1.1811    2.7295    5.1736 H       1  UNL1        0.0830
     45 H          -1.0089    2.1472    4.0667 H       1  UNL1        0.0651
     46 H          -2.0461    2.2154    1.7498 H       1  UNL1        0.1522
     47 H          -2.5815    1.3876   -0.5875 H       1  UNL1        0.0658
     48 H          -3.4680    1.6366   -2.3406 H       1  UNL1        0.0639
     49 H          -5.6011   -0.0946   -5.5723 H       1  UNL1        0.0633
     50 H          -5.5024   -2.2976   -4.4676 H       1  UNL1        0.0647
     51 H          -2.5285   -3.0425    1.3582 H       1  UNL1        0.0833
     52 H          -1.6156   -2.4041    3.1750 H       1  UNL1        0.0344
     53 H           0.6029   -2.3700    3.1047 H       1  UNL1        0.0235
     54 H           0.5152   -1.1618    1.8292 H       1  UNL1        0.0235
     55 H           0.6860   -0.6849    3.6063 H       1  UNL1        0.0235
     56 H          -2.5181    0.3093    3.8111 H       1  UNL1        0.0235
     57 H          -1.0810   -0.3013    4.8151 H       1  UNL1        0.0235
     58 H          -2.6118   -1.1789    4.7469 H       1  UNL1        0.0235
@<TRIPOS>BOND
     1     1     2    1
     2     2     3    2
     3     2     4   am
     4     4     5    1
     5     5     6    1
     6     6     7    1
     7     7     8   am
     8     8     9    2
     9     8    10    1
    10    10    11   ar
    11    11    12   ar
    12    12    13   ar
    13    13    14   ar
    14    14    15   ar
    15    15    16    1
    16    16    17    1
    17    17    18   ar
    18    18    19   ar
    19    19    20    1
    20    20    21   ar
    21    21    22   ar
    22    22    23    1
    23    22    24   ar
    24    24    25   ar
    25    25    26   ar
    26    26    27    1
    27    19    28   ar
    28    28    29   ar
    29    29    30   ar
    30    30    31    1
    31    31    32    1
    32    31    33    1
    33    15    10   ar
    34    30    17   ar
    35    26    20   ar
    36     1    34    1
    37     1    35    1
    38     1    36    1
    39     4    37    1
    40     5    38    1
    41     5    39    1
    42     6    40    1
    43     6    41    1
    44     7    42    1
    45    11    43    1
    46    13    44    1
    47    14    45    1
    48    16    46    1
    49    18    47    1
    50    21    48    1
    51    24    49    1
    52    25    50    1
    53    29    51    1
    54    31    52    1
    55    32    53    1
    56    32    54    1
    57    32    55    1
    58    33    56    1
    59    33    57    1
    60    33    58    1
