@<TRIPOS>MOLECULE
*****
 29 29 0 0 0
SMALL
GASTEIGER

@<TRIPOS>ATOM
      1 CL         -1.7242    4.0059    0.8310 Cl      1  UNL1       -0.1241
      2 C          -0.8472    2.5722    0.1951 C.3     1  UNL1        0.0358
      3 C          -1.7244    1.3485    0.3221 C.3     1  UNL1        0.0219
      4 N          -1.1037    0.1373   -0.1780 N.3     1  UNL1       -0.2167
      5 C          -2.0111   -0.9719    0.0037 C.3     1  UNL1        0.0219
      6 C          -3.2339   -0.8958   -0.8639 C.3     1  UNL1        0.0358
      7 CL         -4.2607   -2.3328   -0.5262 Cl      1  UNL1       -0.1241
      8 P           0.3841   -0.0923    0.6506 P.3     1  UNL1        0.3458
      9 O           0.3069    0.2643    2.1322 O.2     1  UNL1       -0.2542
     10 N           1.0784   -1.6947    0.4411 N.3     1  UNL1       -0.2325
     11 C           2.2604   -1.5722   -0.3905 C.3     1  UNL1        0.0074
     12 C           3.3027   -0.6689    0.2165 C.3     1  UNL1       -0.0159
     13 C           2.7399    0.6433    0.6941 C.3     1  UNL1        0.0584
     14 O           1.5640    0.9579   -0.0212 O.3     1  UNL1       -0.3053
     15 H          -0.5892    2.7507   -0.8667 H       1  UNL1        0.0442
     16 H           0.0600    2.4867    0.8474 H       1  UNL1        0.0442
     17 H          -1.9530    1.2238    1.4187 H       1  UNL1        0.0443
     18 H          -2.7112    1.5432   -0.1401 H       1  UNL1        0.0443
     19 H          -1.5146   -1.9189   -0.1965 H       1  UNL1        0.0443
     20 H          -2.3028   -0.9833    1.0898 H       1  UNL1        0.0443
     21 H          -2.9033   -1.0090   -1.9253 H       1  UNL1        0.0442
     22 H          -3.8788   -0.0345   -0.6904 H       1  UNL1        0.0442
     23 H           0.4477   -2.3346   -0.0520 H       1  UNL1        0.1326
     24 H           2.7101   -2.5828   -0.4697 H       1  UNL1        0.0430
     25 H           2.0476   -1.2421   -1.4237 H       1  UNL1        0.0430
     26 H           3.8261   -1.1403    1.0499 H       1  UNL1        0.0300
     27 H           4.0517   -0.4350   -0.5695 H       1  UNL1        0.0300
     28 H           2.4742    0.5358    1.7583 H       1  UNL1        0.0565
     29 H           3.5042    1.4395    0.5755 H       1  UNL1        0.0565
@<TRIPOS>BOND
     1     1     2    1
     2     2     3    1
     3     3     4    1
     4     4     5    1
     5     5     6    1
     6     6     7    1
     7     4     8    1
     8     8     9    2
     9     8    10    1
    10    10    11    1
    11    11    12    1
    12    12    13    1
    13    13    14    1
    14    14     8    1
    15     2    15    1
    16     2    16    1
    17     3    17    1
    18     3    18    1
    19     5    19    1
    20     5    20    1
    21     6    21    1
    22     6    22    1
    23    10    23    1
    24    11    24    1
    25    11    25    1
    26    12    26    1
    27    12    27    1
    28    13    28    1
    29    13    29    1
