@<TRIPOS>MOLECULE
*****
 57 56 0 0 0
SMALL
GASTEIGER

@<TRIPOS>ATOM
      1 C          -5.9754    1.2738   -4.0592 C.3     1  UNL1       -0.0653
      2 C          -6.2954    0.8110   -2.6558 C.3     1  UNL1       -0.0559
      3 C          -5.7260    1.8315   -1.6917 C.3     1  UNL1       -0.0533
      4 C          -5.9931    1.4542   -0.2565 C.3     1  UNL1       -0.0531
      5 C          -5.3920    0.1289    0.1156 C.3     1  UNL1       -0.0531
      6 C          -3.8814    0.0900   -0.0558 C.3     1  UNL1       -0.0531
      7 C          -3.1927    1.1115    0.7927 C.3     1  UNL1       -0.0531
      8 C          -1.7111    1.0381    0.5530 C.3     1  UNL1       -0.0530
      9 C          -1.2098   -0.3133    0.9201 C.3     1  UNL1       -0.0526
     10 C           0.2850   -0.4629    0.7240 C.3     1  UNL1       -0.0448
     11 C           1.0510    0.5240    1.5795 C.3     1  UNL1        0.0240
     12 C           2.4813    0.3181    1.3394 C.2     1  UNL1        0.2130
     13 O           2.5137   -0.5993    0.5157 O.2     1  UNL1       -0.2758
     14 N           3.6287    0.9328    1.8460 N.am    1  UNL1       -0.3151
     15 C           5.0292    0.8948    1.7691 C.3     1  UNL1        0.0164
     16 C           5.6638   -0.3571    2.2301 C.3     1  UNL1        0.0029
     17 C           5.3469   -1.6231    1.5251 C.3     1  UNL1       -0.0318
     18 N           5.6710   -1.6888    0.1373 N.3     1  UNL1        0.2128
     19 C           4.9900   -2.8542   -0.4110 C.3     1  UNL1       -0.0441
     20 C           7.1175   -1.8656    0.0386 C.3     1  UNL1       -0.0441
     21 O           5.3449   -0.6422   -0.6103 O.co2   1  UNL1       -0.7759
     22 H          -6.1569    2.3564   -4.1358 H       1  UNL1        0.0230
     23 H          -4.9410    0.9795   -4.3397 H       1  UNL1        0.0230
     24 H          -6.6327    0.7866   -4.8202 H       1  UNL1        0.0230
     25 H          -7.4123    0.8752   -2.5614 H       1  UNL1        0.0263
     26 H          -5.9130   -0.1910   -2.4375 H       1  UNL1        0.0263
     27 H          -6.2772    2.7739   -1.8909 H       1  UNL1        0.0265
     28 H          -4.6718    1.9522   -1.9489 H       1  UNL1        0.0265
     29 H          -7.0822    1.3521   -0.1478 H       1  UNL1        0.0265
     30 H          -5.6126    2.2322    0.3999 H       1  UNL1        0.0265
     31 H          -5.7994   -0.7167   -0.4699 H       1  UNL1        0.0265
     32 H          -5.6625   -0.0629    1.1719 H       1  UNL1        0.0265
     33 H          -3.5999   -0.9532    0.1916 H       1  UNL1        0.0265
     34 H          -3.7015    0.2236   -1.1414 H       1  UNL1        0.0265
     35 H          -3.3308    0.7795    1.8654 H       1  UNL1        0.0265
     36 H          -3.5981    2.1344    0.6507 H       1  UNL1        0.0265
     37 H          -1.5610    1.1332   -0.5666 H       1  UNL1        0.0265
     38 H          -1.1607    1.8660    1.0421 H       1  UNL1        0.0265
     39 H          -1.6575   -1.1166    0.2781 H       1  UNL1        0.0265
     40 H          -1.4359   -0.6254    1.9603 H       1  UNL1        0.0265
     41 H           0.5849   -0.2901   -0.3322 H       1  UNL1        0.0270
     42 H           0.5557   -1.4778    1.0812 H       1  UNL1        0.0270
     43 H           0.7836    1.5689    1.4332 H       1  UNL1        0.0358
     44 H           0.8810    0.2752    2.6700 H       1  UNL1        0.0358
     45 H           3.1968    1.6668    2.5070 H       1  UNL1        0.1487
     46 H           5.4192    1.7189    2.4459 H       1  UNL1        0.0464
     47 H           5.3917    1.2070    0.7458 H       1  UNL1        0.0464
     48 H           6.7846   -0.2581    2.3217 H       1  UNL1        0.0332
     49 H           5.3726   -0.5389    3.3222 H       1  UNL1        0.0332
     50 H           4.3252   -2.0141    1.7597 H       1  UNL1        0.0814
     51 H           6.0445   -2.4088    2.0146 H       1  UNL1        0.0814
     52 H           5.4455   -3.7976   -0.0305 H       1  UNL1        0.0776
     53 H           3.9385   -2.8498   -0.0986 H       1  UNL1        0.0776
     54 H           5.1541   -2.8653   -1.5054 H       1  UNL1        0.0776
     55 H           7.6635   -1.3709    0.8653 H       1  UNL1        0.0776
     56 H           7.5087   -1.4115   -0.9049 H       1  UNL1        0.0776
     57 H           7.4110   -2.9351    0.0830 H       1  UNL1        0.0776
@<TRIPOS>UNITY_ATOM_ATTR
18 1
charge 1
21 1
charge -1
@<TRIPOS>BOND
     1     1     2    1
     2     2     3    1
     3     3     4    1
     4     4     5    1
     5     5     6    1
     6     6     7    1
     7     7     8    1
     8     8     9    1
     9     9    10    1
    10    10    11    1
    11    11    12    1
    12    12    13    2
    13    12    14   am
    14    14    15    1
    15    15    16    1
    16    16    17    1
    17    17    18    1
    18    18    19    1
    19    18    20    1
    20    18    21    1
    21     1    22    1
    22     1    23    1
    23     1    24    1
    24     2    25    1
    25     2    26    1
    26     3    27    1
    27     3    28    1
    28     4    29    1
    29     4    30    1
    30     5    31    1
    31     5    32    1
    32     6    33    1
    33     6    34    1
    34     7    35    1
    35     7    36    1
    36     8    37    1
    37     8    38    1
    38     9    39    1
    39     9    40    1
    40    10    41    1
    41    10    42    1
    42    11    43    1
    43    11    44    1
    44    14    45    1
    45    15    46    1
    46    15    47    1
    47    16    48    1
    48    16    49    1
    49    17    50    1
    50    17    51    1
    51    19    52    1
    52    19    53    1
    53    19    54    1
    54    20    55    1
    55    20    56    1
    56    20    57    1
