
     RDKit          3D

 34 34  0  0  0  0  0  0  0  0999 V2000
   -0.1152    0.8386    1.2406 C   0  0  0  0  0  0  0  0  0  0  0  0
   -0.1610   -0.0475    0.0068 C   0  0  0  0  0  0  0  0  0  0  0  0
   -1.3920    0.1568   -0.6661 N   0  0  0  0  0  0  0  0  0  0  0  0
   -2.5965   -0.2400   -0.0751 C   0  0  0  0  0  0  0  0  0  0  0  0
   -3.0326    0.4087    1.1895 C   0  0  0  0  0  0  0  0  0  0  0  0
   -2.6401   -1.7466    0.1330 C   0  0  0  0  0  0  0  0  0  0  0  0
   -3.7213    0.0400   -1.0953 C   0  0  0  0  0  0  0  0  0  0  0  0
    0.9491    0.3842   -0.8738 C   0  0  0  0  0  0  0  0  0  0  0  0
    0.6818    0.8841   -1.9829 O   0  0  0  0  0  0  0  0  0  0  0  0
    2.3338    0.2353   -0.4694 C   0  0  0  0  0  0  0  0  0  0  0  0
    3.3794    0.6695   -1.2927 C   0  0  0  0  0  0  0  0  0  0  0  0
    4.7001    0.5494   -0.9673 C   0  0  0  0  0  0  0  0  0  0  0  0
    5.0539   -0.0264    0.2298 C   0  0  0  0  0  0  0  0  0  0  0  0
    4.0639   -0.4639    1.0631 C   0  0  0  0  0  0  0  0  0  0  0  0
    4.4652   -1.2040    2.5984 Cl  0  0  0  0  0  0  0  0  0  0  0  0
    2.7274   -0.3358    0.7202 C   0  0  0  0  0  0  0  0  0  0  0  0
   -0.1264    0.2589    2.1845 H   0  0  0  0  0  0  0  0  0  0  0  0
   -0.8745    1.6141    1.1565 H   0  0  0  0  0  0  0  0  0  0  0  0
    0.8695    1.3960    1.2335 H   0  0  0  0  0  0  0  0  0  0  0  0
   -0.0080   -1.1214    0.3072 H   0  0  0  0  0  0  0  0  0  0  0  0
   -1.4312    0.9411   -1.3158 H   0  0  0  0  0  0  0  0  0  0  0  0
   -4.0824   -0.0015    1.3810 H   0  0  0  0  0  0  0  0  0  0  0  0
   -2.4847    0.1378    2.0946 H   0  0  0  0  0  0  0  0  0  0  0  0
   -3.2249    1.5036    1.0911 H   0  0  0  0  0  0  0  0  0  0  0  0
   -3.7155   -2.0151    0.2071 H   0  0  0  0  0  0  0  0  0  0  0  0
   -2.2481   -2.2474   -0.7753 H   0  0  0  0  0  0  0  0  0  0  0  0
   -2.1322   -2.0546    1.0608 H   0  0  0  0  0  0  0  0  0  0  0  0
   -3.2997   -0.1858   -2.0804 H   0  0  0  0  0  0  0  0  0  0  0  0
   -4.0011    1.1099   -0.9605 H   0  0  0  0  0  0  0  0  0  0  0  0
   -4.5644   -0.6375   -0.8362 H   0  0  0  0  0  0  0  0  0  0  0  0
    3.0940    1.1201   -2.2299 H   0  0  0  0  0  0  0  0  0  0  0  0
    5.4608    0.9013   -1.6398 H   0  0  0  0  0  0  0  0  0  0  0  0
    6.0907   -0.1296    0.5035 H   0  0  0  0  0  0  0  0  0  0  0  0
    1.9823   -0.6921    1.3922 H   0  0  0  0  0  0  0  0  0  0  0  0
  1  2  1  0
  2  3  1  0
  3  4  1  0
  4  5  1  0
  4  6  1  0
  4  7  1  0
  2  8  1  0
  8  9  2  0
  8 10  1  0
 10 11  2  0
 11 12  1  0
 12 13  2  0
 13 14  1  0
 14 15  1  0
 14 16  2  0
 16 10  1  0
  1 17  1  0
  1 18  1  0
  1 19  1  0
  2 20  1  0
  3 21  1  0
  5 22  1  0
  5 23  1  0
  5 24  1  0
  6 25  1  0
  6 26  1  0
  6 27  1  0
  7 28  1  0
  7 29  1  0
  7 30  1  0
 11 31  1  0
 12 32  1  0
 13 33  1  0
 16 34  1  0
M  END
$$$$
