@<TRIPOS>MOLECULE
*****
 34 34 0 0 0
SMALL
GASTEIGER

@<TRIPOS>ATOM
      1 C          -0.1152    0.8386    1.2406 C.3     1  UNL1       -0.0424
      2 C          -0.1610   -0.0475    0.0068 C.3     1  UNL1        0.0687
      3 N          -1.3920    0.1568   -0.6661 N.3     1  UNL1       -0.3022
      4 C          -2.5965   -0.2400   -0.0751 C.3     1  UNL1        0.0114
      5 C          -3.0326    0.4087    1.1895 C.3     1  UNL1       -0.0473
      6 C          -2.6401   -1.7466    0.1330 C.3     1  UNL1       -0.0473
      7 C          -3.7213    0.0400   -1.0953 C.3     1  UNL1       -0.0473
      8 C           0.9491    0.3842   -0.8738 C.2     1  UNL1        0.1797
      9 O           0.6818    0.8841   -1.9829 O.2     1  UNL1       -0.2904
     10 C           2.3338    0.2353   -0.4694 C.ar    1  UNL1        0.0204
     11 C           3.3794    0.6695   -1.2927 C.ar    1  UNL1       -0.0511
     12 C           4.7001    0.5494   -0.9673 C.ar    1  UNL1       -0.0597
     13 C           5.0539   -0.0264    0.2298 C.ar    1  UNL1       -0.0433
     14 C           4.0639   -0.4639    1.0631 C.ar    1  UNL1        0.0416
     15 CL          4.4652   -1.2040    2.5984 Cl      1  UNL1       -0.0835
     16 C           2.7274   -0.3358    0.7202 C.ar    1  UNL1       -0.0328
     17 H          -0.1264    0.2589    2.1845 H       1  UNL1        0.0249
     18 H          -0.8745    1.6141    1.1565 H       1  UNL1        0.0249
     19 H           0.8695    1.3960    1.2335 H       1  UNL1        0.0249
     20 H          -0.0080   -1.1214    0.3072 H       1  UNL1        0.0540
     21 H          -1.4312    0.9411   -1.3158 H       1  UNL1        0.1231
     22 H          -4.0824   -0.0015    1.3810 H       1  UNL1        0.0247
     23 H          -2.4847    0.1378    2.0946 H       1  UNL1        0.0247
     24 H          -3.2249    1.5036    1.0911 H       1  UNL1        0.0247
     25 H          -3.7155   -2.0151    0.2071 H       1  UNL1        0.0247
     26 H          -2.2481   -2.2474   -0.7753 H       1  UNL1        0.0247
     27 H          -2.1322   -2.0546    1.0608 H       1  UNL1        0.0247
     28 H          -3.2997   -0.1858   -2.0804 H       1  UNL1        0.0247
     29 H          -4.0011    1.1099   -0.9605 H       1  UNL1        0.0247
     30 H          -4.5644   -0.6375   -0.8362 H       1  UNL1        0.0247
     31 H           3.0940    1.1201   -2.2299 H       1  UNL1        0.0625
     32 H           5.4608    0.9013   -1.6398 H       1  UNL1        0.0618
     33 H           6.0907   -0.1296    0.5035 H       1  UNL1        0.0632
     34 H           1.9823   -0.6921    1.3922 H       1  UNL1        0.0639
@<TRIPOS>BOND
     1     1     2    1
     2     2     3    1
     3     3     4    1
     4     4     5    1
     5     4     6    1
     6     4     7    1
     7     2     8    1
     8     8     9    2
     9     8    10    1
    10    10    11   ar
    11    11    12   ar
    12    12    13   ar
    13    13    14   ar
    14    14    15    1
    15    14    16   ar
    16    16    10   ar
    17     1    17    1
    18     1    18    1
    19     1    19    1
    20     2    20    1
    21     3    21    1
    22     5    22    1
    23     5    23    1
    24     5    24    1
    25     6    25    1
    26     6    26    1
    27     6    27    1
    28     7    28    1
    29     7    29    1
    30     7    30    1
    31    11    31    1
    32    12    32    1
    33    13    33    1
    34    16    34    1
