
     RDKit          3D

 87 91  0  0  0  0  0  0  0  0999 V2000
   -6.2525    1.4768   -0.3849 C   0  0  0  0  0  0  0  0  0  0  0  0
   -5.3274    2.5987    0.0242 C   0  0  0  0  0  0  0  0  0  0  0  0
   -5.1048    3.6436   -0.9830 C   0  0  0  0  0  0  0  0  0  0  0  0
   -6.2838    3.3580    1.0809 C   0  0  0  0  0  0  0  0  0  0  0  0
   -3.9672    2.1564    0.9635 S   0  0  0  0  0  6  0  0  0  0  0  0
   -4.5009    1.7928    2.3841 O   0  0  0  0  0  0  0  0  0  0  0  0
   -3.1741    3.4514    1.2818 O   0  0  0  0  0  0  0  0  0  0  0  0
   -2.8320    0.9630    0.5153 C   0  0  0  0  0  0  0  0  0  0  0  0
   -1.9424    0.9102   -0.6279 C   0  0  2  0  0  0  0  0  0  0  0  0
   -2.3640    0.8295   -2.0232 C   0  0  0  0  0  0  0  0  0  0  0  0
   -3.0997    1.7307   -2.8733 C   0  0  0  0  0  0  0  0  0  0  0  0
   -1.6102    1.4438   -3.1798 C   0  0  0  0  0  0  0  0  0  0  0  0
   -0.7389    0.0695   -0.3900 N   0  0  0  0  0  0  0  0  0  0  0  0
    0.5330    0.7052   -0.1992 C   0  0  0  0  0  0  0  0  0  0  0  0
    0.6024    1.7991    0.4109 O   0  0  0  0  0  0  0  0  0  0  0  0
    1.7946    0.1062   -0.7085 C   0  0  1  0  0  0  0  0  0  0  0  0
    2.0125    0.4989   -2.1690 C   0  0  0  0  0  0  0  0  0  0  0  0
    2.9382    0.6796    0.0887 C   0  0  0  0  0  0  0  0  0  0  0  0
    4.2670    0.1808   -0.3172 C   0  0  0  0  0  0  0  0  0  0  0  0
    4.3435   -0.6924   -1.2369 O   0  0  0  0  0  0  0  0  0  0  0  0
    5.4752    0.6221    0.2606 N   0  0  0  0  0  0  0  0  0  0  0  0
    6.8128    0.1886   -0.0781 C   0  0  0  0  0  0  0  0  0  0  0  0
    7.5536    1.4920   -0.2281 C   0  0  0  0  0  0  0  0  0  0  0  0
    6.8490    2.3896    0.7641 C   0  0  2  0  0  0  0  0  0  0  0  0
    7.7985    2.8136    1.8209 C   0  0  0  0  0  0  0  0  0  0  0  0
    7.5955    2.5467    3.0259 O   0  0  0  0  0  0  0  0  0  0  0  0
    8.9350    3.5192    1.4787 O   0  0  0  0  0  0  0  0  0  0  0  0
    5.6836    1.6135    1.3220 C   0  0  0  0  0  0  0  0  0  0  0  0
    1.7278   -1.4053   -0.6535 C   0  0  0  0  0  0  0  0  0  0  0  0
    0.5973   -1.7774    0.3062 C   0  0  2  0  0  0  0  0  0  0  0  0
    0.6103   -3.2096    0.6027 C   0  0  0  0  0  0  0  0  0  0  0  0
    0.8319   -3.6542    1.8849 C   0  0  0  0  0  0  0  0  0  0  0  0
    0.8555   -4.9815    2.2108 C   0  0  0  0  0  0  0  0  0  0  0  0
    0.6495   -5.9211    1.2120 C   0  0  0  0  0  0  0  0  0  0  0  0
    0.4239   -5.4996   -0.0904 C   0  0  0  0  0  0  0  0  0  0  0  0
    0.1683   -6.7085   -1.3364 Cl  0  0  0  0  0  0  0  0  0  0  0  0
    0.4056   -4.1301   -0.3885 C   0  0  0  0  0  0  0  0  0  0  0  0
   -0.7369   -1.3566   -0.3635 C   0  0  1  0  0  0  0  0  0  0  0  0
   -1.8366   -2.0583    0.2617 C   0  0  0  0  0  0  0  0  0  0  0  0
   -1.9652   -2.1499    1.6218 C   0  0  0  0  0  0  0  0  0  0  0  0
   -3.0339   -2.8352    2.2078 C   0  0  0  0  0  0  0  0  0  0  0  0
   -3.9695   -3.4271    1.4050 C   0  0  0  0  0  0  0  0  0  0  0  0
   -5.3332   -4.3009    2.0873 Cl  0  0  0  0  0  0  0  0  0  0  0  0
   -3.8637   -3.3499    0.0525 C   0  0  0  0  0  0  0  0  0  0  0  0
   -2.8017   -2.6688   -0.5055 C   0  0  0  0  0  0  0  0  0  0  0  0
   -7.1116    1.9328   -0.9068 H   0  0  0  0  0  0  0  0  0  0  0  0
   -6.5766    0.9396    0.5290 H   0  0  0  0  0  0  0  0  0  0  0  0
   -5.7214    0.8306   -1.1043 H   0  0  0  0  0  0  0  0  0  0  0  0
   -5.3478    3.3404   -2.0257 H   0  0  0  0  0  0  0  0  0  0  0  0
   -5.6616    4.6235   -0.7776 H   0  0  0  0  0  0  0  0  0  0  0  0
   -4.0406    3.9528   -0.9379 H   0  0  0  0  0  0  0  0  0  0  0  0
   -7.1661    3.5844    0.4597 H   0  0  0  0  0  0  0  0  0  0  0  0
   -5.6997    4.2044    1.4290 H   0  0  0  0  0  0  0  0  0  0  0  0
   -6.5420    2.5865    1.8095 H   0  0  0  0  0  0  0  0  0  0  0  0
   -3.3740   -0.0939    0.5993 H   0  0  0  0  0  0  0  0  0  0  0  0
   -2.1526    0.8260    1.4455 H   0  0  0  0  0  0  0  0  0  0  0  0
   -1.4613    2.0057   -0.5991 H   0  0  0  0  0  0  0  0  0  0  0  0
   -2.5297   -0.3137   -2.2947 H   0  0  0  0  0  0  0  0  0  0  0  0
   -3.8433    1.3247   -3.6179 H   0  0  0  0  0  0  0  0  0  0  0  0
   -3.2108    2.8007   -2.7507 H   0  0  0  0  0  0  0  0  0  0  0  0
   -0.8579    2.1995   -2.8764 H   0  0  0  0  0  0  0  0  0  0  0  0
   -1.4592    0.9285   -4.1225 H   0  0  0  0  0  0  0  0  0  0  0  0
    2.5611    1.4594   -2.2510 H   0  0  0  0  0  0  0  0  0  0  0  0
    2.6068   -0.2913   -2.7126 H   0  0  0  0  0  0  0  0  0  0  0  0
    1.0635    0.6352   -2.7074 H   0  0  0  0  0  0  0  0  0  0  0  0
    2.7237    0.4398    1.1710 H   0  0  0  0  0  0  0  0  0  0  0  0
    2.8835    1.7895   -0.0513 H   0  0  0  0  0  0  0  0  0  0  0  0
    6.8548   -0.4086   -1.0237 H   0  0  0  0  0  0  0  0  0  0  0  0
    7.2207   -0.4229    0.7534 H   0  0  0  0  0  0  0  0  0  0  0  0
    7.3678    1.8920   -1.2506 H   0  0  0  0  0  0  0  0  0  0  0  0
    8.6123    1.3602   -0.0186 H   0  0  0  0  0  0  0  0  0  0  0  0
    6.4771    3.3227    0.2707 H   0  0  0  0  0  0  0  0  0  0  0  0
    9.4019    4.1751    2.1217 H   0  0  0  0  0  0  0  0  0  0  0  0
    5.8758    1.1685    2.2990 H   0  0  0  0  0  0  0  0  0  0  0  0
    4.8007    2.2913    1.4327 H   0  0  0  0  0  0  0  0  0  0  0  0
    2.6317   -1.8764   -0.2380 H   0  0  0  0  0  0  0  0  0  0  0  0
    1.5394   -1.8370   -1.6564 H   0  0  0  0  0  0  0  0  0  0  0  0
    0.7295   -1.1352    1.1976 H   0  0  0  0  0  0  0  0  0  0  0  0
    0.9899   -2.9092    2.6501 H   0  0  0  0  0  0  0  0  0  0  0  0
    1.0346   -5.2690    3.2379 H   0  0  0  0  0  0  0  0  0  0  0  0
    0.6706   -6.9779    1.4921 H   0  0  0  0  0  0  0  0  0  0  0  0
    0.2229   -3.8576   -1.4148 H   0  0  0  0  0  0  0  0  0  0  0  0
   -0.5628   -1.6773   -1.4388 H   0  0  0  0  0  0  0  0  0  0  0  0
   -1.2333   -1.6819    2.2483 H   0  0  0  0  0  0  0  0  0  0  0  0
   -3.1014   -2.8821    3.2841 H   0  0  0  0  0  0  0  0  0  0  0  0
   -4.5999   -3.8141   -0.6094 H   0  0  0  0  0  0  0  0  0  0  0  0
   -2.7403   -2.6188   -1.5821 H   0  0  0  0  0  0  0  0  0  0  0  0
  1  2  1  0
  2  3  1  0
  2  4  1  0
  2  5  1  0
  5  6  2  0
  5  7  2  0
  5  8  1  0
  8  9  1  0
  9 10  1  0
 10 11  1  0
 11 12  1  0
  9 13  1  0
 13 14  1  0
 14 15  2  0
 14 16  1  0
 16 17  1  6
 16 18  1  0
 18 19  1  0
 19 20  2  0
 19 21  1  0
 21 22  1  0
 22 23  1  0
 23 24  1  0
 24 25  1  0
 25 26  2  0
 25 27  1  0
 24 28  1  0
 16 29  1  0
 29 30  1  0
 30 31  1  0
 31 32  2  0
 32 33  1  0
 33 34  2  0
 34 35  1  0
 35 36  1  0
 35 37  2  0
 30 38  1  0
 38 39  1  0
 39 40  2  0
 40 41  1  0
 41 42  2  0
 42 43  1  0
 42 44  1  0
 44 45  2  0
 12 10  1  0
 38 13  1  0
 45 39  1  0
 28 21  1  0
 37 31  1  0
  1 46  1  0
  1 47  1  0
  1 48  1  0
  3 49  1  0
  3 50  1  0
  3 51  1  0
  4 52  1  0
  4 53  1  0
  4 54  1  0
  8 55  1  0
  8 56  1  0
  9 57  1  6
 10 58  1  0
 11 59  1  0
 11 60  1  0
 12 61  1  0
 12 62  1  0
 17 63  1  0
 17 64  1  0
 17 65  1  0
 18 66  1  0
 18 67  1  0
 22 68  1  0
 22 69  1  0
 23 70  1  0
 23 71  1  0
 24 72  1  6
 27 73  1  0
 28 74  1  0
 28 75  1  0
 29 76  1  0
 29 77  1  0
 30 78  1  1
 32 79  1  0
 33 80  1  0
 34 81  1  0
 37 82  1  0
 38 83  1  6
 40 84  1  0
 41 85  1  0
 44 86  1  0
 45 87  1  0
M  END
$$$$
