@<TRIPOS>MOLECULE
*****
 87 91 0 0 0
SMALL
GASTEIGER

@<TRIPOS>ATOM
      1 C          -6.2525    1.4768   -0.3849 C.3     1  UNL1       -0.0405
      2 C          -5.3274    2.5987    0.0242 C.3     1  UNL1        0.0795
      3 C          -5.1048    3.6436   -0.9830 C.3     1  UNL1       -0.0405
      4 C          -6.2838    3.3580    1.0809 C.3     1  UNL1       -0.0405
      5 S          -3.9672    2.1564    0.9635 S.O2    1  UNL1       -0.0245
      6 O          -4.5009    1.7928    2.3841 O.2     1  UNL1       -0.1738
      7 O          -3.1741    3.4514    1.2818 O.2     1  UNL1       -0.1738
      8 C          -2.8320    0.9630    0.5153 C.3     1  UNL1        0.0851
      9 C          -1.9424    0.9102   -0.6279 C.3     1  UNL1        0.0488
     10 C          -2.3640    0.8295   -2.0232 C.3     1  UNL1       -0.0208
     11 C          -3.0997    1.7307   -2.8733 C.3     1  UNL1       -0.0482
     12 C          -1.6102    1.4438   -3.1798 C.3     1  UNL1       -0.0482
     13 N          -0.7389    0.0695   -0.3900 N.am    1  UNL1       -0.2885
     14 C           0.5330    0.7052   -0.1992 C.2     1  UNL1        0.2228
     15 O           0.6024    1.7991    0.4109 O.2     1  UNL1       -0.2750
     16 C           1.7946    0.1062   -0.7085 C.3     1  UNL1        0.0532
     17 C           2.0125    0.4989   -2.1690 C.3     1  UNL1       -0.0508
     18 C           2.9382    0.6796    0.0887 C.3     1  UNL1        0.0378
     19 C           4.2670    0.1808   -0.3172 C.2     1  UNL1        0.2166
     20 O           4.3435   -0.6924   -1.2369 O.2     1  UNL1       -0.2756
     21 N           5.4752    0.6221    0.2606 N.am    1  UNL1       -0.3006
     22 C           6.8128    0.1886   -0.0781 C.3     1  UNL1        0.0155
     23 C           7.5536    1.4920   -0.2281 C.3     1  UNL1       -0.0228
     24 C           6.8490    2.3896    0.7641 C.3     1  UNL1        0.0734
     25 C           7.7985    2.8136    1.8209 C.2     1  UNL1        0.3094
     26 O           7.5955    2.5467    3.0259 O.2     1  UNL1       -0.2506
     27 O           8.9350    3.5192    1.4787 O.3     1  UNL1       -0.4804
     28 C           5.6836    1.6135    1.3220 C.3     1  UNL1        0.0276
     29 C           1.7278   -1.4053   -0.6535 C.3     1  UNL1       -0.0300
     30 C           0.5973   -1.7774    0.3062 C.3     1  UNL1        0.0079
     31 C           0.6103   -3.2096    0.6027 C.ar    1  UNL1       -0.0408
     32 C           0.8319   -3.6542    1.8849 C.ar    1  UNL1       -0.0582
     33 C           0.8555   -4.9815    2.2108 C.ar    1  UNL1       -0.0601
     34 C           0.6495   -5.9211    1.2120 C.ar    1  UNL1       -0.0434
     35 C           0.4239   -5.4996   -0.0904 C.ar    1  UNL1        0.0412
     36 CL          0.1683   -6.7085   -1.3364 Cl      1  UNL1       -0.0835
     37 C           0.4056   -4.1301   -0.3885 C.ar    1  UNL1       -0.0399
     38 C          -0.7369   -1.3566   -0.3635 C.3     1  UNL1        0.0583
     39 C          -1.8366   -2.0583    0.2617 C.ar    1  UNL1       -0.0263
     40 C          -1.9652   -2.1499    1.6218 C.ar    1  UNL1       -0.0554
     41 C          -3.0339   -2.8352    2.2078 C.ar    1  UNL1       -0.0431
     42 C          -3.9695   -3.4271    1.4050 C.ar    1  UNL1        0.0410
     43 CL         -5.3332   -4.3009    2.0873 Cl      1  UNL1       -0.0835
     44 C          -3.8637   -3.3499    0.0525 C.ar    1  UNL1       -0.0431
     45 C          -2.8017   -2.6688   -0.5055 C.ar    1  UNL1       -0.0554
     46 H          -7.1116    1.9328   -0.9068 H       1  UNL1        0.0251
     47 H          -6.5766    0.9396    0.5290 H       1  UNL1        0.0251
     48 H          -5.7214    0.8306   -1.1043 H       1  UNL1        0.0251
     49 H          -5.3478    3.3404   -2.0257 H       1  UNL1        0.0251
     50 H          -5.6616    4.6235   -0.7776 H       1  UNL1        0.0251
     51 H          -4.0406    3.9528   -0.9379 H       1  UNL1        0.0251
     52 H          -7.1661    3.5844    0.4597 H       1  UNL1        0.0251
     53 H          -5.6997    4.2044    1.4290 H       1  UNL1        0.0251
     54 H          -6.5420    2.5865    1.8095 H       1  UNL1        0.0251
     55 H          -3.3740   -0.0939    0.5993 H       1  UNL1        0.0519
     56 H          -2.1526    0.8260    1.4455 H       1  UNL1        0.0519
     57 H          -1.4613    2.0057   -0.5991 H       1  UNL1        0.0519
     58 H          -2.5297   -0.3137   -2.2947 H       1  UNL1        0.0319
     59 H          -3.8433    1.3247   -3.6179 H       1  UNL1        0.0269
     60 H          -3.2108    2.8007   -2.7507 H       1  UNL1        0.0269
     61 H          -0.8579    2.1995   -2.8764 H       1  UNL1        0.0269
     62 H          -1.4592    0.9285   -4.1225 H       1  UNL1        0.0269
     63 H           2.5611    1.4594   -2.2510 H       1  UNL1        0.0240
     64 H           2.6068   -0.2913   -2.7126 H       1  UNL1        0.0240
     65 H           1.0635    0.6352   -2.7074 H       1  UNL1        0.0240
     66 H           2.7237    0.4398    1.1710 H       1  UNL1        0.0368
     67 H           2.8835    1.7895   -0.0513 H       1  UNL1        0.0368
     68 H           6.8548   -0.4086   -1.0237 H       1  UNL1        0.0465
     69 H           7.2207   -0.4229    0.7534 H       1  UNL1        0.0465
     70 H           7.3678    1.8920   -1.2506 H       1  UNL1        0.0289
     71 H           8.6123    1.3602   -0.0186 H       1  UNL1        0.0289
     72 H           6.4771    3.3227    0.2707 H       1  UNL1        0.0429
     73 H           9.4019    4.1751    2.1217 H       1  UNL1        0.2951
     74 H           5.8758    1.1685    2.2990 H       1  UNL1        0.0472
     75 H           4.8007    2.2913    1.4327 H       1  UNL1        0.0472
     76 H           2.6317   -1.8764   -0.2380 H       1  UNL1        0.0282
     77 H           1.5394   -1.8370   -1.6564 H       1  UNL1        0.0282
     78 H           0.7295   -1.1352    1.1976 H       1  UNL1        0.0370
     79 H           0.9899   -2.9092    2.6501 H       1  UNL1        0.0620
     80 H           1.0346   -5.2690    3.2379 H       1  UNL1        0.0618
     81 H           0.6706   -6.9779    1.4921 H       1  UNL1        0.0632
     82 H           0.2229   -3.8576   -1.4148 H       1  UNL1        0.0635
     83 H          -0.5628   -1.6773   -1.4388 H       1  UNL1        0.0556
     84 H          -1.2333   -1.6819    2.2483 H       1  UNL1        0.0621
     85 H          -3.1014   -2.8821    3.2841 H       1  UNL1        0.0632
     86 H          -4.5999   -3.8141   -0.6094 H       1  UNL1        0.0632
     87 H          -2.7403   -2.6188   -1.5821 H       1  UNL1        0.0621
@<TRIPOS>BOND
     1     1     2    1
     2     2     3    1
     3     2     4    1
     4     2     5    1
     5     5     6    2
     6     5     7    2
     7     5     8    1
     8     8     9    1
     9     9    10    1
    10    10    11    1
    11    11    12    1
    12     9    13    1
    13    13    14   am
    14    14    15    2
    15    14    16    1
    16    16    17    1
    17    16    18    1
    18    18    19    1
    19    19    20    2
    20    19    21   am
    21    21    22    1
    22    22    23    1
    23    23    24    1
    24    24    25    1
    25    25    26    2
    26    25    27    1
    27    24    28    1
    28    16    29    1
    29    29    30    1
    30    30    31    1
    31    31    32   ar
    32    32    33   ar
    33    33    34   ar
    34    34    35   ar
    35    35    36    1
    36    35    37   ar
    37    30    38    1
    38    38    39    1
    39    39    40   ar
    40    40    41   ar
    41    41    42   ar
    42    42    43    1
    43    42    44   ar
    44    44    45   ar
    45    12    10    1
    46    38    13    1
    47    45    39   ar
    48    28    21    1
    49    37    31   ar
    50     1    46    1
    51     1    47    1
    52     1    48    1
    53     3    49    1
    54     3    50    1
    55     3    51    1
    56     4    52    1
    57     4    53    1
    58     4    54    1
    59     8    55    1
    60     8    56    1
    61     9    57    1
    62    10    58    1
    63    11    59    1
    64    11    60    1
    65    12    61    1
    66    12    62    1
    67    17    63    1
    68    17    64    1
    69    17    65    1
    70    18    66    1
    71    18    67    1
    72    22    68    1
    73    22    69    1
    74    23    70    1
    75    23    71    1
    76    24    72    1
    77    27    73    1
    78    28    74    1
    79    28    75    1
    80    29    76    1
    81    29    77    1
    82    30    78    1
    83    32    79    1
    84    33    80    1
    85    34    81    1
    86    37    82    1
    87    38    83    1
    88    40    84    1
    89    41    85    1
    90    44    86    1
    91    45    87    1
