@<TRIPOS>MOLECULE
*****
 25 24 0 0 0
SMALL
GASTEIGER

@<TRIPOS>ATOM
      1 C1         -2.4065   -0.7985    0.2952 C.3     1  <1>         0.1123
      2 N1         -1.5231   -1.3485   -0.7097 N.3     1  <1>        -0.3178
      3 C2         -1.6638   -0.3339    1.5238 C.3     1  <1>         0.0193
      4 S1         -0.4591    0.9535    1.1406 S.3     1  <1>        -0.1570
      5 C3          0.8654    0.2506    0.1285 C.3     1  <1>         0.0146
      6 C4          1.8903    1.3430   -0.2046 C.3     1  <1>         0.0904
      7 S2          3.1640    0.6124   -1.1829 S.O2    1  <1>         0.0277
      8 N2          3.9112   -0.6583   -0.2675 N.3     1  <1>        -0.2081
      9 O1          2.5683   -0.0376   -2.4213 O.2     1  <1>        -0.1584
     10 O2          4.1714    1.6357   -1.5479 O.2     1  <1>        -0.1584
     11 C5         -3.1934    0.3296   -0.2941 C.2     1  <1>         0.3225
     12 O3         -4.1054    0.9743    0.5558 O.3     1  <1>        -0.4795
     13 O4         -3.1179    0.7601   -1.4822 O.2     1  <1>        -0.2492
     14 H1         -3.1721   -1.5510    0.6147 H       1  <1>         0.0582
     15 H2         -0.8758   -2.0250   -0.2467 H       1  <1>         0.1190
     16 H3         -2.0965   -1.8156   -1.4484 H       1  <1>         0.1190
     17 H4         -2.3393    0.0612    2.2989 H       1  <1>         0.0397
     18 H5         -1.1768   -1.2477    1.9453 H       1  <1>         0.0397
     19 H6          1.3706   -0.5810    0.6568 H       1  <1>         0.0393
     20 H7          0.4675   -0.0997   -0.8421 H       1  <1>         0.0393
     21 H8          1.3602    2.1051   -0.8218 H       1  <1>         0.0524
     22 H9          2.3180    1.7419    0.7173 H       1  <1>         0.0524
     23 H10         4.9078   -0.6552   -0.5354 H       1  <1>         0.1438
     24 H11         3.4662   -1.5827   -0.4823 H       1  <1>         0.1438
     25 H12        -4.3313    1.9671    0.4482 H       1  <1>         0.2951
@<TRIPOS>BOND
     1     1     2    1
     2     1     3    1
     3     3     4    1
     4     4     5    1
     5     5     6    1
     6     6     7    1
     7     7     8    1
     8     7     9    2
     9     7    10    2
    10     1    11    1
    11    11    12    1
    12    11    13    2
    13     1    14    1
    14     2    15    1
    15     2    16    1
    16     3    17    1
    17     3    18    1
    18     5    19    1
    19     5    20    1
    20     6    21    1
    21     6    22    1
    22     8    23    1
    23     8    24    1
    24    12    25    1
