
     RDKit          3D

 25 24  0  0  0  0  0  0  0  0999 V2000
   -2.4065   -0.7985    0.2952 C   0  0  1  0  0  0  0  0  0  0  0  0
   -1.5231   -1.3485   -0.7097 N   0  0  0  0  0  0  0  0  0  0  0  0
   -1.6638   -0.3339    1.5238 C   0  0  0  0  0  0  0  0  0  0  0  0
   -0.4591    0.9535    1.1406 S   0  0  0  0  0  0  0  0  0  0  0  0
    0.8654    0.2506    0.1285 C   0  0  0  0  0  0  0  0  0  0  0  0
    1.8903    1.3430   -0.2046 C   0  0  0  0  0  0  0  0  0  0  0  0
    3.1640    0.6124   -1.1829 S   0  0  0  0  0  0  0  0  0  0  0  0
    3.9112   -0.6583   -0.2675 N   0  0  0  0  0  0  0  0  0  0  0  0
    2.5683   -0.0376   -2.4213 O   0  0  0  0  0  0  0  0  0  0  0  0
    4.1714    1.6357   -1.5479 O   0  0  0  0  0  0  0  0  0  0  0  0
   -3.1934    0.3296   -0.2941 C   0  0  0  0  0  0  0  0  0  0  0  0
   -4.1054    0.9743    0.5558 O   0  0  0  0  0  0  0  0  0  0  0  0
   -3.1179    0.7601   -1.4822 O   0  0  0  0  0  0  0  0  0  0  0  0
   -3.1721   -1.5510    0.6147 H   0  0  0  0  0  0  0  0  0  0  0  0
   -0.8758   -2.0250   -0.2467 H   0  0  0  0  0  0  0  0  0  0  0  0
   -2.0965   -1.8156   -1.4484 H   0  0  0  0  0  0  0  0  0  0  0  0
   -2.3393    0.0612    2.2989 H   0  0  0  0  0  0  0  0  0  0  0  0
   -1.1768   -1.2477    1.9453 H   0  0  0  0  0  0  0  0  0  0  0  0
    1.3706   -0.5810    0.6568 H   0  0  0  0  0  0  0  0  0  0  0  0
    0.4675   -0.0997   -0.8421 H   0  0  0  0  0  0  0  0  0  0  0  0
    1.3602    2.1051   -0.8218 H   0  0  0  0  0  0  0  0  0  0  0  0
    2.3180    1.7419    0.7173 H   0  0  0  0  0  0  0  0  0  0  0  0
    4.9078   -0.6552   -0.5354 H   0  0  0  0  0  0  0  0  0  0  0  0
    3.4662   -1.5827   -0.4823 H   0  0  0  0  0  0  0  0  0  0  0  0
   -4.3313    1.9671    0.4482 H   0  0  0  0  0  0  0  0  0  0  0  0
  1  2  1  0
  1  3  1  0
  3  4  1  0
  4  5  1  0
  5  6  1  0
  6  7  1  0
  7  8  1  0
  7  9  2  0
  7 10  2  0
  1 11  1  0
 11 12  1  0
 11 13  2  0
  1 14  1  1
  2 15  1  0
  2 16  1  0
  3 17  1  0
  3 18  1  0
  5 19  1  0
  5 20  1  0
  6 21  1  0
  6 22  1  0
  8 23  1  0
  8 24  1  0
 12 25  1  0
M  END
$$$$
