@<TRIPOS>MOLECULE
*****
 75 80 0 0 0
SMALL
GASTEIGER

@<TRIPOS>ATOM
      1 C          -0.6203   -4.5242    2.3938 C.3     1  UNL1       -0.0527
      2 C          -0.9619   -3.6005    1.2556 C.3     1  UNL1        0.0112
      3 C           0.1585   -2.6224    1.0896 C.3     1  UNL1       -0.0116
      4 C          -0.0673   -1.6267    0.0545 C.ar    1  UNL1        0.0055
      5 C           1.0883   -1.2557   -0.6830 C.ar    1  UNL1        0.1250
      6 O           2.2227   -1.8099   -0.4445 O.3     1  UNL1       -0.4856
      7 C           3.4363   -2.2603   -0.3378 C.3     1  UNL1        0.1313
      8 C           4.5237   -1.2884    0.0007 C.ar    1  UNL1        0.0785
      9 C           4.2663    0.0610    0.0788 C.ar    1  UNL1       -0.0365
     10 C           5.2602    0.9940    0.3851 C.ar    1  UNL1       -0.0508
     11 C           6.5420    0.5398    0.6160 C.ar    1  UNL1        0.0002
     12 C           7.5908    1.5116    0.9332 C.ar    1  UNL1       -0.0164
     13 C           8.6472    1.1692    1.7619 C.ar    1  UNL1       -0.0540
     14 C           9.6323    2.0895    2.0527 C.ar    1  UNL1       -0.0612
     15 C           9.5724    3.3788    1.5119 C.ar    1  UNL1       -0.0617
     16 C           8.5283    3.7263    0.6890 C.ar    1  UNL1       -0.0612
     17 C           7.5673    2.7737    0.4267 C.ar    1  UNL1       -0.0540
     18 C           6.7732   -0.8120    0.5322 C.ar    1  UNL1        0.0357
     19 N           5.7810   -1.6940    0.2315 N.ar    1  UNL1       -0.2559
     20 C           0.8581   -0.2755   -1.6410 C.ar    1  UNL1       -0.0177
     21 C          -0.3859    0.3004   -1.8693 C.ar    1  UNL1       -0.0341
     22 C          -1.4954   -0.0746   -1.1416 C.ar    1  UNL1        0.0511
     23 C          -1.2732   -1.0470   -0.1910 C.ar    1  UNL1        0.0202
     24 C          -2.4742   -1.2896    0.4113 C.ar    1  UNL1        0.0370
     25 C          -3.4465   -0.4893   -0.1394 C.ar    1  UNL1        0.0346
     26 C          -4.8499   -0.5090    0.2699 C.3     1  UNL1        0.0040
     27 C          -5.6956   -1.6204   -0.2487 C.3     1  UNL1        0.0673
     28 C          -7.1232   -1.4225    0.3345 C.3     1  UNL1       -0.0493
     29 C          -5.3012   -3.0044    0.1964 C.3     1  UNL1       -0.0493
     30 C          -5.8663   -1.6490   -1.7222 C.2     1  UNL1        0.3108
     31 O          -5.3884   -2.5884   -2.3910 O.2     1  UNL1       -0.2504
     32 O          -6.5507   -0.6564   -2.3993 O.3     1  UNL1       -0.4802
     33 N          -2.8164    0.2599   -1.1017 N.ar    1  UNL1       -0.3383
     34 C          -3.3882    1.2524   -1.9447 C.3     1  UNL1        0.0486
     35 C          -3.4090    2.6227   -1.4604 C.ar    1  UNL1       -0.0277
     36 C          -2.3192    3.4374   -1.5398 C.ar    1  UNL1       -0.0555
     37 C          -2.3853    4.7294   -1.0823 C.ar    1  UNL1       -0.0431
     38 C          -3.5335    5.2352   -0.5383 C.ar    1  UNL1        0.0410
     39 CL         -3.6271    6.8833    0.0492 Cl      1  UNL1       -0.0835
     40 C          -4.6587    4.4483   -0.4382 C.ar    1  UNL1       -0.0431
     41 C          -4.5567    3.1469   -0.9108 C.ar    1  UNL1       -0.0555
     42 S          -2.4250   -2.5553    1.7054 S.3     1  UNL1       -0.1194
     43 H           0.1458   -4.0905    3.0790 H       1  UNL1        0.0240
     44 H          -0.1109   -5.4257    1.9450 H       1  UNL1        0.0240
     45 H          -1.4964   -4.8629    2.9582 H       1  UNL1        0.0240
     46 H          -1.1398   -4.1141    0.3007 H       1  UNL1        0.0416
     47 H           1.1547   -3.1089    1.0437 H       1  UNL1        0.0325
     48 H           0.1976   -2.0515    2.0711 H       1  UNL1        0.0325
     49 H           3.7651   -2.7344   -1.3229 H       1  UNL1        0.0763
     50 H           3.6234   -3.1312    0.3773 H       1  UNL1        0.0763
     51 H           3.2677    0.4445   -0.0994 H       1  UNL1        0.0637
     52 H           5.0614    2.0557    0.4472 H       1  UNL1        0.0625
     53 H           8.6674    0.1661    2.1647 H       1  UNL1        0.0624
     54 H          10.4570    1.8481    2.6905 H       1  UNL1        0.0618
     55 H          10.3417    4.1190    1.7306 H       1  UNL1        0.0618
     56 H           8.4263    4.7226    0.2339 H       1  UNL1        0.0618
     57 H           6.7557    3.0617   -0.2211 H       1  UNL1        0.0624
     58 H           7.7719   -1.2032    0.7099 H       1  UNL1        0.0836
     59 H           1.6682    0.0851   -2.2631 H       1  UNL1        0.0655
     60 H          -0.5223    1.0574   -2.6382 H       1  UNL1        0.0639
     61 H          -4.8701   -0.6393    1.4052 H       1  UNL1        0.0338
     62 H          -5.3884    0.4564    0.1486 H       1  UNL1        0.0338
     63 H          -7.5755   -0.5287   -0.1063 H       1  UNL1        0.0240
     64 H          -6.9990   -1.2360    1.4186 H       1  UNL1        0.0240
     65 H          -7.6706   -2.3589    0.1770 H       1  UNL1        0.0240
     66 H          -5.2851   -3.1114    1.2899 H       1  UNL1        0.0240
     67 H          -4.4050   -3.2987   -0.3453 H       1  UNL1        0.0240
     68 H          -6.1192   -3.6827   -0.2149 H       1  UNL1        0.0240
     69 H          -6.4249   -0.4599   -3.4000 H       1  UNL1        0.2951
     70 H          -4.4012    0.9359   -2.3366 H       1  UNL1        0.0541
     71 H          -2.7799    1.2839   -2.9055 H       1  UNL1        0.0541
     72 H          -1.4055    3.1024   -1.9512 H       1  UNL1        0.0621
     73 H          -1.4995    5.3896   -1.1480 H       1  UNL1        0.0632
     74 H          -5.5627    4.8522   -0.0072 H       1  UNL1        0.0632
     75 H          -5.4777    2.5733   -0.8163 H       1  UNL1        0.0621
@<TRIPOS>BOND
     1     1     2    1
     2     2     3    1
     3     3     4    1
     4     4     5   ar
     5     5     6    1
     6     6     7    1
     7     7     8    1
     8     8     9   ar
     9     9    10   ar
    10    10    11   ar
    11    11    12    1
    12    12    13   ar
    13    13    14   ar
    14    14    15   ar
    15    15    16   ar
    16    16    17   ar
    17    11    18   ar
    18    18    19   ar
    19     5    20   ar
    20    20    21   ar
    21    21    22   ar
    22    22    23   ar
    23    23    24   ar
    24    24    25   ar
    25    25    26    1
    26    26    27    1
    27    27    28    1
    28    27    29    1
    29    27    30    1
    30    30    31    2
    31    30    32    1
    32    25    33   ar
    33    33    34    1
    34    34    35    1
    35    35    36   ar
    36    36    37   ar
    37    37    38   ar
    38    38    39    1
    39    38    40   ar
    40    40    41   ar
    41    24    42    1
    42    42     2    1
    43    23     4   ar
    44    41    35   ar
    45    19     8   ar
    46    33    22   ar
    47    17    12   ar
    48     1    43    1
    49     1    44    1
    50     1    45    1
    51     2    46    1
    52     3    47    1
    53     3    48    1
    54     7    49    1
    55     7    50    1
    56     9    51    1
    57    10    52    1
    58    13    53    1
    59    14    54    1
    60    15    55    1
    61    16    56    1
    62    17    57    1
    63    18    58    1
    64    20    59    1
    65    21    60    1
    66    26    61    1
    67    26    62    1
    68    28    63    1
    69    28    64    1
    70    28    65    1
    71    29    66    1
    72    29    67    1
    73    29    68    1
    74    32    69    1
    75    34    70    1
    76    34    71    1
    77    36    72    1
    78    37    73    1
    79    40    74    1
    80    41    75    1
