@<TRIPOS>MOLECULE
*****
 69 71 0 0 0
SMALL
GASTEIGER

@<TRIPOS>ATOM
      1 C           7.6034   -1.7541   -1.4993 C.3     1  UNL1       -0.0130
      2 N           7.1772   -0.6283   -0.6800 N.3     1  UNL1       -0.3069
      3 C           7.7434    0.6186   -1.1635 C.3     1  UNL1       -0.0130
      4 C           5.7272   -0.5558   -0.5986 C.3     1  UNL1        0.0141
      5 C           5.3781    0.6077    0.2858 C.3     1  UNL1        0.0275
      6 N           3.9432    0.7814    0.4246 N.am    1  UNL1       -0.2987
      7 C           3.2492    0.0760    1.4505 C.3     1  UNL1        0.0305
      8 C           2.2601    0.8918    2.2365 C.3     1  UNL1        0.0308
      9 N           1.2111    1.4287    1.2859 N.am    1  UNL1       -0.2955
     10 C           0.0789    0.6467    1.1876 C.2     1  UNL1        0.2490
     11 O           0.1519   -0.4094    1.9538 O.2     1  UNL1       -0.2699
     12 C          -1.1754    0.7662    0.4044 C.ar    1  UNL1        0.0657
     13 C          -1.4105    1.6719   -0.5691 C.ar    1  UNL1       -0.0370
     14 C          -2.6096    1.6586   -1.2351 C.ar    1  UNL1       -0.0023
     15 C          -3.0738    2.5613   -2.3290 C.3     1  UNL1       -0.0064
     16 C          -2.6943    1.9227   -3.6413 C.3     1  UNL1       -0.0556
     17 C          -4.5624    2.7513   -2.2929 C.3     1  UNL1       -0.0556
     18 C          -2.3587    3.8774   -2.1505 C.3     1  UNL1       -0.0556
     19 S          -3.4608    0.3529   -0.5065 S.2     1  UNL1       -0.0771
     20 C          -2.2010   -0.1326    0.6571 C.ar    1  UNL1        0.0853
     21 N          -2.3642   -1.2088    1.5698 N.am    1  UNL1       -0.2629
     22 C          -3.5852   -1.9942    1.5418 C.2     1  UNL1        0.3085
     23 O          -4.4897   -1.7454    0.7295 O.2     1  UNL1       -0.2521
     24 N          -3.7505   -3.0706    2.4649 N.am    1  UNL1       -0.2678
     25 C          -4.9480   -3.8681    2.4596 C.ar    1  UNL1        0.0546
     26 C          -5.0629   -5.0098    1.7189 C.ar    1  UNL1       -0.0389
     27 C          -6.2384   -5.7384    1.7567 C.ar    1  UNL1       -0.0585
     28 C          -7.3187   -5.3514    2.5244 C.ar    1  UNL1       -0.0419
     29 C          -7.2038   -4.1847    3.2830 C.ar    1  UNL1        0.0610
     30 CL         -8.5580   -3.6587    4.2712 Cl      1  UNL1       -0.0820
     31 C          -6.0285   -3.4718    3.2360 C.ar    1  UNL1        0.0804
     32 CL         -5.8497   -1.9895    4.1800 Cl      1  UNL1       -0.0801
     33 C           1.4343    2.6503    0.5926 C.3     1  UNL1        0.0233
     34 C           2.1367    2.3914   -0.7052 C.3     1  UNL1        0.0399
     35 C           3.4161    1.6659   -0.5455 C.2     1  UNL1        0.2171
     36 O           4.2191    1.9037   -1.5182 O.2     1  UNL1       -0.2755
     37 H           8.2171   -1.3412   -2.3237 H       1  UNL1        0.0391
     38 H           6.6904   -2.1712   -1.9732 H       1  UNL1        0.0391
     39 H           8.1748   -2.5065   -0.9315 H       1  UNL1        0.0391
     40 H           8.6224    0.3497   -1.7670 H       1  UNL1        0.0391
     41 H           7.9145    1.3577   -0.3795 H       1  UNL1        0.0391
     42 H           6.9809    1.0642   -1.8610 H       1  UNL1        0.0391
     43 H           5.2549   -0.5098   -1.5853 H       1  UNL1        0.0442
     44 H           5.4106   -1.5276   -0.1152 H       1  UNL1        0.0442
     45 H           5.8476    1.5071   -0.1523 H       1  UNL1        0.0477
     46 H           5.7924    0.4132    1.2939 H       1  UNL1        0.0477
     47 H           3.9289   -0.4293    2.1672 H       1  UNL1        0.0480
     48 H           2.6488   -0.7712    0.9963 H       1  UNL1        0.0480
     49 H           1.7055    0.2272    2.9158 H       1  UNL1        0.0480
     50 H           2.7226    1.7068    2.7850 H       1  UNL1        0.0480
     51 H          -0.6476    2.4342   -0.8642 H       1  UNL1        0.0634
     52 H          -1.6216    1.6718   -3.6398 H       1  UNL1        0.0238
     53 H          -2.9796    2.6107   -4.4693 H       1  UNL1        0.0238
     54 H          -3.3419    1.0119   -3.7547 H       1  UNL1        0.0238
     55 H          -5.0089    2.5602   -1.3192 H       1  UNL1        0.0238
     56 H          -4.7438    3.8341   -2.5490 H       1  UNL1        0.0238
     57 H          -5.0384    2.1673   -3.1174 H       1  UNL1        0.0238
     58 H          -1.3579    3.8214   -2.6128 H       1  UNL1        0.0238
     59 H          -2.2533    4.1362   -1.0796 H       1  UNL1        0.0238
     60 H          -2.9332    4.6790   -2.6162 H       1  UNL1        0.0238
     61 H          -1.6437   -1.4398    2.2512 H       1  UNL1        0.1569
     62 H          -2.9637   -3.2394    3.1316 H       1  UNL1        0.1564
     63 H          -4.2062   -5.3161    1.1106 H       1  UNL1        0.0637
     64 H          -6.3346   -6.6454    1.1703 H       1  UNL1        0.0619
     65 H          -8.2503   -5.9422    2.5423 H       1  UNL1        0.0633
     66 H           2.1627    3.2958    1.2459 H       1  UNL1        0.0469
     67 H           0.6030    3.3387    0.4865 H       1  UNL1        0.0469
     68 H           1.5081    1.8111   -1.3783 H       1  UNL1        0.0374
     69 H           2.3536    3.3885   -1.1514 H       1  UNL1        0.0374
@<TRIPOS>BOND
     1     1     2    1
     2     2     3    1
     3     2     4    1
     4     4     5    1
     5     5     6    1
     6     6     7    1
     7     7     8    1
     8     8     9    1
     9     9    10   am
    10    10    11    2
    11    10    12    1
    12    12    13   ar
    13    13    14   ar
    14    14    15    1
    15    15    16    1
    16    15    17    1
    17    15    18    1
    18    14    19   ar
    19    19    20   ar
    20    20    21    1
    21    21    22   am
    22    22    23    2
    23    22    24   am
    24    24    25    1
    25    25    26   ar
    26    26    27   ar
    27    27    28   ar
    28    28    29   ar
    29    29    30    1
    30    29    31   ar
    31    31    32    1
    32     9    33    1
    33    33    34    1
    34    34    35    1
    35    35    36    2
    36    35     6   am
    37    20    12   ar
    38    31    25   ar
    39     1    37    1
    40     1    38    1
    41     1    39    1
    42     3    40    1
    43     3    41    1
    44     3    42    1
    45     4    43    1
    46     4    44    1
    47     5    45    1
    48     5    46    1
    49     7    47    1
    50     7    48    1
    51     8    49    1
    52     8    50    1
    53    13    51    1
    54    16    52    1
    55    16    53    1
    56    16    54    1
    57    17    55    1
    58    17    56    1
    59    17    57    1
    60    18    58    1
    61    18    59    1
    62    18    60    1
    63    21    61    1
    64    24    62    1
    65    26    63    1
    66    27    64    1
    67    28    65    1
    68    33    66    1
    69    33    67    1
    70    34    68    1
    71    34    69    1
