
     RDKit          3D

 69 71  0  0  0  0  0  0  0  0999 V2000
    7.6034   -1.7541   -1.4993 C   0  0  0  0  0  0  0  0  0  0  0  0
    7.1772   -0.6283   -0.6800 N   0  0  0  0  0  0  0  0  0  0  0  0
    7.7434    0.6186   -1.1635 C   0  0  0  0  0  0  0  0  0  0  0  0
    5.7272   -0.5558   -0.5986 C   0  0  0  0  0  0  0  0  0  0  0  0
    5.3781    0.6077    0.2858 C   0  0  0  0  0  0  0  0  0  0  0  0
    3.9432    0.7814    0.4246 N   0  0  0  0  0  0  0  0  0  0  0  0
    3.2492    0.0760    1.4505 C   0  0  0  0  0  0  0  0  0  0  0  0
    2.2601    0.8918    2.2365 C   0  0  0  0  0  0  0  0  0  0  0  0
    1.2111    1.4287    1.2859 N   0  0  0  0  0  0  0  0  0  0  0  0
    0.0789    0.6467    1.1876 C   0  0  0  0  0  0  0  0  0  0  0  0
    0.1519   -0.4094    1.9538 O   0  0  0  0  0  0  0  0  0  0  0  0
   -1.1754    0.7662    0.4044 C   0  0  0  0  0  0  0  0  0  0  0  0
   -1.4105    1.6719   -0.5691 C   0  0  0  0  0  0  0  0  0  0  0  0
   -2.6096    1.6586   -1.2351 C   0  0  0  0  0  0  0  0  0  0  0  0
   -3.0738    2.5613   -2.3290 C   0  0  0  0  0  0  0  0  0  0  0  0
   -2.6943    1.9227   -3.6413 C   0  0  0  0  0  0  0  0  0  0  0  0
   -4.5624    2.7513   -2.2929 C   0  0  0  0  0  0  0  0  0  0  0  0
   -2.3587    3.8774   -2.1505 C   0  0  0  0  0  0  0  0  0  0  0  0
   -3.4608    0.3529   -0.5065 S   0  0  0  0  0  0  0  0  0  0  0  0
   -2.2010   -0.1326    0.6571 C   0  0  0  0  0  0  0  0  0  0  0  0
   -2.3642   -1.2088    1.5698 N   0  0  0  0  0  0  0  0  0  0  0  0
   -3.5852   -1.9942    1.5418 C   0  0  0  0  0  0  0  0  0  0  0  0
   -4.4897   -1.7454    0.7295 O   0  0  0  0  0  0  0  0  0  0  0  0
   -3.7505   -3.0706    2.4649 N   0  0  0  0  0  0  0  0  0  0  0  0
   -4.9480   -3.8681    2.4596 C   0  0  0  0  0  0  0  0  0  0  0  0
   -5.0629   -5.0098    1.7189 C   0  0  0  0  0  0  0  0  0  0  0  0
   -6.2384   -5.7384    1.7567 C   0  0  0  0  0  0  0  0  0  0  0  0
   -7.3187   -5.3514    2.5244 C   0  0  0  0  0  0  0  0  0  0  0  0
   -7.2038   -4.1847    3.2830 C   0  0  0  0  0  0  0  0  0  0  0  0
   -8.5580   -3.6587    4.2712 Cl  0  0  0  0  0  0  0  0  0  0  0  0
   -6.0285   -3.4718    3.2360 C   0  0  0  0  0  0  0  0  0  0  0  0
   -5.8497   -1.9895    4.1800 Cl  0  0  0  0  0  0  0  0  0  0  0  0
    1.4343    2.6503    0.5926 C   0  0  0  0  0  0  0  0  0  0  0  0
    2.1367    2.3914   -0.7052 C   0  0  0  0  0  0  0  0  0  0  0  0
    3.4161    1.6659   -0.5455 C   0  0  0  0  0  0  0  0  0  0  0  0
    4.2191    1.9037   -1.5182 O   0  0  0  0  0  0  0  0  0  0  0  0
    8.2171   -1.3412   -2.3237 H   0  0  0  0  0  0  0  0  0  0  0  0
    6.6904   -2.1712   -1.9732 H   0  0  0  0  0  0  0  0  0  0  0  0
    8.1748   -2.5065   -0.9315 H   0  0  0  0  0  0  0  0  0  0  0  0
    8.6224    0.3497   -1.7670 H   0  0  0  0  0  0  0  0  0  0  0  0
    7.9145    1.3577   -0.3795 H   0  0  0  0  0  0  0  0  0  0  0  0
    6.9809    1.0642   -1.8610 H   0  0  0  0  0  0  0  0  0  0  0  0
    5.2549   -0.5098   -1.5853 H   0  0  0  0  0  0  0  0  0  0  0  0
    5.4106   -1.5276   -0.1152 H   0  0  0  0  0  0  0  0  0  0  0  0
    5.8476    1.5071   -0.1523 H   0  0  0  0  0  0  0  0  0  0  0  0
    5.7924    0.4132    1.2939 H   0  0  0  0  0  0  0  0  0  0  0  0
    3.9289   -0.4293    2.1672 H   0  0  0  0  0  0  0  0  0  0  0  0
    2.6488   -0.7712    0.9963 H   0  0  0  0  0  0  0  0  0  0  0  0
    1.7055    0.2272    2.9158 H   0  0  0  0  0  0  0  0  0  0  0  0
    2.7226    1.7068    2.7850 H   0  0  0  0  0  0  0  0  0  0  0  0
   -0.6476    2.4342   -0.8642 H   0  0  0  0  0  0  0  0  0  0  0  0
   -1.6216    1.6718   -3.6398 H   0  0  0  0  0  0  0  0  0  0  0  0
   -2.9796    2.6107   -4.4693 H   0  0  0  0  0  0  0  0  0  0  0  0
   -3.3419    1.0119   -3.7547 H   0  0  0  0  0  0  0  0  0  0  0  0
   -5.0089    2.5602   -1.3192 H   0  0  0  0  0  0  0  0  0  0  0  0
   -4.7438    3.8341   -2.5490 H   0  0  0  0  0  0  0  0  0  0  0  0
   -5.0384    2.1673   -3.1174 H   0  0  0  0  0  0  0  0  0  0  0  0
   -1.3579    3.8214   -2.6128 H   0  0  0  0  0  0  0  0  0  0  0  0
   -2.2533    4.1362   -1.0796 H   0  0  0  0  0  0  0  0  0  0  0  0
   -2.9332    4.6790   -2.6162 H   0  0  0  0  0  0  0  0  0  0  0  0
   -1.6437   -1.4398    2.2512 H   0  0  0  0  0  0  0  0  0  0  0  0
   -2.9637   -3.2394    3.1316 H   0  0  0  0  0  0  0  0  0  0  0  0
   -4.2062   -5.3161    1.1106 H   0  0  0  0  0  0  0  0  0  0  0  0
   -6.3346   -6.6454    1.1703 H   0  0  0  0  0  0  0  0  0  0  0  0
   -8.2503   -5.9422    2.5423 H   0  0  0  0  0  0  0  0  0  0  0  0
    2.1627    3.2958    1.2459 H   0  0  0  0  0  0  0  0  0  0  0  0
    0.6030    3.3387    0.4865 H   0  0  0  0  0  0  0  0  0  0  0  0
    1.5081    1.8111   -1.3783 H   0  0  0  0  0  0  0  0  0  0  0  0
    2.3536    3.3885   -1.1514 H   0  0  0  0  0  0  0  0  0  0  0  0
  1  2  1  0
  2  3  1  0
  2  4  1  0
  4  5  1  0
  5  6  1  0
  6  7  1  0
  7  8  1  0
  8  9  1  0
  9 10  1  0
 10 11  2  0
 10 12  1  0
 12 13  1  0
 13 14  2  0
 14 15  1  0
 15 16  1  0
 15 17  1  0
 15 18  1  0
 14 19  1  0
 19 20  1  0
 20 21  1  0
 21 22  1  0
 22 23  2  0
 22 24  1  0
 24 25  1  0
 25 26  2  0
 26 27  1  0
 27 28  2  0
 28 29  1  0
 29 30  1  0
 29 31  2  0
 31 32  1  0
  9 33  1  0
 33 34  1  0
 34 35  1  0
 35 36  2  0
 35  6  1  0
 20 12  2  0
 31 25  1  0
  1 37  1  0
  1 38  1  0
  1 39  1  0
  3 40  1  0
  3 41  1  0
  3 42  1  0
  4 43  1  0
  4 44  1  0
  5 45  1  0
  5 46  1  0
  7 47  1  0
  7 48  1  0
  8 49  1  0
  8 50  1  0
 13 51  1  0
 16 52  1  0
 16 53  1  0
 16 54  1  0
 17 55  1  0
 17 56  1  0
 17 57  1  0
 18 58  1  0
 18 59  1  0
 18 60  1  0
 21 61  1  0
 24 62  1  0
 26 63  1  0
 27 64  1  0
 28 65  1  0
 33 66  1  0
 33 67  1  0
 34 68  1  0
 34 69  1  0
M  END
$$$$
