@<TRIPOS>MOLECULE
*****
 50 54 0 0 0
SMALL
GASTEIGER

@<TRIPOS>ATOM
      1 C           0.7937   -1.6042   -2.8959 C.3     1  UNL1       -0.0260
      2 C           0.0134   -2.0018   -1.6944 C.2     1  UNL1        0.0161
      3 C           0.2422   -1.4598   -0.5468 C.2     1  UNL1        0.0392
      4 C           1.2324   -0.4473   -0.2652 C.2     1  UNL1        0.2463
      5 O           1.2377   -0.0741    0.9922 O.2     1  UNL1       -0.2701
      6 N           2.1735    0.2145   -1.0182 N.am    1  UNL1       -0.2817
      7 C           3.0681    1.2197   -0.4695 C.ar    1  UNL1        0.0344
      8 C           2.6850    2.5415   -0.4661 C.ar    1  UNL1       -0.0384
      9 C           3.5573    3.4843    0.0638 C.ar    1  UNL1       -0.0345
     10 C           4.7889    3.1186    0.5812 C.ar    1  UNL1        0.0658
     11 N           5.8151    3.7846    1.1443 N.ar    1  UNL1       -0.2770
     12 N           6.7728    2.9197    1.4676 N.ar    1  UNL1       -0.1812
     13 C           6.4111    1.6698    1.1311 C.ar    1  UNL1        0.0569
     14 C           5.1620    1.7980    0.5734 C.ar    1  UNL1        0.0212
     15 C           4.2985    0.8552    0.0476 C.ar    1  UNL1       -0.0298
     16 C          -0.5870   -1.8835    0.6514 C.3     1  UNL1        0.0238
     17 C          -1.6741   -0.9400    0.8638 C.ar    1  UNL1       -0.0387
     18 C          -1.7441   -0.2258    2.0634 C.ar    1  UNL1       -0.0574
     19 C          -2.7457    0.6803    2.3160 C.ar    1  UNL1       -0.0538
     20 C          -3.7251    0.9122    1.3752 C.ar    1  UNL1       -0.0179
     21 C          -4.7593    1.8266    1.5977 C.ar    1  UNL1       -0.0540
     22 C          -5.7361    2.0500    0.6452 C.ar    1  UNL1       -0.0612
     23 C          -5.6828    1.3455   -0.5602 C.ar    1  UNL1       -0.0612
     24 C          -4.6634    0.4563   -0.7575 C.ar    1  UNL1       -0.0540
     25 C          -3.6812    0.2215    0.1818 C.ar    1  UNL1       -0.0176
     26 C          -2.6546   -0.6934   -0.0520 C.ar    1  UNL1       -0.0503
     27 C          -0.9945   -3.2949    0.5253 C.3     1  UNL1        0.0353
     28 C          -1.7140   -3.4483   -0.7790 C.2     1  UNL1        0.2179
     29 O          -2.8572   -3.9052   -0.7951 O.2     1  UNL1       -0.2754
     30 N          -0.9737   -3.0336   -1.9212 N.am    1  UNL1       -0.2889
     31 H           0.3643   -2.2150   -3.7698 H       1  UNL1        0.0290
     32 H           0.6007   -0.5845   -3.2119 H       1  UNL1        0.0290
     33 H           1.8336   -1.9519   -2.8117 H       1  UNL1        0.0290
     34 H           2.2852    0.0166   -2.0027 H       1  UNL1        0.1551
     35 H           1.7392    2.8107   -0.8650 H       1  UNL1        0.0637
     36 H           3.2708    4.5084    0.0711 H       1  UNL1        0.0639
     37 H           5.8050    4.8253    1.2811 H       1  UNL1        0.1889
     38 H           6.9410    0.7364    1.2482 H       1  UNL1        0.0854
     39 H           4.6056   -0.1826    0.0478 H       1  UNL1        0.0643
     40 H           0.1256   -1.7540    1.5351 H       1  UNL1        0.0404
     41 H          -0.9818   -0.3958    2.8158 H       1  UNL1        0.0621
     42 H          -2.7826    1.2166    3.2383 H       1  UNL1        0.0624
     43 H          -4.7734    2.3564    2.5402 H       1  UNL1        0.0624
     44 H          -6.5054    2.7619    0.8680 H       1  UNL1        0.0618
     45 H          -6.4492    1.5203   -1.3083 H       1  UNL1        0.0618
     46 H          -4.6240   -0.0838   -1.6835 H       1  UNL1        0.0624
     47 H          -2.7039   -1.1808   -1.0114 H       1  UNL1        0.0627
     48 H          -0.0697   -3.9448    0.4887 H       1  UNL1        0.0368
     49 H          -1.5720   -3.6744    1.3659 H       1  UNL1        0.0368
     50 H          -1.1682   -3.4714   -2.8358 H       1  UNL1        0.1545
@<TRIPOS>BOND
     1     1     2    1
     2     2     3    2
     3     3     4    1
     4     4     5    2
     5     4     6   am
     6     6     7    1
     7     7     8   ar
     8     8     9   ar
     9     9    10   ar
    10    10    11   ar
    11    11    12   ar
    12    12    13   ar
    13    13    14   ar
    14    14    15   ar
    15     3    16    1
    16    16    17    1
    17    17    18   ar
    18    18    19   ar
    19    19    20   ar
    20    20    21   ar
    21    21    22   ar
    22    22    23   ar
    23    23    24   ar
    24    24    25   ar
    25    25    26   ar
    26    16    27    1
    27    27    28    1
    28    28    29    2
    29    28    30   am
    30    30     2    1
    31    15     7   ar
    32    26    17   ar
    33    14    10   ar
    34    25    20   ar
    35     1    31    1
    36     1    32    1
    37     1    33    1
    38     6    34    1
    39     8    35    1
    40     9    36    1
    41    11    37    1
    42    13    38    1
    43    15    39    1
    44    16    40    1
    45    18    41    1
    46    19    42    1
    47    21    43    1
    48    22    44    1
    49    23    45    1
    50    24    46    1
    51    26    47    1
    52    27    48    1
    53    27    49    1
    54    30    50    1
