
     RDKit          3D

 52 54  0  0  0  0  0  0  0  0999 V2000
    6.2024   -1.9593    0.3410 C   0  0  0  0  0  0  0  0  0  0  0  0
    5.6769   -0.5652    0.5765 C   0  0  0  0  0  0  0  0  0  0  0  0
    4.1702   -0.5918    0.7785 C   0  0  0  0  0  0  0  0  0  0  0  0
    3.5537   -1.1719   -0.4758 C   0  0  0  0  0  0  0  0  0  0  0  0
    2.1272   -1.2561   -0.4205 N   0  0  0  0  0  0  0  0  0  0  0  0
    1.2934   -0.1140   -0.2629 C   0  0  0  0  0  0  0  0  0  0  0  0
    1.8529    1.0930   -0.1681 N   0  0  0  0  0  0  0  0  0  0  0  0
    1.0938    2.2141   -0.0163 C   0  0  0  0  0  0  0  0  0  0  0  0
   -0.2932    2.1007    0.0415 C   0  0  0  0  0  0  0  0  0  0  0  0
   -1.0592    3.3519    0.2116 C   0  0  0  0  0  0  0  0  0  0  0  0
   -0.4450    4.5770    0.3043 C   0  0  0  0  0  0  0  0  0  0  0  0
   -1.1507    5.7436    0.4622 C   0  0  0  0  0  0  0  0  0  0  0  0
   -2.5164    5.7012    0.5316 C   0  0  0  0  0  0  0  0  0  0  0  0
   -3.4365    7.1850    0.7337 Cl  0  0  0  0  0  0  0  0  0  0  0  0
   -3.1236    4.4622    0.4371 C   0  0  0  0  0  0  0  0  0  0  0  0
   -2.3922    3.3675    0.2851 N   0  0  0  0  0  0  0  0  0  0  0  0
   -0.8662    0.8691   -0.0552 C   0  0  0  0  0  0  0  0  0  0  0  0
   -2.2634    0.6705   -0.0165 N   0  0  0  0  0  0  0  0  0  0  0  0
   -2.8295   -0.6814   -0.1079 C   0  0  0  0  0  0  0  0  0  0  0  0
   -2.3333   -1.4367    1.1082 C   0  0  0  0  0  0  0  0  0  0  0  0
   -3.1558   -2.7012    1.3275 C   0  0  0  0  0  0  0  0  0  0  0  0
   -3.3783   -3.3071   -0.0495 C   0  0  0  0  0  0  0  0  0  0  0  0
   -3.3146   -4.6940    0.0801 O   0  0  0  0  0  0  0  0  0  0  0  0
   -2.2913   -2.8930   -1.0298 C   0  0  0  0  0  0  0  0  0  0  0  0
   -2.4401   -1.4013   -1.3595 C   0  0  0  0  0  0  0  0  0  0  0  0
   -0.0299   -0.2090   -0.2065 N   0  0  0  0  0  0  0  0  0  0  0  0
    6.0563   -2.2677   -0.7332 H   0  0  0  0  0  0  0  0  0  0  0  0
    5.6381   -2.6632    0.9889 H   0  0  0  0  0  0  0  0  0  0  0  0
    7.2837   -1.9833    0.5960 H   0  0  0  0  0  0  0  0  0  0  0  0
    5.9030    0.1261   -0.2686 H   0  0  0  0  0  0  0  0  0  0  0  0
    6.1427   -0.1438    1.4854 H   0  0  0  0  0  0  0  0  0  0  0  0
    3.8327    0.4359    0.9560 H   0  0  0  0  0  0  0  0  0  0  0  0
    3.9553   -1.2424    1.6610 H   0  0  0  0  0  0  0  0  0  0  0  0
    4.0186   -2.1488   -0.6438 H   0  0  0  0  0  0  0  0  0  0  0  0
    3.8408   -0.4587   -1.3033 H   0  0  0  0  0  0  0  0  0  0  0  0
    1.6808   -2.2174   -0.5016 H   0  0  0  0  0  0  0  0  0  0  0  0
    1.6564    3.1235    0.0481 H   0  0  0  0  0  0  0  0  0  0  0  0
    0.6453    4.6480    0.2526 H   0  0  0  0  0  0  0  0  0  0  0  0
   -0.6260    6.7146    0.5337 H   0  0  0  0  0  0  0  0  0  0  0  0
   -4.2247    4.4441    0.4946 H   0  0  0  0  0  0  0  0  0  0  0  0
   -2.9869    1.4014    0.0714 H   0  0  0  0  0  0  0  0  0  0  0  0
   -3.9301   -0.6334   -0.0132 H   0  0  0  0  0  0  0  0  0  0  0  0
   -2.4767   -0.8105    1.9919 H   0  0  0  0  0  0  0  0  0  0  0  0
   -1.2951   -1.7547    0.9988 H   0  0  0  0  0  0  0  0  0  0  0  0
   -2.5516   -3.3629    1.9695 H   0  0  0  0  0  0  0  0  0  0  0  0
   -4.0988   -2.4984    1.8576 H   0  0  0  0  0  0  0  0  0  0  0  0
   -4.3486   -2.9638   -0.4399 H   0  0  0  0  0  0  0  0  0  0  0  0
   -4.1619   -5.1373   -0.1921 H   0  0  0  0  0  0  0  0  0  0  0  0
   -1.3024   -3.0637   -0.5794 H   0  0  0  0  0  0  0  0  0  0  0  0
   -2.4567   -3.4836   -1.9469 H   0  0  0  0  0  0  0  0  0  0  0  0
   -3.3175   -1.3647   -2.0709 H   0  0  0  0  0  0  0  0  0  0  0  0
   -1.5279   -1.0490   -1.8418 H   0  0  0  0  0  0  0  0  0  0  0  0
  1  2  1  0
  2  3  1  0
  3  4  1  0
  4  5  1  0
  5  6  1  0
  6  7  2  0
  7  8  1  0
  8  9  2  0
  9 10  1  0
 10 11  2  0
 11 12  1  0
 12 13  2  0
 13 14  1  0
 13 15  1  0
 15 16  2  0
  9 17  1  0
 17 18  1  0
 18 19  1  0
 19 20  1  0
 20 21  1  0
 21 22  1  0
 22 23  1  0
 22 24  1  0
 24 25  1  0
 17 26  2  0
 26  6  1  0
 16 10  1  0
 25 19  1  0
  1 27  1  0
  1 28  1  0
  1 29  1  0
  2 30  1  0
  2 31  1  0
  3 32  1  0
  3 33  1  0
  4 34  1  0
  4 35  1  0
  5 36  1  0
  8 37  1  0
 11 38  1  0
 12 39  1  0
 15 40  1  0
 18 41  1  0
 19 42  1  0
 20 43  1  0
 20 44  1  0
 21 45  1  0
 21 46  1  0
 22 47  1  0
 23 48  1  0
 24 49  1  0
 24 50  1  0
 25 51  1  0
 25 52  1  0
M  END
$$$$
