@<TRIPOS>MOLECULE
*****
 52 54 0 0 0
SMALL
GASTEIGER

@<TRIPOS>ATOM
      1 C           6.2024   -1.9593    0.3410 C.3     1  UNL1       -0.0652
      2 C           5.6769   -0.5652    0.5765 C.3     1  UNL1       -0.0545
      3 C           4.1702   -0.5918    0.7785 C.3     1  UNL1       -0.0376
      4 C           3.5537   -1.1719   -0.4758 C.3     1  UNL1        0.0118
      5 N           2.1272   -1.2561   -0.4205 N.pl3   1  UNL1       -0.3134
      6 C           1.2934   -0.1140   -0.2629 C.ar    1  UNL1        0.2169
      7 N           1.8529    1.0930   -0.1681 N.ar    1  UNL1       -0.2222
      8 C           1.0938    2.2141   -0.0163 C.ar    1  UNL1        0.0436
      9 C          -0.2932    2.1007    0.0415 C.ar    1  UNL1        0.0582
     10 C          -1.0592    3.3519    0.2116 C.ar    1  UNL1        0.0758
     11 C          -0.4450    4.5770    0.3043 C.ar    1  UNL1       -0.0342
     12 C          -1.1507    5.7436    0.4622 C.ar    1  UNL1       -0.0399
     13 C          -2.5164    5.7012    0.5316 C.ar    1  UNL1        0.0591
     14 CL         -3.4365    7.1850    0.7337 Cl      1  UNL1       -0.0820
     15 C          -3.1236    4.4622    0.4371 C.ar    1  UNL1        0.0466
     16 N          -2.3922    3.3675    0.2851 N.ar    1  UNL1       -0.2534
     17 C          -0.8662    0.8691   -0.0552 C.ar    1  UNL1        0.1333
     18 N          -2.2634    0.6705   -0.0165 N.pl3   1  UNL1       -0.3256
     19 C          -2.8295   -0.6814   -0.1079 C.3     1  UNL1        0.0221
     20 C          -2.3333   -1.4367    1.1082 C.3     1  UNL1       -0.0322
     21 C          -3.1558   -2.7012    1.3275 C.3     1  UNL1       -0.0252
     22 C          -3.3783   -3.3071   -0.0495 C.3     1  UNL1        0.0554
     23 O          -3.3146   -4.6940    0.0801 O.3     1  UNL1       -0.3918
     24 C          -2.2913   -2.8930   -1.0298 C.3     1  UNL1       -0.0252
     25 C          -2.4401   -1.4013   -1.3595 C.3     1  UNL1       -0.0322
     26 N          -0.0299   -0.2090   -0.2065 N.ar    1  UNL1       -0.1991
     27 H           6.0563   -2.2677   -0.7332 H       1  UNL1        0.0230
     28 H           5.6381   -2.6632    0.9889 H       1  UNL1        0.0230
     29 H           7.2837   -1.9833    0.5960 H       1  UNL1        0.0230
     30 H           5.9030    0.1261   -0.2686 H       1  UNL1        0.0263
     31 H           6.1427   -0.1438    1.4854 H       1  UNL1        0.0263
     32 H           3.8327    0.4359    0.9560 H       1  UNL1        0.0280
     33 H           3.9553   -1.2424    1.6610 H       1  UNL1        0.0280
     34 H           4.0186   -2.1488   -0.6438 H       1  UNL1        0.0462
     35 H           3.8408   -0.4587   -1.3033 H       1  UNL1        0.0462
     36 H           1.6808   -2.2174   -0.5016 H       1  UNL1        0.1489
     37 H           1.6564    3.1235    0.0481 H       1  UNL1        0.0838
     38 H           0.6453    4.6480    0.2526 H       1  UNL1        0.0639
     39 H          -0.6260    6.7146    0.5337 H       1  UNL1        0.0633
     40 H          -4.2247    4.4441    0.4946 H       1  UNL1        0.0844
     41 H          -2.9869    1.4014    0.0714 H       1  UNL1        0.1478
     42 H          -3.9301   -0.6334   -0.0132 H       1  UNL1        0.0498
     43 H          -2.4767   -0.8105    1.9919 H       1  UNL1        0.0284
     44 H          -1.2951   -1.7547    0.9988 H       1  UNL1        0.0284
     45 H          -2.5516   -3.3629    1.9695 H       1  UNL1        0.0291
     46 H          -4.0988   -2.4984    1.8576 H       1  UNL1        0.0291
     47 H          -4.3486   -2.9638   -0.4399 H       1  UNL1        0.0593
     48 H          -4.1619   -5.1373   -0.1921 H       1  UNL1        0.2098
     49 H          -1.3024   -3.0637   -0.5794 H       1  UNL1        0.0291
     50 H          -2.4567   -3.4836   -1.9469 H       1  UNL1        0.0291
     51 H          -3.3175   -1.3647   -2.0709 H       1  UNL1        0.0284
     52 H          -1.5279   -1.0490   -1.8418 H       1  UNL1        0.0284
@<TRIPOS>BOND
     1     1     2    1
     2     2     3    1
     3     3     4    1
     4     4     5    1
     5     5     6    1
     6     6     7   ar
     7     7     8   ar
     8     8     9   ar
     9     9    10    1
    10    10    11   ar
    11    11    12   ar
    12    12    13   ar
    13    13    14    1
    14    13    15   ar
    15    15    16   ar
    16     9    17   ar
    17    17    18    1
    18    18    19    1
    19    19    20    1
    20    20    21    1
    21    21    22    1
    22    22    23    1
    23    22    24    1
    24    24    25    1
    25    17    26   ar
    26    26     6   ar
    27    16    10   ar
    28    25    19    1
    29     1    27    1
    30     1    28    1
    31     1    29    1
    32     2    30    1
    33     2    31    1
    34     3    32    1
    35     3    33    1
    36     4    34    1
    37     4    35    1
    38     5    36    1
    39     8    37    1
    40    11    38    1
    41    12    39    1
    42    15    40    1
    43    18    41    1
    44    19    42    1
    45    20    43    1
    46    20    44    1
    47    21    45    1
    48    21    46    1
    49    22    47    1
    50    23    48    1
    51    24    49    1
    52    24    50    1
    53    25    51    1
    54    25    52    1
