@<TRIPOS>MOLECULE
*****
 40 42 0 0 0
SMALL
GASTEIGER

@<TRIPOS>ATOM
      1 C           6.0854   -0.0158   -0.3962 C.3     1  UNL1       -0.0126
      2 N           4.7346   -0.2134   -0.9426 N.3     1  UNL1       -0.3024
      3 C           4.1764    1.0811   -1.1656 C.3     1  UNL1        0.0145
      4 C           3.3509    1.4404    0.0516 C.3     1  UNL1        0.0278
      5 N           2.1914    0.5512    0.0334 N.am    1  UNL1       -0.2946
      6 C           0.8837    1.0155    0.1082 C.2     1  UNL1        0.2567
      7 O           0.6707    2.2487    0.1961 O.2     1  UNL1       -0.2693
      8 C          -0.2554    0.1458    0.0900 C.ar    1  UNL1        0.1145
      9 S          -0.2030   -1.6552   -0.0318 S.2     1  UNL1       -0.0551
     10 C          -2.0006   -1.8333    0.0184 C.ar    1  UNL1        0.1322
     11 S          -2.8050   -3.2475   -0.0480 S.2     1  UNL1       -0.0244
     12 N          -2.4557   -0.5711    0.1182 N.ar    1  UNL1       -0.2853
     13 C          -3.9227   -0.3988    0.1804 C.ar    1  UNL1        0.0493
     14 C          -4.7203   -0.8444   -0.8266 C.ar    1  UNL1       -0.0378
     15 C          -6.0766   -0.6595   -0.7195 C.ar    1  UNL1       -0.0598
     16 C          -6.6226   -0.0379    0.3799 C.ar    1  UNL1       -0.0616
     17 C          -5.8281    0.4257    1.4212 C.ar    1  UNL1       -0.0598
     18 C          -4.4674    0.2219    1.2783 C.ar    1  UNL1       -0.0378
     19 C          -1.5869    0.4035    0.1532 C.ar    1  UNL1        0.1211
     20 N          -2.0179    1.8098    0.2617 N.pl3   1  UNL1       -0.3431
     21 C           2.5113   -0.8553   -0.0688 C.3     1  UNL1        0.0278
     22 C           4.0191   -1.0221   -0.0124 C.3     1  UNL1        0.0145
     23 H           6.8019   -0.2103   -1.2035 H       1  UNL1        0.0391
     24 H           6.2730   -0.6911    0.4671 H       1  UNL1        0.0391
     25 H           6.1989    1.0250   -0.0027 H       1  UNL1        0.0391
     26 H           4.9664    1.8575   -1.2573 H       1  UNL1        0.0442
     27 H           3.4712    1.0979   -2.0404 H       1  UNL1        0.0442
     28 H           3.0508    2.5073    0.0555 H       1  UNL1        0.0477
     29 H           3.9450    1.1550    0.9428 H       1  UNL1        0.0477
     30 H          -4.3090   -1.3365   -1.7010 H       1  UNL1        0.0638
     31 H          -6.7650   -0.9990   -1.5017 H       1  UNL1        0.0618
     32 H          -7.6882    0.1241    0.4966 H       1  UNL1        0.0618
     33 H          -6.2082    0.9133    2.2927 H       1  UNL1        0.0618
     34 H          -3.7937    0.5628    2.0605 H       1  UNL1        0.0638
     35 H          -2.6649    2.2285   -0.4309 H       1  UNL1        0.1437
     36 H          -1.6838    2.4145    1.0342 H       1  UNL1        0.1437
     37 H           2.0903   -1.3053   -0.9887 H       1  UNL1        0.0477
     38 H           2.1246   -1.3418    0.8497 H       1  UNL1        0.0477
     39 H           4.3298   -0.8414    1.0340 H       1  UNL1        0.0442
     40 H           4.1996   -2.1191   -0.1860 H       1  UNL1        0.0442
@<TRIPOS>BOND
     1     1     2    1
     2     2     3    1
     3     3     4    1
     4     4     5    1
     5     5     6   am
     6     6     7    2
     7     6     8    1
     8     8     9   ar
     9     9    10   ar
    10    10    11    2
    11    10    12   ar
    12    12    13    1
    13    13    14   ar
    14    14    15   ar
    15    15    16   ar
    16    16    17   ar
    17    17    18   ar
    18    12    19   ar
    19    19    20    1
    20     5    21    1
    21    21    22    1
    22    22     2    1
    23    19     8   ar
    24    18    13   ar
    25     1    23    1
    26     1    24    1
    27     1    25    1
    28     3    26    1
    29     3    27    1
    30     4    28    1
    31     4    29    1
    32    14    30    1
    33    15    31    1
    34    16    32    1
    35    17    33    1
    36    18    34    1
    37    20    35    1
    38    20    36    1
    39    21    37    1
    40    21    38    1
    41    22    39    1
    42    22    40    1
