
     RDKit          3D

 40 42  0  0  0  0  0  0  0  0999 V2000
    6.0854   -0.0158   -0.3962 C   0  0  0  0  0  0  0  0  0  0  0  0
    4.7346   -0.2134   -0.9426 N   0  0  0  0  0  0  0  0  0  0  0  0
    4.1764    1.0811   -1.1656 C   0  0  0  0  0  0  0  0  0  0  0  0
    3.3509    1.4404    0.0516 C   0  0  0  0  0  0  0  0  0  0  0  0
    2.1914    0.5512    0.0334 N   0  0  0  0  0  0  0  0  0  0  0  0
    0.8837    1.0155    0.1082 C   0  0  0  0  0  0  0  0  0  0  0  0
    0.6707    2.2487    0.1961 O   0  0  0  0  0  0  0  0  0  0  0  0
   -0.2554    0.1458    0.0900 C   0  0  0  0  0  0  0  0  0  0  0  0
   -0.2030   -1.6552   -0.0318 S   0  0  0  0  0  0  0  0  0  0  0  0
   -2.0006   -1.8333    0.0184 C   0  0  0  0  0  0  0  0  0  0  0  0
   -2.8050   -3.2475   -0.0480 S   0  0  0  0  0  0  0  0  0  0  0  0
   -2.4557   -0.5711    0.1182 N   0  0  0  0  0  0  0  0  0  0  0  0
   -3.9227   -0.3988    0.1804 C   0  0  0  0  0  0  0  0  0  0  0  0
   -4.7203   -0.8444   -0.8266 C   0  0  0  0  0  0  0  0  0  0  0  0
   -6.0766   -0.6595   -0.7195 C   0  0  0  0  0  0  0  0  0  0  0  0
   -6.6226   -0.0379    0.3799 C   0  0  0  0  0  0  0  0  0  0  0  0
   -5.8281    0.4257    1.4212 C   0  0  0  0  0  0  0  0  0  0  0  0
   -4.4674    0.2219    1.2783 C   0  0  0  0  0  0  0  0  0  0  0  0
   -1.5869    0.4035    0.1532 C   0  0  0  0  0  0  0  0  0  0  0  0
   -2.0179    1.8098    0.2617 N   0  0  0  0  0  0  0  0  0  0  0  0
    2.5113   -0.8553   -0.0688 C   0  0  0  0  0  0  0  0  0  0  0  0
    4.0191   -1.0221   -0.0124 C   0  0  0  0  0  0  0  0  0  0  0  0
    6.8019   -0.2103   -1.2035 H   0  0  0  0  0  0  0  0  0  0  0  0
    6.2730   -0.6911    0.4671 H   0  0  0  0  0  0  0  0  0  0  0  0
    6.1989    1.0250   -0.0027 H   0  0  0  0  0  0  0  0  0  0  0  0
    4.9664    1.8575   -1.2573 H   0  0  0  0  0  0  0  0  0  0  0  0
    3.4712    1.0979   -2.0404 H   0  0  0  0  0  0  0  0  0  0  0  0
    3.0508    2.5073    0.0555 H   0  0  0  0  0  0  0  0  0  0  0  0
    3.9450    1.1550    0.9428 H   0  0  0  0  0  0  0  0  0  0  0  0
   -4.3090   -1.3365   -1.7010 H   0  0  0  0  0  0  0  0  0  0  0  0
   -6.7650   -0.9990   -1.5017 H   0  0  0  0  0  0  0  0  0  0  0  0
   -7.6882    0.1241    0.4966 H   0  0  0  0  0  0  0  0  0  0  0  0
   -6.2082    0.9133    2.2927 H   0  0  0  0  0  0  0  0  0  0  0  0
   -3.7937    0.5628    2.0605 H   0  0  0  0  0  0  0  0  0  0  0  0
   -2.6649    2.2285   -0.4309 H   0  0  0  0  0  0  0  0  0  0  0  0
   -1.6838    2.4145    1.0342 H   0  0  0  0  0  0  0  0  0  0  0  0
    2.0903   -1.3053   -0.9887 H   0  0  0  0  0  0  0  0  0  0  0  0
    2.1246   -1.3418    0.8497 H   0  0  0  0  0  0  0  0  0  0  0  0
    4.3298   -0.8414    1.0340 H   0  0  0  0  0  0  0  0  0  0  0  0
    4.1996   -2.1191   -0.1860 H   0  0  0  0  0  0  0  0  0  0  0  0
  1  2  1  0
  2  3  1  0
  3  4  1  0
  4  5  1  0
  5  6  1  0
  6  7  2  0
  6  8  1  0
  8  9  1  0
  9 10  1  0
 10 11  2  0
 10 12  1  0
 12 13  1  0
 13 14  2  0
 14 15  1  0
 15 16  2  0
 16 17  1  0
 17 18  2  0
 12 19  1  0
 19 20  1  0
  5 21  1  0
 21 22  1  0
 22  2  1  0
 19  8  2  0
 18 13  1  0
  1 23  1  0
  1 24  1  0
  1 25  1  0
  3 26  1  0
  3 27  1  0
  4 28  1  0
  4 29  1  0
 14 30  1  0
 15 31  1  0
 16 32  1  0
 17 33  1  0
 18 34  1  0
 20 35  1  0
 20 36  1  0
 21 37  1  0
 21 38  1  0
 22 39  1  0
 22 40  1  0
M  END
$$$$
