@<TRIPOS>MOLECULE
*****
 36 38 0 0 0
SMALL
GASTEIGER

@<TRIPOS>ATOM
      1 O           6.6874    0.4320   -0.6512 O.2     1  UNL1       -0.2451
      2 C           5.6081   -0.1805   -0.8148 C.2     1  UNL1        0.3383
      3 O           5.5453   -1.1715   -1.7759 O.3     1  UNL1       -0.4771
      4 C           4.4762    0.1865    0.0189 C.ar    1  UNL1        0.0787
      5 C           4.5741    1.1796    0.9675 C.ar    1  UNL1        0.0416
      6 N           3.5580    1.5487    1.7555 N.ar    1  UNL1       -0.2605
      7 C           2.3541    0.9559    1.6631 C.ar    1  UNL1        0.0539
      8 C           2.2147   -0.0450    0.7238 C.ar    1  UNL1        0.1243
      9 S           0.6388   -0.8183    0.6053 S.O2    1  UNL1        0.0626
     10 O           0.8914   -2.2297    0.1404 O.2     1  UNL1       -0.1528
     11 O           0.0667   -0.8725    2.0070 O.2     1  UNL1       -0.1528
     12 N          -0.3864   -0.0517   -0.4988 N.3     1  UNL1       -0.1719
     13 C          -0.7199    1.2892   -0.2228 C.3     1  UNL1        0.0248
     14 C          -2.0414    1.5294    0.4076 C.3     1  UNL1       -0.0129
     15 C          -3.0515    0.4913    0.1332 C.ar    1  UNL1       -0.0416
     16 C          -4.3239    0.6848    0.6081 C.ar    1  UNL1       -0.0582
     17 C          -5.2876   -0.2689    0.3663 C.ar    1  UNL1       -0.0615
     18 C          -4.9830   -1.4140   -0.3479 C.ar    1  UNL1       -0.0614
     19 C          -3.7047   -1.5980   -0.8192 C.ar    1  UNL1       -0.0570
     20 C          -2.7509   -0.6391   -0.5718 C.ar    1  UNL1       -0.0285
     21 C          -1.3868   -0.8592   -1.0877 C.3     1  UNL1        0.0458
     22 C           3.2403   -0.4496   -0.1034 C.ar    1  UNL1       -0.0184
     23 H           6.3002   -1.3444   -2.4405 H       1  UNL1        0.2954
     24 H           5.5450    1.6826    1.0669 H       1  UNL1        0.0838
     25 H           1.5240    1.2672    2.3165 H       1  UNL1        0.0849
     26 H           0.0687    1.7145    0.4614 H       1  UNL1        0.0447
     27 H          -0.6030    1.8858   -1.1692 H       1  UNL1        0.0447
     28 H          -2.0015    1.6972    1.5088 H       1  UNL1        0.0326
     29 H          -2.4557    2.4906   -0.0179 H       1  UNL1        0.0326
     30 H          -4.6217    1.5613    1.1735 H       1  UNL1        0.0620
     31 H          -6.3035   -0.1282    0.7379 H       1  UNL1        0.0618
     32 H          -5.7491   -2.1676   -0.5375 H       1  UNL1        0.0618
     33 H          -3.4645   -2.4937   -1.3784 H       1  UNL1        0.0621
     34 H          -1.4441   -0.6924   -2.2028 H       1  UNL1        0.0493
     35 H          -1.1448   -1.9374   -0.9391 H       1  UNL1        0.0493
     36 H           3.1308   -1.2349   -0.8403 H       1  UNL1        0.0646
@<TRIPOS>BOND
     1     1     2    2
     2     2     3    1
     3     2     4    1
     4     4     5   ar
     5     5     6   ar
     6     6     7   ar
     7     7     8   ar
     8     8     9    1
     9     9    10    2
    10     9    11    2
    11     9    12    1
    12    12    13    1
    13    13    14    1
    14    14    15    1
    15    15    16   ar
    16    16    17   ar
    17    17    18   ar
    18    18    19   ar
    19    19    20   ar
    20    20    21    1
    21     8    22   ar
    22    22     4   ar
    23    21    12    1
    24    20    15   ar
    25     3    23    1
    26     5    24    1
    27     7    25    1
    28    13    26    1
    29    13    27    1
    30    14    28    1
    31    14    29    1
    32    16    30    1
    33    17    31    1
    34    18    32    1
    35    19    33    1
    36    21    34    1
    37    21    35    1
    38    22    36    1
