
     RDKit          3D

 55 58  0  0  0  0  0  0  0  0999 V2000
   -4.5180   -3.9649    0.2268 C   0  0  0  0  0  0  0  0  0  0  0  0
   -3.1556   -3.4232    0.2772 N   0  0  0  0  0  0  0  0  0  0  0  0
   -2.9621   -2.1612   -0.1723 C   0  0  0  0  0  0  0  0  0  0  0  0
   -3.9462   -1.5153   -0.6189 O   0  0  0  0  0  0  0  0  0  0  0  0
   -1.7002   -1.6174   -0.1395 C   0  0  0  0  0  0  0  0  0  0  0  0
   -0.7021   -2.4280    0.3592 C   0  0  0  0  0  0  0  0  0  0  0  0
    0.4519   -1.6826    0.2468 C   0  0  0  0  0  0  0  0  0  0  0  0
    0.1429   -0.4404   -0.3111 C   0  0  0  0  0  0  0  0  0  0  0  0
    1.1453    0.5364   -0.5575 N   0  0  0  0  0  0  0  0  0  0  0  0
    1.7089    0.6824   -1.9007 C   0  0  0  0  0  0  0  0  0  0  0  0
    3.1458    0.2388   -1.8507 C   0  0  0  0  0  0  0  0  0  0  0  0
    3.6665    0.2052   -0.4168 C   0  0  0  0  0  0  0  0  0  0  0  0
    3.2231    1.4578    0.2693 C   0  0  1  0  0  0  0  0  0  0  0  0
    3.9127    1.7091    1.5806 C   0  0  0  0  0  0  0  0  0  0  0  0
    3.5833    2.5730   -0.6127 N   0  0  0  0  0  0  0  0  0  0  0  0
    1.6962    1.4215    0.4469 C   0  0  0  0  0  0  0  0  0  0  0  0
   -1.1840   -0.4175   -0.5384 N   0  0  0  0  0  0  0  0  0  0  0  0
   -1.8496    0.6698   -1.1690 C   0  0  0  0  0  0  0  0  0  0  0  0
   -1.9952    1.9135   -0.3736 C   0  0  0  0  0  0  0  0  0  0  0  0
   -1.2295    3.0382   -0.7718 C   0  0  0  0  0  0  0  0  0  0  0  0
   -1.2940    4.2481   -0.1417 C   0  0  0  0  0  0  0  0  0  0  0  0
   -0.5178    5.2632   -0.6031 F   0  0  0  0  0  0  0  0  0  0  0  0
   -2.1212    4.4480    0.9357 C   0  0  0  0  0  0  0  0  0  0  0  0
   -2.8729    3.3832    1.3455 C   0  0  0  0  0  0  0  0  0  0  0  0
   -2.8032    2.1392    0.6940 C   0  0  0  0  0  0  0  0  0  0  0  0
   -3.7940    0.8600    1.3372 Cl  0  0  0  0  0  0  0  0  0  0  0  0
   -0.9005   -3.6877    0.8066 N   0  0  0  0  0  0  0  0  0  0  0  0
    0.2067   -4.4960    1.3287 C   0  0  0  0  0  0  0  0  0  0  0  0
   -2.1519   -4.1678    0.7547 C   0  0  0  0  0  0  0  0  0  0  0  0
   -2.3600   -5.3420    1.1688 O   0  0  0  0  0  0  0  0  0  0  0  0
   -5.0435   -3.5627    1.1212 H   0  0  0  0  0  0  0  0  0  0  0  0
   -5.0099   -3.5024   -0.6592 H   0  0  0  0  0  0  0  0  0  0  0  0
   -4.5151   -5.0708    0.1868 H   0  0  0  0  0  0  0  0  0  0  0  0
    1.4280   -2.0535    0.5608 H   0  0  0  0  0  0  0  0  0  0  0  0
    1.1609    0.0152   -2.5966 H   0  0  0  0  0  0  0  0  0  0  0  0
    1.5893    1.7153   -2.2782 H   0  0  0  0  0  0  0  0  0  0  0  0
    3.8185    0.8245   -2.5025 H   0  0  0  0  0  0  0  0  0  0  0  0
    3.2114   -0.8301   -2.2015 H   0  0  0  0  0  0  0  0  0  0  0  0
    4.7899    0.1937   -0.4313 H   0  0  0  0  0  0  0  0  0  0  0  0
    3.3723   -0.7211    0.1129 H   0  0  0  0  0  0  0  0  0  0  0  0
    3.9274    2.8173    1.7433 H   0  0  0  0  0  0  0  0  0  0  0  0
    4.9796    1.4185    1.4769 H   0  0  0  0  0  0  0  0  0  0  0  0
    3.4318    1.1719    2.4275 H   0  0  0  0  0  0  0  0  0  0  0  0
    4.3761    2.3380   -1.2355 H   0  0  0  0  0  0  0  0  0  0  0  0
    3.8036    3.4327   -0.1032 H   0  0  0  0  0  0  0  0  0  0  0  0
    1.3687    2.4607    0.2577 H   0  0  0  0  0  0  0  0  0  0  0  0
    1.4919    1.0672    1.4687 H   0  0  0  0  0  0  0  0  0  0  0  0
   -1.2881    0.8966   -2.1009 H   0  0  0  0  0  0  0  0  0  0  0  0
   -2.8718    0.3928   -1.5466 H   0  0  0  0  0  0  0  0  0  0  0  0
   -0.5687    2.8808   -1.6315 H   0  0  0  0  0  0  0  0  0  0  0  0
   -2.1791    5.4161    1.4452 H   0  0  0  0  0  0  0  0  0  0  0  0
   -3.5310    3.5212    2.1919 H   0  0  0  0  0  0  0  0  0  0  0  0
    0.0021   -5.5594    1.0146 H   0  0  0  0  0  0  0  0  0  0  0  0
    0.2614   -4.4689    2.4193 H   0  0  0  0  0  0  0  0  0  0  0  0
    1.1688   -4.2368    0.8436 H   0  0  0  0  0  0  0  0  0  0  0  0
  1  2  1  0
  2  3  1  0
  3  4  2  0
  3  5  1  0
  5  6  2  0
  6  7  1  0
  7  8  2  0
  8  9  1  0
  9 10  1  0
 10 11  1  0
 11 12  1  0
 12 13  1  0
 13 14  1  0
 13 15  1  6
 13 16  1  0
  8 17  1  0
 17 18  1  0
 18 19  1  0
 19 20  2  0
 20 21  1  0
 21 22  1  0
 21 23  2  0
 23 24  1  0
 24 25  2  0
 25 26  1  0
  6 27  1  0
 27 28  1  0
 27 29  1  0
 29 30  2  0
 29  2  1  0
 17  5  1  0
 25 19  1  0
 16  9  1  0
  1 31  1  0
  1 32  1  0
  1 33  1  0
  7 34  1  0
 10 35  1  0
 10 36  1  0
 11 37  1  0
 11 38  1  0
 12 39  1  0
 12 40  1  0
 14 41  1  0
 14 42  1  0
 14 43  1  0
 15 44  1  0
 15 45  1  0
 16 46  1  0
 16 47  1  0
 18 48  1  0
 18 49  1  0
 20 50  1  0
 23 51  1  0
 24 52  1  0
 28 53  1  0
 28 54  1  0
 28 55  1  0
M  END
$$$$
