@<TRIPOS>MOLECULE
*****
 55 58 0 0 0
SMALL
GASTEIGER

@<TRIPOS>ATOM
      1 C          -4.5180   -3.9649    0.2268 C.3     1  UNL1        0.0196
      2 N          -3.1556   -3.4232    0.2772 N.ar    1  UNL1       -0.2623
      3 C          -2.9621   -2.1612   -0.1723 C.ar    1  UNL1        0.2806
      4 O          -3.9462   -1.5153   -0.6189 O.2     1  UNL1       -0.2652
      5 C          -1.7002   -1.6174   -0.1395 C.ar    1  UNL1        0.1329
      6 C          -0.7021   -2.4280    0.3592 C.ar    1  UNL1        0.0780
      7 C           0.4519   -1.6826    0.2468 C.ar    1  UNL1        0.0025
      8 C           0.1429   -0.4404   -0.3111 C.ar    1  UNL1        0.1043
      9 N           1.1453    0.5364   -0.5575 N.pl3   1  UNL1       -0.3147
     10 C           1.7089    0.6824   -1.9007 C.3     1  UNL1        0.0136
     11 C           3.1458    0.2388   -1.8507 C.3     1  UNL1       -0.0355
     12 C           3.6665    0.2052   -0.4168 C.3     1  UNL1       -0.0322
     13 C           3.2231    1.4578    0.2693 C.3     1  UNL1        0.0296
     14 C           3.9127    1.7091    1.5806 C.3     1  UNL1       -0.0455
     15 N           3.5833    2.5730   -0.6127 N.3     1  UNL1       -0.3236
     16 C           1.6962    1.4215    0.4469 C.3     1  UNL1        0.0313
     17 N          -1.1840   -0.4175   -0.5384 N.ar    1  UNL1       -0.3187
     18 C          -1.8496    0.6698   -1.1690 C.3     1  UNL1        0.0516
     19 C          -1.9952    1.9135   -0.3736 C.ar    1  UNL1       -0.0067
     20 C          -1.2295    3.0382   -0.7718 C.ar    1  UNL1       -0.0202
     21 C          -1.2940    4.2481   -0.1417 C.ar    1  UNL1        0.1238
     22 F          -0.5178    5.2632   -0.6031 F       1  UNL1       -0.2055
     23 C          -2.1212    4.4480    0.9357 C.ar    1  UNL1       -0.0251
     24 C          -2.8729    3.3832    1.3455 C.ar    1  UNL1       -0.0404
     25 C          -2.8032    2.1392    0.6940 C.ar    1  UNL1        0.0460
     26 CL         -3.7940    0.8600    1.3372 Cl      1  UNL1       -0.0832
     27 N          -0.9005   -3.6877    0.8066 N.ar    1  UNL1       -0.2947
     28 C           0.2067   -4.4960    1.3287 C.3     1  UNL1        0.0167
     29 C          -2.1519   -4.1678    0.7547 C.ar    1  UNL1        0.3320
     30 O          -2.3600   -5.3420    1.1688 O.2     1  UNL1       -0.2463
     31 H          -5.0435   -3.5627    1.1212 H       1  UNL1        0.0458
     32 H          -5.0099   -3.5024   -0.6592 H       1  UNL1        0.0458
     33 H          -4.5151   -5.0708    0.1868 H       1  UNL1        0.0458
     34 H           1.4280   -2.0535    0.5608 H       1  UNL1        0.0673
     35 H           1.1609    0.0152   -2.5966 H       1  UNL1        0.0464
     36 H           1.5893    1.7153   -2.2782 H       1  UNL1        0.0464
     37 H           3.8185    0.8245   -2.5025 H       1  UNL1        0.0281
     38 H           3.2114   -0.8301   -2.2015 H       1  UNL1        0.0281
     39 H           4.7899    0.1937   -0.4313 H       1  UNL1        0.0284
     40 H           3.3723   -0.7211    0.1129 H       1  UNL1        0.0284
     41 H           3.9274    2.8173    1.7433 H       1  UNL1        0.0248
     42 H           4.9796    1.4185    1.4769 H       1  UNL1        0.0248
     43 H           3.4318    1.1719    2.4275 H       1  UNL1        0.0248
     44 H           4.3761    2.3380   -1.2355 H       1  UNL1        0.1188
     45 H           3.8036    3.4327   -0.1032 H       1  UNL1        0.1188
     46 H           1.3687    2.4607    0.2577 H       1  UNL1        0.0482
     47 H           1.4919    1.0672    1.4687 H       1  UNL1        0.0482
     48 H          -1.2881    0.8966   -2.1009 H       1  UNL1        0.0542
     49 H          -2.8718    0.3928   -1.5466 H       1  UNL1        0.0542
     50 H          -0.5687    2.8808   -1.6315 H       1  UNL1        0.0650
     51 H          -2.1791    5.4161    1.4452 H       1  UNL1        0.0647
     52 H          -3.5310    3.5212    2.1919 H       1  UNL1        0.0633
     53 H           0.0021   -5.5594    1.0146 H       1  UNL1        0.0457
     54 H           0.2614   -4.4689    2.4193 H       1  UNL1        0.0457
     55 H           1.1688   -4.2368    0.8436 H       1  UNL1        0.0457
@<TRIPOS>BOND
     1     1     2    1
     2     2     3   ar
     3     3     4    2
     4     3     5   ar
     5     5     6   ar
     6     6     7   ar
     7     7     8   ar
     8     8     9    1
     9     9    10    1
    10    10    11    1
    11    11    12    1
    12    12    13    1
    13    13    14    1
    14    13    15    1
    15    13    16    1
    16     8    17   ar
    17    17    18    1
    18    18    19    1
    19    19    20   ar
    20    20    21   ar
    21    21    22    1
    22    21    23   ar
    23    23    24   ar
    24    24    25   ar
    25    25    26    1
    26     6    27   ar
    27    27    28    1
    28    27    29   ar
    29    29    30    2
    30    29     2   ar
    31    17     5   ar
    32    25    19   ar
    33    16     9    1
    34     1    31    1
    35     1    32    1
    36     1    33    1
    37     7    34    1
    38    10    35    1
    39    10    36    1
    40    11    37    1
    41    11    38    1
    42    12    39    1
    43    12    40    1
    44    14    41    1
    45    14    42    1
    46    14    43    1
    47    15    44    1
    48    15    45    1
    49    16    46    1
    50    16    47    1
    51    18    48    1
    52    18    49    1
    53    20    50    1
    54    23    51    1
    55    24    52    1
    56    28    53    1
    57    28    54    1
    58    28    55    1
