@<TRIPOS>MOLECULE
*****
 59 62 0 0 0
SMALL
GASTEIGER

@<TRIPOS>ATOM
      1 C          -6.9508   -3.5665   -0.0373 C.3     1  UNL1       -0.0223
      2 C          -6.4466   -2.1808    0.1064 C.ar    1  UNL1        0.0393
      3 C          -5.1115   -1.9824    0.3744 C.ar    1  UNL1       -0.0337
      4 C          -4.6262   -0.6986    0.5112 C.ar    1  UNL1        0.0004
      5 C          -3.2097   -0.4705    0.7964 C.3     1  UNL1        0.1153
      6 O          -2.4850   -0.0290   -0.3351 O.3     1  UNL1       -0.4874
      7 C          -1.1371    0.2511   -0.3173 C.ar    1  UNL1        0.1210
      8 C          -0.5327    0.6757   -1.4778 C.ar    1  UNL1       -0.0196
      9 C           0.8261    0.9652   -1.4898 C.ar    1  UNL1       -0.0541
     10 C           1.6229    0.8502   -0.3851 C.ar    1  UNL1       -0.0324
     11 C           3.0459    1.1646   -0.4436 C.3     1  UNL1        0.0706
     12 C           3.3094    2.4735    0.2974 C.3     1  UNL1       -0.0471
     13 C           3.6905    1.1586   -1.7914 C.3     1  UNL1       -0.0193
     14 C           4.0819   -0.3151   -1.9997 C.3     1  UNL1        0.0167
     15 N           4.6802   -0.5703   -0.6827 N.am    1  UNL1       -0.2894
     16 C           5.8586   -1.3787   -0.4568 C.3     1  UNL1        0.1013
     17 C           5.5669   -2.5859    0.4056 C.3     1  UNL1       -0.0378
     18 C           6.9897   -0.6573    0.1378 C.2     1  UNL1        0.2557
     19 O           8.0723   -1.2256    0.4266 O.2     1  UNL1       -0.2717
     20 N           6.8812    0.7320    0.4053 N.am    1  UNL1       -0.1960
     21 O           7.9591    1.3766    0.9630 O.3     1  UNL1       -0.2951
     22 C           3.8725    0.1219    0.2528 C.2     1  UNL1        0.2265
     23 O           3.8685   -0.1215    1.4821 O.2     1  UNL1       -0.2746
     24 C           1.0030    0.4207    0.7823 C.ar    1  UNL1       -0.0541
     25 C          -0.3455    0.1325    0.7976 C.ar    1  UNL1       -0.0196
     26 C          -5.5542    0.3192    0.3626 C.ar    1  UNL1        0.0068
     27 C          -5.1078    1.6042    0.4914 C.ar    1  UNL1       -0.0522
     28 C          -6.0006    2.6633    0.3505 C.ar    1  UNL1       -0.0611
     29 C          -7.3335    2.4237    0.0817 C.ar    1  UNL1       -0.0597
     30 C          -7.7966    1.1309   -0.0506 C.ar    1  UNL1       -0.0357
     31 C          -6.8841    0.0984    0.0949 C.ar    1  UNL1        0.0716
     32 N          -7.3290   -1.1617   -0.0332 N.ar    1  UNL1       -0.2519
     33 H          -7.8809   -3.5578   -0.6546 H       1  UNL1        0.0292
     34 H          -7.1710   -3.9539    0.9878 H       1  UNL1        0.0292
     35 H          -6.1848   -4.2171   -0.4833 H       1  UNL1        0.0292
     36 H          -4.4821   -2.8494    0.4697 H       1  UNL1        0.0639
     37 H          -2.7528   -1.4249    1.1272 H       1  UNL1        0.0748
     38 H          -3.0293    0.2514    1.6244 H       1  UNL1        0.0748
     39 H          -1.0985    0.7920   -2.3985 H       1  UNL1        0.0654
     40 H           1.1978    1.2955   -2.4633 H       1  UNL1        0.0622
     41 H           3.9964    3.0843   -0.3320 H       1  UNL1        0.0243
     42 H           3.7396    2.2725    1.2965 H       1  UNL1        0.0243
     43 H           2.3286    2.9689    0.4388 H       1  UNL1        0.0243
     44 H           3.0704    1.5635   -2.5774 H       1  UNL1        0.0293
     45 H           4.6665    1.7262   -1.7313 H       1  UNL1        0.0293
     46 H           4.7957   -0.4281   -2.8156 H       1  UNL1        0.0465
     47 H           3.1524   -0.8874   -2.0937 H       1  UNL1        0.0465
     48 H           6.2083   -1.7582   -1.4396 H       1  UNL1        0.0594
     49 H           6.5435   -2.9884    0.7562 H       1  UNL1        0.0252
     50 H           5.0426   -3.3876   -0.1121 H       1  UNL1        0.0252
     51 H           5.0428   -2.2406    1.3332 H       1  UNL1        0.0252
     52 H           6.0206    1.2811    0.1953 H       1  UNL1        0.1823
     53 H           8.1075    1.0445    1.8831 H       1  UNL1        0.2414
     54 H           1.6064    0.3260    1.6575 H       1  UNL1        0.0622
     55 H          -0.8207   -0.2044    1.7233 H       1  UNL1        0.0654
     56 H          -4.0602    1.7914    0.7025 H       1  UNL1        0.0624
     57 H          -5.6526    3.6937    0.4514 H       1  UNL1        0.0618
     58 H          -8.0235    3.2522   -0.0269 H       1  UNL1        0.0618
     59 H          -8.8403    0.9357   -0.2615 H       1  UNL1        0.0639
@<TRIPOS>BOND
     1     1     2    1
     2     2     3   ar
     3     3     4   ar
     4     4     5    1
     5     5     6    1
     6     6     7    1
     7     7     8   ar
     8     8     9   ar
     9     9    10   ar
    10    10    11    1
    11    11    12    1
    12    11    13    1
    13    13    14    1
    14    14    15    1
    15    15    16    1
    16    16    17    1
    17    16    18    1
    18    18    19    2
    19    18    20   am
    20    20    21    1
    21    15    22   am
    22    22    23    2
    23    10    24   ar
    24    24    25   ar
    25     4    26   ar
    26    26    27   ar
    27    27    28   ar
    28    28    29   ar
    29    29    30   ar
    30    30    31   ar
    31    31    32   ar
    32    32     2   ar
    33    25     7   ar
    34    31    26   ar
    35    22    11    1
    36     1    33    1
    37     1    34    1
    38     1    35    1
    39     3    36    1
    40     5    37    1
    41     5    38    1
    42     8    39    1
    43     9    40    1
    44    12    41    1
    45    12    42    1
    46    12    43    1
    47    13    44    1
    48    13    45    1
    49    14    46    1
    50    14    47    1
    51    16    48    1
    52    17    49    1
    53    17    50    1
    54    17    51    1
    55    20    52    1
    56    21    53    1
    57    24    54    1
    58    25    55    1
    59    27    56    1
    60    28    57    1
    61    29    58    1
    62    30    59    1
