
     RDKit          3D

 59 62  0  0  0  0  0  0  0  0999 V2000
   -6.9508   -3.5665   -0.0373 C   0  0  0  0  0  0  0  0  0  0  0  0
   -6.4466   -2.1808    0.1064 C   0  0  0  0  0  0  0  0  0  0  0  0
   -5.1115   -1.9824    0.3744 C   0  0  0  0  0  0  0  0  0  0  0  0
   -4.6262   -0.6986    0.5112 C   0  0  0  0  0  0  0  0  0  0  0  0
   -3.2097   -0.4705    0.7964 C   0  0  0  0  0  0  0  0  0  0  0  0
   -2.4850   -0.0290   -0.3351 O   0  0  0  0  0  0  0  0  0  0  0  0
   -1.1371    0.2511   -0.3173 C   0  0  0  0  0  0  0  0  0  0  0  0
   -0.5327    0.6757   -1.4778 C   0  0  0  0  0  0  0  0  0  0  0  0
    0.8261    0.9652   -1.4898 C   0  0  0  0  0  0  0  0  0  0  0  0
    1.6229    0.8502   -0.3851 C   0  0  0  0  0  0  0  0  0  0  0  0
    3.0459    1.1646   -0.4436 C   0  0  2  0  0  0  0  0  0  0  0  0
    3.3094    2.4735    0.2974 C   0  0  0  0  0  0  0  0  0  0  0  0
    3.6905    1.1586   -1.7914 C   0  0  0  0  0  0  0  0  0  0  0  0
    4.0819   -0.3151   -1.9997 C   0  0  0  0  0  0  0  0  0  0  0  0
    4.6802   -0.5703   -0.6827 N   0  0  0  0  0  0  0  0  0  0  0  0
    5.8586   -1.3787   -0.4568 C   0  0  2  0  0  0  0  0  0  0  0  0
    5.5669   -2.5859    0.4056 C   0  0  0  0  0  0  0  0  0  0  0  0
    6.9897   -0.6573    0.1378 C   0  0  0  0  0  0  0  0  0  0  0  0
    8.0723   -1.2256    0.4266 O   0  0  0  0  0  0  0  0  0  0  0  0
    6.8812    0.7320    0.4053 N   0  0  0  0  0  0  0  0  0  0  0  0
    7.9591    1.3766    0.9630 O   0  0  0  0  0  0  0  0  0  0  0  0
    3.8725    0.1219    0.2528 C   0  0  0  0  0  0  0  0  0  0  0  0
    3.8685   -0.1215    1.4821 O   0  0  0  0  0  0  0  0  0  0  0  0
    1.0030    0.4207    0.7823 C   0  0  0  0  0  0  0  0  0  0  0  0
   -0.3455    0.1325    0.7976 C   0  0  0  0  0  0  0  0  0  0  0  0
   -5.5542    0.3192    0.3626 C   0  0  0  0  0  0  0  0  0  0  0  0
   -5.1078    1.6042    0.4914 C   0  0  0  0  0  0  0  0  0  0  0  0
   -6.0006    2.6633    0.3505 C   0  0  0  0  0  0  0  0  0  0  0  0
   -7.3335    2.4237    0.0817 C   0  0  0  0  0  0  0  0  0  0  0  0
   -7.7966    1.1309   -0.0506 C   0  0  0  0  0  0  0  0  0  0  0  0
   -6.8841    0.0984    0.0949 C   0  0  0  0  0  0  0  0  0  0  0  0
   -7.3290   -1.1617   -0.0332 N   0  0  0  0  0  0  0  0  0  0  0  0
   -7.8809   -3.5578   -0.6546 H   0  0  0  0  0  0  0  0  0  0  0  0
   -7.1710   -3.9539    0.9878 H   0  0  0  0  0  0  0  0  0  0  0  0
   -6.1848   -4.2171   -0.4833 H   0  0  0  0  0  0  0  0  0  0  0  0
   -4.4821   -2.8494    0.4697 H   0  0  0  0  0  0  0  0  0  0  0  0
   -2.7528   -1.4249    1.1272 H   0  0  0  0  0  0  0  0  0  0  0  0
   -3.0293    0.2514    1.6244 H   0  0  0  0  0  0  0  0  0  0  0  0
   -1.0985    0.7920   -2.3985 H   0  0  0  0  0  0  0  0  0  0  0  0
    1.1978    1.2955   -2.4633 H   0  0  0  0  0  0  0  0  0  0  0  0
    3.9964    3.0843   -0.3320 H   0  0  0  0  0  0  0  0  0  0  0  0
    3.7396    2.2725    1.2965 H   0  0  0  0  0  0  0  0  0  0  0  0
    2.3286    2.9689    0.4388 H   0  0  0  0  0  0  0  0  0  0  0  0
    3.0704    1.5635   -2.5774 H   0  0  0  0  0  0  0  0  0  0  0  0
    4.6665    1.7262   -1.7313 H   0  0  0  0  0  0  0  0  0  0  0  0
    4.7957   -0.4281   -2.8156 H   0  0  0  0  0  0  0  0  0  0  0  0
    3.1524   -0.8874   -2.0937 H   0  0  0  0  0  0  0  0  0  0  0  0
    6.2083   -1.7582   -1.4396 H   0  0  0  0  0  0  0  0  0  0  0  0
    6.5435   -2.9884    0.7562 H   0  0  0  0  0  0  0  0  0  0  0  0
    5.0426   -3.3876   -0.1121 H   0  0  0  0  0  0  0  0  0  0  0  0
    5.0428   -2.2406    1.3332 H   0  0  0  0  0  0  0  0  0  0  0  0
    6.0206    1.2811    0.1953 H   0  0  0  0  0  0  0  0  0  0  0  0
    8.1075    1.0445    1.8831 H   0  0  0  0  0  0  0  0  0  0  0  0
    1.6064    0.3260    1.6575 H   0  0  0  0  0  0  0  0  0  0  0  0
   -0.8207   -0.2044    1.7233 H   0  0  0  0  0  0  0  0  0  0  0  0
   -4.0602    1.7914    0.7025 H   0  0  0  0  0  0  0  0  0  0  0  0
   -5.6526    3.6937    0.4514 H   0  0  0  0  0  0  0  0  0  0  0  0
   -8.0235    3.2522   -0.0269 H   0  0  0  0  0  0  0  0  0  0  0  0
   -8.8403    0.9357   -0.2615 H   0  0  0  0  0  0  0  0  0  0  0  0
  1  2  1  0
  2  3  2  0
  3  4  1  0
  4  5  1  0
  5  6  1  0
  6  7  1  0
  7  8  2  0
  8  9  1  0
  9 10  2  0
 10 11  1  0
 11 12  1  1
 11 13  1  0
 13 14  1  0
 14 15  1  0
 15 16  1  0
 16 17  1  0
 16 18  1  0
 18 19  2  0
 18 20  1  0
 20 21  1  0
 15 22  1  0
 22 23  2  0
 10 24  1  0
 24 25  2  0
  4 26  2  0
 26 27  1  0
 27 28  2  0
 28 29  1  0
 29 30  2  0
 30 31  1  0
 31 32  2  0
 32  2  1  0
 25  7  1  0
 31 26  1  0
 22 11  1  0
  1 33  1  0
  1 34  1  0
  1 35  1  0
  3 36  1  0
  5 37  1  0
  5 38  1  0
  8 39  1  0
  9 40  1  0
 12 41  1  0
 12 42  1  0
 12 43  1  0
 13 44  1  0
 13 45  1  0
 14 46  1  0
 14 47  1  0
 16 48  1  6
 17 49  1  0
 17 50  1  0
 17 51  1  0
 20 52  1  0
 21 53  1  0
 24 54  1  0
 25 55  1  0
 27 56  1  0
 28 57  1  0
 29 58  1  0
 30 59  1  0
M  END
$$$$
