
     RDKit          3D

 38 40  0  0  0  0  0  0  0  0999 V2000
   -3.1930   -2.8030   -1.6317 C   0  0  0  0  0  0  0  0  0  0  0  0
   -1.9117   -2.5111   -0.9648 C   0  0  0  0  0  0  0  0  0  0  0  0
   -1.0635   -3.5612   -0.5999 C   0  0  0  0  0  0  0  0  0  0  0  0
    0.0199   -3.0283   -0.0197 N   0  0  0  0  0  0  0  0  0  0  0  0
   -0.0469   -1.7012    0.0266 C   0  0  0  0  0  0  0  0  0  0  0  0
    0.9519   -0.8494    0.6362 C   0  0  0  0  0  0  0  0  0  0  0  0
    1.7031    0.1185    0.1456 C   0  0  0  0  0  0  0  0  0  0  0  0
    1.6356    0.5156   -1.2522 C   0  0  0  0  0  0  0  0  0  0  0  0
    0.9230    0.0128   -2.1415 O   0  0  0  0  0  0  0  0  0  0  0  0
    2.5595    1.5867   -1.3538 N   0  0  0  0  0  0  0  0  0  0  0  0
    3.1413    1.8056   -0.0758 C   0  0  0  0  0  0  0  0  0  0  0  0
    4.0939    2.7634    0.2529 C   0  0  0  0  0  0  0  0  0  0  0  0
    4.5068    2.7827    1.5649 C   0  0  0  0  0  0  0  0  0  0  0  0
    4.0516    1.9361    2.5554 C   0  0  0  0  0  0  0  0  0  0  0  0
    3.0952    0.9879    2.1851 C   0  0  0  0  0  0  0  0  0  0  0  0
    2.6561    0.9379    0.8782 C   0  0  0  0  0  0  0  0  0  0  0  0
   -1.2469   -1.3569   -0.5577 C   0  0  0  0  0  0  0  0  0  0  0  0
   -1.8960   -0.0548   -0.7645 C   0  0  0  0  0  0  0  0  0  0  0  0
   -3.0130    0.1882    0.2335 C   0  0  0  0  0  0  0  0  0  0  0  0
   -3.6156    1.5372   -0.0486 C   0  0  0  0  0  0  0  0  0  0  0  0
   -4.6539    1.8390    0.8343 O   0  0  0  0  0  0  0  0  0  0  0  0
   -3.2720    2.3476   -0.9570 O   0  0  0  0  0  0  0  0  0  0  0  0
   -3.7734   -1.8814   -1.8797 H   0  0  0  0  0  0  0  0  0  0  0  0
   -3.8071   -3.5749   -1.1187 H   0  0  0  0  0  0  0  0  0  0  0  0
   -2.9977   -3.2544   -2.6495 H   0  0  0  0  0  0  0  0  0  0  0  0
   -1.2088   -4.6398   -0.7391 H   0  0  0  0  0  0  0  0  0  0  0  0
    0.8289   -3.6057    0.3546 H   0  0  0  0  0  0  0  0  0  0  0  0
    1.0729   -1.0881    1.7014 H   0  0  0  0  0  0  0  0  0  0  0  0
    2.7363    2.0908   -2.2530 H   0  0  0  0  0  0  0  0  0  0  0  0
    4.5209    3.4791   -0.4442 H   0  0  0  0  0  0  0  0  0  0  0  0
    5.2584    3.5251    1.8633 H   0  0  0  0  0  0  0  0  0  0  0  0
    4.3975    1.9783    3.5776 H   0  0  0  0  0  0  0  0  0  0  0  0
    2.6896    0.2921    2.8959 H   0  0  0  0  0  0  0  0  0  0  0  0
   -2.3042    0.1047   -1.7735 H   0  0  0  0  0  0  0  0  0  0  0  0
   -1.1659    0.7782   -0.5830 H   0  0  0  0  0  0  0  0  0  0  0  0
   -2.6779    0.0816    1.2777 H   0  0  0  0  0  0  0  0  0  0  0  0
   -3.8709   -0.5263    0.0969 H   0  0  0  0  0  0  0  0  0  0  0  0
   -5.1240    2.7474    0.7278 H   0  0  0  0  0  0  0  0  0  0  0  0
  1  2  1  0
  2  3  2  0
  3  4  1  0
  4  5  1  0
  5  6  1  0
  6  7  2  0
  7  8  1  0
  8  9  2  0
  8 10  1  0
 10 11  1  0
 11 12  2  0
 12 13  1  0
 13 14  2  0
 14 15  1  0
 15 16  2  0
  5 17  2  0
 17 18  1  0
 18 19  1  0
 19 20  1  0
 20 21  1  0
 20 22  2  0
 17  2  1  0
 16  7  1  0
 16 11  1  0
  1 23  1  0
  1 24  1  0
  1 25  1  0
  3 26  1  0
  4 27  1  0
  6 28  1  0
 10 29  1  0
 12 30  1  0
 13 31  1  0
 14 32  1  0
 15 33  1  0
 18 34  1  0
 18 35  1  0
 19 36  1  0
 19 37  1  0
 21 38  1  0
M  END
$$$$
