@<TRIPOS>MOLECULE
*****
 38 40 0 0 0
SMALL
GASTEIGER

@<TRIPOS>ATOM
      1 C          -3.1930   -2.8030   -1.6317 C.3     1  UNL1       -0.0380
      2 C          -1.9117   -2.5111   -0.9648 C.ar    1  UNL1       -0.0294
      3 C          -1.0635   -3.5612   -0.5999 C.ar    1  UNL1        0.0053
      4 N           0.0199   -3.0283   -0.0197 N.ar    1  UNL1       -0.3606
      5 C          -0.0469   -1.7012    0.0266 C.ar    1  UNL1        0.0434
      6 C           0.9519   -0.8494    0.6362 C.2     1  UNL1       -0.0254
      7 C           1.7031    0.1185    0.1456 C.2     1  UNL1        0.0479
      8 C           1.6356    0.5156   -1.2522 C.2     1  UNL1        0.2490
      9 O           0.9230    0.0128   -2.1415 O.2     1  UNL1       -0.2698
     10 N           2.5595    1.5867   -1.3538 N.am    1  UNL1       -0.2809
     11 C           3.1413    1.8056   -0.0758 C.ar    1  UNL1        0.0416
     12 C           4.0939    2.7634    0.2529 C.ar    1  UNL1       -0.0399
     13 C           4.5068    2.7827    1.5649 C.ar    1  UNL1       -0.0600
     14 C           4.0516    1.9361    2.5554 C.ar    1  UNL1       -0.0611
     15 C           3.0952    0.9879    2.1851 C.ar    1  UNL1       -0.0521
     16 C           2.6561    0.9379    0.8782 C.ar    1  UNL1        0.0084
     17 C          -1.2469   -1.3569   -0.5577 C.ar    1  UNL1       -0.0193
     18 C          -1.8960   -0.0548   -0.7645 C.3     1  UNL1       -0.0154
     19 C          -3.0130    0.1882    0.2335 C.3     1  UNL1        0.0488
     20 C          -3.6156    1.5372   -0.0486 C.2     1  UNL1        0.3050
     21 O          -4.6539    1.8390    0.8343 O.3     1  UNL1       -0.4806
     22 O          -3.2720    2.3476   -0.9570 O.2     1  UNL1       -0.2510
     23 H          -3.7734   -1.8814   -1.8797 H       1  UNL1        0.0278
     24 H          -3.8071   -3.5749   -1.1187 H       1  UNL1        0.0278
     25 H          -2.9977   -3.2544   -2.6495 H       1  UNL1        0.0278
     26 H          -1.2088   -4.6398   -0.7391 H       1  UNL1        0.0810
     27 H           0.8289   -3.6057    0.3546 H       1  UNL1        0.1653
     28 H           1.0729   -1.0881    1.7014 H       1  UNL1        0.0646
     29 H           2.7363    2.0908   -2.2530 H       1  UNL1        0.1552
     30 H           4.5209    3.4791   -0.4442 H       1  UNL1        0.0636
     31 H           5.2584    3.5251    1.8633 H       1  UNL1        0.0618
     32 H           4.3975    1.9783    3.5776 H       1  UNL1        0.0618
     33 H           2.6896    0.2921    2.8959 H       1  UNL1        0.0624
     34 H          -2.3042    0.1047   -1.7735 H       1  UNL1        0.0319
     35 H          -1.1659    0.7782   -0.5830 H       1  UNL1        0.0319
     36 H          -2.6779    0.0816    1.2777 H       1  UNL1        0.0381
     37 H          -3.8709   -0.5263    0.0969 H       1  UNL1        0.0381
     38 H          -5.1240    2.7474    0.7278 H       1  UNL1        0.2951
@<TRIPOS>BOND
     1     1     2    1
     2     2     3   ar
     3     3     4   ar
     4     4     5   ar
     5     5     6    1
     6     6     7    2
     7     7     8    1
     8     8     9    2
     9     8    10   am
    10    10    11    1
    11    11    12   ar
    12    12    13   ar
    13    13    14   ar
    14    14    15   ar
    15    15    16   ar
    16     5    17   ar
    17    17    18    1
    18    18    19    1
    19    19    20    1
    20    20    21    1
    21    20    22    2
    22    17     2   ar
    23    16     7    1
    24    16    11   ar
    25     1    23    1
    26     1    24    1
    27     1    25    1
    28     3    26    1
    29     4    27    1
    30     6    28    1
    31    10    29    1
    32    12    30    1
    33    13    31    1
    34    14    32    1
    35    15    33    1
    36    18    34    1
    37    18    35    1
    38    19    36    1
    39    19    37    1
    40    21    38    1
