
     RDKit          3D

 43 45  0  0  0  0  0  0  0  0999 V2000
    3.9172    2.1326   -0.7073 C   0  0  0  0  0  0  0  0  0  0  0  0
    3.6052    0.8780   -0.0387 C   0  0  0  0  0  0  0  0  0  0  0  0
    4.5664   -0.0935    0.0930 C   0  0  0  0  0  0  0  0  0  0  0  0
    4.3162   -1.2991    0.7196 C   0  0  0  0  0  0  0  0  0  0  0  0
    3.0723   -1.5557    1.2348 C   0  0  0  0  0  0  0  0  0  0  0  0
    2.0722   -0.5775    1.1124 C   0  0  0  0  0  0  0  0  0  0  0  0
    0.4776   -0.9911    1.8242 S   0  0  0  0  0  0  0  0  0  0  0  0
   -0.4916   -1.8663    0.6212 C   0  0  0  0  0  0  0  0  0  0  0  0
   -0.1868   -3.2195    0.4416 C   0  0  0  0  0  0  0  0  0  0  0  0
   -0.9287   -3.9305   -0.4685 C   0  0  0  0  0  0  0  0  0  0  0  0
   -1.9484   -3.3614   -1.1992 C   0  0  0  0  0  0  0  0  0  0  0  0
   -2.2112   -2.0372   -0.9902 C   0  0  0  0  0  0  0  0  0  0  0  0
   -1.4935   -1.2539   -0.0765 C   0  0  0  0  0  0  0  0  0  0  0  0
   -1.8731    0.0933    0.1014 N   0  0  0  0  0  0  0  0  0  0  0  0
   -2.3555    0.5109    1.4056 C   0  0  0  0  0  0  0  0  0  0  0  0
   -3.1280    1.8000    1.2162 C   0  0  0  0  0  0  0  0  0  0  0  0
   -4.0050    1.7457    0.0577 N   0  0  0  0  0  0  0  0  0  0  0  0
   -3.2934    1.5132   -1.1825 C   0  0  0  0  0  0  0  0  0  0  0  0
   -1.8506    1.1092   -0.9219 C   0  0  0  0  0  0  0  0  0  0  0  0
    2.3506    0.6115    0.4846 C   0  0  0  0  0  0  0  0  0  0  0  0
    1.3199    1.6410    0.3598 C   0  0  0  0  0  0  0  0  0  0  0  0
    3.0883    2.5649   -1.2939 H   0  0  0  0  0  0  0  0  0  0  0  0
    4.2861    2.9094    0.0193 H   0  0  0  0  0  0  0  0  0  0  0  0
    4.7699    2.0108   -1.4322 H   0  0  0  0  0  0  0  0  0  0  0  0
    5.5438    0.0866   -0.3023 H   0  0  0  0  0  0  0  0  0  0  0  0
    5.1210   -2.0159    0.7862 H   0  0  0  0  0  0  0  0  0  0  0  0
    2.8521   -2.5070    1.7365 H   0  0  0  0  0  0  0  0  0  0  0  0
    0.6050   -3.6966    0.9971 H   0  0  0  0  0  0  0  0  0  0  0  0
   -0.6741   -4.9837   -0.5925 H   0  0  0  0  0  0  0  0  0  0  0  0
   -2.5114   -3.9653   -1.9125 H   0  0  0  0  0  0  0  0  0  0  0  0
   -3.0022   -1.5497   -1.5413 H   0  0  0  0  0  0  0  0  0  0  0  0
   -1.5062    0.6991    2.0792 H   0  0  0  0  0  0  0  0  0  0  0  0
   -3.0281   -0.2539    1.8315 H   0  0  0  0  0  0  0  0  0  0  0  0
   -2.4625    2.6911    1.2012 H   0  0  0  0  0  0  0  0  0  0  0  0
   -3.7922    1.9177    2.0970 H   0  0  0  0  0  0  0  0  0  0  0  0
   -4.5232    2.6522    0.0452 H   0  0  0  0  0  0  0  0  0  0  0  0
   -3.3039    2.4358   -1.7975 H   0  0  0  0  0  0  0  0  0  0  0  0
   -3.7698    0.7069   -1.7647 H   0  0  0  0  0  0  0  0  0  0  0  0
   -1.3538    2.0214   -0.5421 H   0  0  0  0  0  0  0  0  0  0  0  0
   -1.4124    0.7400   -1.8498 H   0  0  0  0  0  0  0  0  0  0  0  0
    0.4523    1.3840    0.9569 H   0  0  0  0  0  0  0  0  0  0  0  0
    1.6953    2.6718    0.5236 H   0  0  0  0  0  0  0  0  0  0  0  0
    0.9942    1.6310   -0.7214 H   0  0  0  0  0  0  0  0  0  0  0  0
  1  2  1  0
  2  3  2  0
  3  4  1  0
  4  5  2  0
  5  6  1  0
  6  7  1  0
  7  8  1  0
  8  9  2  0
  9 10  1  0
 10 11  2  0
 11 12  1  0
 12 13  2  0
 13 14  1  0
 14 15  1  0
 15 16  1  0
 16 17  1  0
 17 18  1  0
 18 19  1  0
  6 20  2  0
 20 21  1  0
 20  2  1  0
 13  8  1  0
 19 14  1  0
  1 22  1  0
  1 23  1  0
  1 24  1  0
  3 25  1  0
  4 26  1  0
  5 27  1  0
  9 28  1  0
 10 29  1  0
 11 30  1  0
 12 31  1  0
 15 32  1  0
 15 33  1  0
 16 34  1  0
 16 35  1  0
 17 36  1  0
 18 37  1  0
 18 38  1  0
 19 39  1  0
 19 40  1  0
 21 41  1  0
 21 42  1  0
 21 43  1  0
M  END
$$$$
