@<TRIPOS>MOLECULE
*****
 43 45 0 0 0
SMALL
GASTEIGER

@<TRIPOS>ATOM
      1 C           3.9172    2.1326   -0.7073 C.3     1  UNL1       -0.0394
      2 C           3.6052    0.8780   -0.0387 C.ar    1  UNL1       -0.0465
      3 C           4.5664   -0.0935    0.0930 C.ar    1  UNL1       -0.0585
      4 C           4.3162   -1.2991    0.7196 C.ar    1  UNL1       -0.0604
      5 C           3.0723   -1.5557    1.2348 C.ar    1  UNL1       -0.0477
      6 C           2.0722   -0.5775    1.1124 C.ar    1  UNL1        0.0159
      7 S           0.4776   -0.9911    1.8242 S.3     1  UNL1       -0.0873
      8 C          -0.4916   -1.8663    0.6212 C.ar    1  UNL1        0.0337
      9 C          -0.1868   -3.2195    0.4416 C.ar    1  UNL1       -0.0462
     10 C          -0.9287   -3.9305   -0.4685 C.ar    1  UNL1       -0.0606
     11 C          -1.9484   -3.3614   -1.1992 C.ar    1  UNL1       -0.0599
     12 C          -2.2112   -2.0372   -0.9902 C.ar    1  UNL1       -0.0396
     13 C          -1.4935   -1.2539   -0.0765 C.ar    1  UNL1        0.0437
     14 N          -1.8731    0.0933    0.1014 N.pl3   1  UNL1       -0.3266
     15 C          -2.3555    0.5109    1.4056 C.3     1  UNL1        0.0248
     16 C          -3.1280    1.8000    1.2162 C.3     1  UNL1        0.0117
     17 N          -4.0050    1.7457    0.0577 N.3     1  UNL1       -0.3130
     18 C          -3.2934    1.5132   -1.1825 C.3     1  UNL1        0.0117
     19 C          -1.8506    1.1092   -0.9219 C.3     1  UNL1        0.0248
     20 C           2.3506    0.6115    0.4846 C.ar    1  UNL1       -0.0338
     21 C           1.3199    1.6410    0.3598 C.3     1  UNL1       -0.0384
     22 H           3.0883    2.5649   -1.2939 H       1  UNL1        0.0278
     23 H           4.2861    2.9094    0.0193 H       1  UNL1        0.0278
     24 H           4.7699    2.0108   -1.4322 H       1  UNL1        0.0278
     25 H           5.5438    0.0866   -0.3023 H       1  UNL1        0.0620
     26 H           5.1210   -2.0159    0.7862 H       1  UNL1        0.0618
     27 H           2.8521   -2.5070    1.7365 H       1  UNL1        0.0629
     28 H           0.6050   -3.6966    0.9971 H       1  UNL1        0.0629
     29 H          -0.6741   -4.9837   -0.5925 H       1  UNL1        0.0618
     30 H          -2.5114   -3.9653   -1.9125 H       1  UNL1        0.0618
     31 H          -3.0022   -1.5497   -1.5413 H       1  UNL1        0.0636
     32 H          -1.5062    0.6991    2.0792 H       1  UNL1        0.0476
     33 H          -3.0281   -0.2539    1.8315 H       1  UNL1        0.0476
     34 H          -2.4625    2.6911    1.2012 H       1  UNL1        0.0439
     35 H          -3.7922    1.9177    2.0970 H       1  UNL1        0.0439
     36 H          -4.5232    2.6522    0.0452 H       1  UNL1        0.1220
     37 H          -3.3039    2.4358   -1.7975 H       1  UNL1        0.0439
     38 H          -3.7698    0.7069   -1.7647 H       1  UNL1        0.0439
     39 H          -1.3538    2.0214   -0.5421 H       1  UNL1        0.0476
     40 H          -1.4124    0.7400   -1.8498 H       1  UNL1        0.0476
     41 H           0.4523    1.3840    0.9569 H       1  UNL1        0.0278
     42 H           1.6953    2.6718    0.5236 H       1  UNL1        0.0278
     43 H           0.9942    1.6310   -0.7214 H       1  UNL1        0.0278
@<TRIPOS>BOND
     1     1     2    1
     2     2     3   ar
     3     3     4   ar
     4     4     5   ar
     5     5     6   ar
     6     6     7    1
     7     7     8    1
     8     8     9   ar
     9     9    10   ar
    10    10    11   ar
    11    11    12   ar
    12    12    13   ar
    13    13    14    1
    14    14    15    1
    15    15    16    1
    16    16    17    1
    17    17    18    1
    18    18    19    1
    19     6    20   ar
    20    20    21    1
    21    20     2   ar
    22    13     8   ar
    23    19    14    1
    24     1    22    1
    25     1    23    1
    26     1    24    1
    27     3    25    1
    28     4    26    1
    29     5    27    1
    30     9    28    1
    31    10    29    1
    32    11    30    1
    33    12    31    1
    34    15    32    1
    35    15    33    1
    36    16    34    1
    37    16    35    1
    38    17    36    1
    39    18    37    1
    40    18    38    1
    41    19    39    1
    42    19    40    1
    43    21    41    1
    44    21    42    1
    45    21    43    1
