@<TRIPOS>MOLECULE
*****
 59 64 0 0 0
SMALL
GASTEIGER

@<TRIPOS>ATOM
      1 C           9.2097    0.2015    2.3308 C.3     1  UNL1       -0.0127
      2 N           7.8667    0.4310    1.8566 N.3     1  UNL1       -0.3042
      3 C           7.5057    1.8091    1.8718 C.3     1  UNL1       -0.0127
      4 C           7.5929   -0.2703    0.6417 C.3     1  UNL1        0.0235
      5 C           6.2390   -0.0571    0.1213 C.ar    1  UNL1       -0.0333
      6 C           5.9893    0.9641   -0.7681 C.ar    1  UNL1       -0.0568
      7 C           4.7237    1.1771   -1.2623 C.ar    1  UNL1       -0.0543
      8 C           3.6369    0.3734   -0.8886 C.ar    1  UNL1       -0.0249
      9 C           2.3278    0.6464   -1.4431 C.2     1  UNL1       -0.0525
     10 C           1.2596   -0.0560   -1.1404 C.2     1  UNL1       -0.0334
     11 C          -0.0550    0.2518   -1.7247 C.ar    1  UNL1        0.0931
     12 N          -0.3092    1.2343   -2.5991 N.ar    1  UNL1       -0.1733
     13 N          -1.6059    1.2267   -2.9142 N.ar    1  UNL1       -0.2764
     14 C          -2.2364    0.2361   -2.2524 C.ar    1  UNL1        0.0666
     15 C          -3.5384   -0.2200   -2.1965 C.ar    1  UNL1       -0.0328
     16 C          -3.9260   -1.2795   -1.4158 C.ar    1  UNL1       -0.0409
     17 C          -5.3091   -1.7680   -1.3488 C.3     1  UNL1        0.0035
     18 C          -6.4488   -1.0660   -1.9287 C.3     1  UNL1       -0.0263
     19 C          -6.3575   -1.2131   -0.4588 C.3     1  UNL1        0.0812
     20 C          -7.3091   -2.1349    0.1977 C.2     1  UNL1        0.2284
     21 O          -7.8521   -3.1729   -0.3077 O.2     1  UNL1       -0.2745
     22 N          -7.5336   -1.6809    1.5061 N.am    1  UNL1       -0.2845
     23 C          -6.8320   -0.4297    1.6411 C.ar    1  UNL1        0.0376
     24 C          -6.8016    0.4387    2.7344 C.ar    1  UNL1       -0.0402
     25 C          -6.1211    1.6302    2.6397 C.ar    1  UNL1       -0.0600
     26 C          -5.4631    1.9964    1.4887 C.ar    1  UNL1       -0.0614
     27 C          -5.5097    1.1194    0.4274 C.ar    1  UNL1       -0.0558
     28 C          -6.1879   -0.1098    0.4715 C.ar    1  UNL1       -0.0106
     29 C          -2.9199   -1.8890   -0.6634 C.ar    1  UNL1       -0.0575
     30 C          -1.6174   -1.4411   -0.7123 C.ar    1  UNL1       -0.0502
     31 C          -1.2497   -0.3838   -1.4959 C.ar    1  UNL1        0.0268
     32 C           3.9301   -0.6327   -0.0004 C.ar    1  UNL1       -0.0543
     33 C           5.1995   -0.8695    0.5139 C.ar    1  UNL1       -0.0568
     34 H           9.2949    0.1097    3.4218 H       1  UNL1        0.0391
     35 H           9.6103   -0.7325    1.8583 H       1  UNL1        0.0391
     36 H           9.9005    1.0175    1.9657 H       1  UNL1        0.0391
     37 H           7.4954    2.1330    2.9461 H       1  UNL1        0.0391
     38 H           6.5887    2.0573    1.3447 H       1  UNL1        0.0391
     39 H           8.3331    2.4240    1.4107 H       1  UNL1        0.0391
     40 H           7.7568   -1.3610    0.7201 H       1  UNL1        0.0475
     41 H           8.3341    0.0928   -0.1180 H       1  UNL1        0.0475
     42 H           6.7763    1.6438   -1.1180 H       1  UNL1        0.0621
     43 H           4.5284    1.9917   -1.9707 H       1  UNL1        0.0624
     44 H           2.2172    1.4630   -2.1377 H       1  UNL1        0.0624
     45 H           1.3055   -0.8854   -0.4514 H       1  UNL1        0.0640
     46 H          -2.0454    1.8992   -3.5787 H       1  UNL1        0.1889
     47 H          -4.2865    0.2785   -2.7934 H       1  UNL1        0.0642
     48 H          -5.3724   -2.9133   -1.3629 H       1  UNL1        0.0362
     49 H          -6.3937   -0.0334   -2.3220 H       1  UNL1        0.0285
     50 H          -7.2640   -1.6484   -2.4239 H       1  UNL1        0.0285
     51 H          -8.1030   -2.1376    2.2810 H       1  UNL1        0.1548
     52 H          -7.3262    0.1535    3.6622 H       1  UNL1        0.0636
     53 H          -6.0804    2.3278    3.4779 H       1  UNL1        0.0618
     54 H          -4.9210    2.9488    1.4142 H       1  UNL1        0.0618
     55 H          -5.0045    1.4043   -0.4944 H       1  UNL1        0.0621
     56 H          -3.2248   -2.7213   -0.0502 H       1  UNL1        0.0621
     57 H          -0.8405   -1.9192   -0.1250 H       1  UNL1        0.0625
     58 H           3.0960   -1.2810    0.3120 H       1  UNL1        0.0624
     59 H           5.3279   -1.6892    1.2098 H       1  UNL1        0.0621
@<TRIPOS>BOND
     1     1     2    1
     2     2     3    1
     3     2     4    1
     4     4     5    1
     5     5     6   ar
     6     6     7   ar
     7     7     8   ar
     8     8     9    1
     9     9    10    2
    10    10    11    1
    11    11    12   ar
    12    12    13   ar
    13    13    14   ar
    14    14    15   ar
    15    15    16   ar
    16    16    17    1
    17    17    18    1
    18    19    18    1
    19    19    20    1
    20    20    21    2
    21    20    22   am
    22    22    23    1
    23    23    24   ar
    24    24    25   ar
    25    25    26   ar
    26    26    27   ar
    27    27    28   ar
    28    16    29   ar
    29    29    30   ar
    30    30    31   ar
    31     8    32   ar
    32    32    33   ar
    33    33     5   ar
    34    31    11   ar
    35    31    14   ar
    36    19    17    1
    37    28    23   ar
    38    28    19    1
    39     1    34    1
    40     1    35    1
    41     1    36    1
    42     3    37    1
    43     3    38    1
    44     3    39    1
    45     4    40    1
    46     4    41    1
    47     6    42    1
    48     7    43    1
    49     9    44    1
    50    10    45    1
    51    13    46    1
    52    15    47    1
    53    17    48    1
    54    18    49    1
    55    18    50    1
    56    22    51    1
    57    24    52    1
    58    25    53    1
    59    26    54    1
    60    27    55    1
    61    29    56    1
    62    30    57    1
    63    32    58    1
    64    33    59    1
