
     RDKit          3D

 59 64  0  0  0  0  0  0  0  0999 V2000
    9.2097    0.2015    2.3308 C   0  0  0  0  0  0  0  0  0  0  0  0
    7.8667    0.4310    1.8566 N   0  0  0  0  0  0  0  0  0  0  0  0
    7.5057    1.8091    1.8718 C   0  0  0  0  0  0  0  0  0  0  0  0
    7.5929   -0.2703    0.6417 C   0  0  0  0  0  0  0  0  0  0  0  0
    6.2390   -0.0571    0.1213 C   0  0  0  0  0  0  0  0  0  0  0  0
    5.9893    0.9641   -0.7681 C   0  0  0  0  0  0  0  0  0  0  0  0
    4.7237    1.1771   -1.2623 C   0  0  0  0  0  0  0  0  0  0  0  0
    3.6369    0.3734   -0.8886 C   0  0  0  0  0  0  0  0  0  0  0  0
    2.3278    0.6464   -1.4431 C   0  0  0  0  0  0  0  0  0  0  0  0
    1.2596   -0.0560   -1.1404 C   0  0  0  0  0  0  0  0  0  0  0  0
   -0.0550    0.2518   -1.7247 C   0  0  0  0  0  0  0  0  0  0  0  0
   -0.3092    1.2343   -2.5991 N   0  0  0  0  0  0  0  0  0  0  0  0
   -1.6059    1.2267   -2.9142 N   0  0  0  0  0  0  0  0  0  0  0  0
   -2.2364    0.2361   -2.2524 C   0  0  0  0  0  0  0  0  0  0  0  0
   -3.5384   -0.2200   -2.1965 C   0  0  0  0  0  0  0  0  0  0  0  0
   -3.9260   -1.2795   -1.4158 C   0  0  0  0  0  0  0  0  0  0  0  0
   -5.3091   -1.7680   -1.3488 C   0  0  2  0  0  0  0  0  0  0  0  0
   -6.4488   -1.0660   -1.9287 C   0  0  0  0  0  0  0  0  0  0  0  0
   -6.3575   -1.2131   -0.4588 C   0  0  1  0  0  0  0  0  0  0  0  0
   -7.3091   -2.1349    0.1977 C   0  0  0  0  0  0  0  0  0  0  0  0
   -7.8521   -3.1729   -0.3077 O   0  0  0  0  0  0  0  0  0  0  0  0
   -7.5336   -1.6809    1.5061 N   0  0  0  0  0  0  0  0  0  0  0  0
   -6.8320   -0.4297    1.6411 C   0  0  0  0  0  0  0  0  0  0  0  0
   -6.8016    0.4387    2.7344 C   0  0  0  0  0  0  0  0  0  0  0  0
   -6.1211    1.6302    2.6397 C   0  0  0  0  0  0  0  0  0  0  0  0
   -5.4631    1.9964    1.4887 C   0  0  0  0  0  0  0  0  0  0  0  0
   -5.5097    1.1194    0.4274 C   0  0  0  0  0  0  0  0  0  0  0  0
   -6.1879   -0.1098    0.4715 C   0  0  0  0  0  0  0  0  0  0  0  0
   -2.9199   -1.8890   -0.6634 C   0  0  0  0  0  0  0  0  0  0  0  0
   -1.6174   -1.4411   -0.7123 C   0  0  0  0  0  0  0  0  0  0  0  0
   -1.2497   -0.3838   -1.4959 C   0  0  0  0  0  0  0  0  0  0  0  0
    3.9301   -0.6327   -0.0004 C   0  0  0  0  0  0  0  0  0  0  0  0
    5.1995   -0.8695    0.5139 C   0  0  0  0  0  0  0  0  0  0  0  0
    9.2949    0.1097    3.4218 H   0  0  0  0  0  0  0  0  0  0  0  0
    9.6103   -0.7325    1.8583 H   0  0  0  0  0  0  0  0  0  0  0  0
    9.9005    1.0175    1.9657 H   0  0  0  0  0  0  0  0  0  0  0  0
    7.4954    2.1330    2.9461 H   0  0  0  0  0  0  0  0  0  0  0  0
    6.5887    2.0573    1.3447 H   0  0  0  0  0  0  0  0  0  0  0  0
    8.3331    2.4240    1.4107 H   0  0  0  0  0  0  0  0  0  0  0  0
    7.7568   -1.3610    0.7201 H   0  0  0  0  0  0  0  0  0  0  0  0
    8.3341    0.0928   -0.1180 H   0  0  0  0  0  0  0  0  0  0  0  0
    6.7763    1.6438   -1.1180 H   0  0  0  0  0  0  0  0  0  0  0  0
    4.5284    1.9917   -1.9707 H   0  0  0  0  0  0  0  0  0  0  0  0
    2.2172    1.4630   -2.1377 H   0  0  0  0  0  0  0  0  0  0  0  0
    1.3055   -0.8854   -0.4514 H   0  0  0  0  0  0  0  0  0  0  0  0
   -2.0454    1.8992   -3.5787 H   0  0  0  0  0  0  0  0  0  0  0  0
   -4.2865    0.2785   -2.7934 H   0  0  0  0  0  0  0  0  0  0  0  0
   -5.3724   -2.9133   -1.3629 H   0  0  0  0  0  0  0  0  0  0  0  0
   -6.3937   -0.0334   -2.3220 H   0  0  0  0  0  0  0  0  0  0  0  0
   -7.2640   -1.6484   -2.4239 H   0  0  0  0  0  0  0  0  0  0  0  0
   -8.1030   -2.1376    2.2810 H   0  0  0  0  0  0  0  0  0  0  0  0
   -7.3262    0.1535    3.6622 H   0  0  0  0  0  0  0  0  0  0  0  0
   -6.0804    2.3278    3.4779 H   0  0  0  0  0  0  0  0  0  0  0  0
   -4.9210    2.9488    1.4142 H   0  0  0  0  0  0  0  0  0  0  0  0
   -5.0045    1.4043   -0.4944 H   0  0  0  0  0  0  0  0  0  0  0  0
   -3.2248   -2.7213   -0.0502 H   0  0  0  0  0  0  0  0  0  0  0  0
   -0.8405   -1.9192   -0.1250 H   0  0  0  0  0  0  0  0  0  0  0  0
    3.0960   -1.2810    0.3120 H   0  0  0  0  0  0  0  0  0  0  0  0
    5.3279   -1.6892    1.2098 H   0  0  0  0  0  0  0  0  0  0  0  0
  1  2  1  0
  2  3  1  0
  2  4  1  0
  4  5  1  0
  5  6  2  0
  6  7  1  0
  7  8  2  0
  8  9  1  0
  9 10  2  0
 10 11  1  0
 11 12  2  0
 12 13  1  0
 13 14  1  0
 14 15  2  0
 15 16  1  0
 16 17  1  0
 17 18  1  0
 19 18  1  6
 19 20  1  0
 20 21  2  0
 20 22  1  0
 22 23  1  0
 23 24  2  0
 24 25  1  0
 25 26  2  0
 26 27  1  0
 27 28  2  0
 16 29  2  0
 29 30  1  0
 30 31  2  0
  8 32  1  0
 32 33  2  0
 33  5  1  0
 31 11  1  0
 31 14  1  0
 19 17  1  0
 28 23  1  0
 28 19  1  0
  1 34  1  0
  1 35  1  0
  1 36  1  0
  3 37  1  0
  3 38  1  0
  3 39  1  0
  4 40  1  0
  4 41  1  0
  6 42  1  0
  7 43  1  0
  9 44  1  0
 10 45  1  0
 13 46  1  0
 15 47  1  0
 17 48  1  6
 18 49  1  0
 18 50  1  0
 22 51  1  0
 24 52  1  0
 25 53  1  0
 26 54  1  0
 27 55  1  0
 29 56  1  0
 30 57  1  0
 32 58  1  0
 33 59  1  0
M  END
$$$$
