
     RDKit          3D

 77 82  0  0  0  0  0  0  0  0999 V2000
   -6.9665    4.5943   -0.5611 C   0  0  0  0  0  0  0  0  0  0  0  0
   -5.4997    4.3697   -0.7347 N   0  0  0  0  0  0  0  0  0  0  0  0
   -4.7106    5.4381   -1.2478 C   0  0  0  0  0  0  0  0  0  0  0  0
   -5.0275    3.1119   -0.3641 C   0  0  0  0  0  0  0  0  0  0  0  0
   -5.8638    2.2737    0.1002 O   0  0  0  0  0  0  0  0  0  0  0  0
   -3.6371    2.7034   -0.4802 C   0  0  0  0  0  0  0  0  0  0  0  0
   -2.4974    3.4205   -0.7034 C   0  0  0  0  0  0  0  0  0  0  0  0
   -1.4319    2.5231   -0.7193 C   0  0  0  0  0  0  0  0  0  0  0  0
   -0.0626    2.6745   -0.8915 C   0  0  0  0  0  0  0  0  0  0  0  0
    0.7127    1.5803   -0.8433 N   0  0  0  0  0  0  0  0  0  0  0  0
    0.2386    0.3255   -0.6339 C   0  0  0  0  0  0  0  0  0  0  0  0
    1.1820   -0.7485   -0.5818 N   0  0  0  0  0  0  0  0  0  0  0  0
    2.4767   -0.5751   -0.0008 C   0  0  0  0  0  0  0  0  0  0  0  0
    2.8670    0.5513    0.6820 C   0  0  0  0  0  0  0  0  0  0  0  0
    4.1433    0.7439    1.1854 C   0  0  0  0  0  0  0  0  0  0  0  0
    5.1036   -0.2380    1.0076 C   0  0  0  0  0  0  0  0  0  0  0  0
    6.4503   -0.0897    1.4971 C   0  0  0  0  0  0  0  0  0  0  0  0
    6.6116   -0.0541    2.7644 O   0  0  0  0  0  0  0  0  0  0  0  0
    7.6251    0.0218    0.7104 N   0  0  0  0  0  0  0  0  0  0  0  0
    8.9136    0.1733    1.3424 C   0  0  0  0  0  0  0  0  0  0  0  0
    9.8982   -0.7224    0.6357 C   0  0  0  0  0  0  0  0  0  0  0  0
    9.4021   -2.1393    0.5198 C   0  0  0  0  0  0  0  0  0  0  0  0
    8.7278   -2.1878   -0.8209 C   0  0  0  0  0  0  0  0  0  0  0  0
    8.7550   -0.7706   -1.3001 C   0  0  0  0  0  0  0  0  0  0  0  0
    7.5838   -0.0031   -0.7417 C   0  0  0  0  0  0  0  0  0  0  0  0
   10.0109   -0.2758   -0.7432 N   0  0  0  0  0  0  0  0  0  0  0  0
    4.6850   -1.3558    0.3217 C   0  0  0  0  0  0  0  0  0  0  0  0
    3.4246   -1.5260   -0.1668 N   0  0  0  0  0  0  0  0  0  0  0  0
   -1.0821    0.1850   -0.4676 N   0  0  0  0  0  0  0  0  0  0  0  0
   -1.9210    1.2704   -0.5079 C   0  0  0  0  0  0  0  0  0  0  0  0
   -3.2540    1.3815   -0.3660 N   0  0  0  0  0  0  0  0  0  0  0  0
   -4.1002    0.2603   -0.1328 C   0  0  0  0  0  0  0  0  0  0  0  0
   -3.9701   -0.5429    0.9683 C   0  0  0  0  0  0  0  0  0  0  0  0
   -4.7890   -1.6263    1.2151 C   0  0  0  0  0  0  0  0  0  0  0  0
   -5.7924   -1.9345    0.3274 C   0  0  0  0  0  0  0  0  0  0  0  0
   -6.7040   -3.0951    0.5080 C   0  0  0  0  0  0  0  0  0  0  0  0
   -6.2583   -4.1804   -0.4494 C   0  0  0  0  0  0  0  0  0  0  0  0
   -6.5947   -3.6008    1.9416 C   0  0  0  0  0  0  0  0  0  0  0  0
   -8.1342   -2.6899    0.2977 C   0  0  0  0  0  0  0  0  0  0  0  0
   -5.9455   -1.1421   -0.7894 C   0  0  0  0  0  0  0  0  0  0  0  0
   -5.1014   -0.0494   -1.0170 C   0  0  0  0  0  0  0  0  0  0  0  0
   -7.0570    5.6162   -0.1717 H   0  0  0  0  0  0  0  0  0  0  0  0
   -7.3832    3.8079    0.0864 H   0  0  0  0  0  0  0  0  0  0  0  0
   -7.3467    4.5333   -1.6192 H   0  0  0  0  0  0  0  0  0  0  0  0
   -5.4320    6.2417   -1.6009 H   0  0  0  0  0  0  0  0  0  0  0  0
   -4.0907    5.8824   -0.4218 H   0  0  0  0  0  0  0  0  0  0  0  0
   -4.1076    5.2198   -2.1337 H   0  0  0  0  0  0  0  0  0  0  0  0
   -2.3595    4.4923   -0.8448 H   0  0  0  0  0  0  0  0  0  0  0  0
    0.3142    3.6677   -1.0552 H   0  0  0  0  0  0  0  0  0  0  0  0
    0.9212   -1.6740   -0.9732 H   0  0  0  0  0  0  0  0  0  0  0  0
    2.1350    1.3359    0.8614 H   0  0  0  0  0  0  0  0  0  0  0  0
    4.4135    1.6432    1.7191 H   0  0  0  0  0  0  0  0  0  0  0  0
    8.8417   -0.0674    2.4282 H   0  0  0  0  0  0  0  0  0  0  0  0
    9.2645    1.2372    1.1980 H   0  0  0  0  0  0  0  0  0  0  0  0
   10.8914   -0.7336    1.1415 H   0  0  0  0  0  0  0  0  0  0  0  0
   10.2301   -2.8785    0.5510 H   0  0  0  0  0  0  0  0  0  0  0  0
    8.7184   -2.3955    1.3448 H   0  0  0  0  0  0  0  0  0  0  0  0
    7.6700   -2.4647   -0.6541 H   0  0  0  0  0  0  0  0  0  0  0  0
    9.2045   -2.8995   -1.5235 H   0  0  0  0  0  0  0  0  0  0  0  0
    8.7612   -0.7140   -2.3970 H   0  0  0  0  0  0  0  0  0  0  0  0
    6.6739   -0.4675   -1.1321 H   0  0  0  0  0  0  0  0  0  0  0  0
    7.6718    1.0466   -1.1474 H   0  0  0  0  0  0  0  0  0  0  0  0
   10.7630   -0.8378   -1.2237 H   0  0  0  0  0  0  0  0  0  0  0  0
    5.4474   -2.1280    0.1825 H   0  0  0  0  0  0  0  0  0  0  0  0
   -3.1871   -0.3107    1.6820 H   0  0  0  0  0  0  0  0  0  0  0  0
   -4.6578   -2.2311    2.0926 H   0  0  0  0  0  0  0  0  0  0  0  0
   -6.4172   -3.7725   -1.4772 H   0  0  0  0  0  0  0  0  0  0  0  0
   -6.7929   -5.1350   -0.2823 H   0  0  0  0  0  0  0  0  0  0  0  0
   -5.1787   -4.3361   -0.2777 H   0  0  0  0  0  0  0  0  0  0  0  0
   -5.6065   -4.0454    2.1111 H   0  0  0  0  0  0  0  0  0  0  0  0
   -7.4254   -4.2961    2.1010 H   0  0  0  0  0  0  0  0  0  0  0  0
   -6.7975   -2.7194    2.6075 H   0  0  0  0  0  0  0  0  0  0  0  0
   -8.3476   -1.8129    0.9564 H   0  0  0  0  0  0  0  0  0  0  0  0
   -8.3935   -2.5094   -0.7607 H   0  0  0  0  0  0  0  0  0  0  0  0
   -8.8059   -3.5160    0.6661 H   0  0  0  0  0  0  0  0  0  0  0  0
   -6.7268   -1.3492   -1.5208 H   0  0  0  0  0  0  0  0  0  0  0  0
   -5.2766    0.5148   -1.9143 H   0  0  0  0  0  0  0  0  0  0  0  0
  1  2  1  0
  2  3  1  0
  2  4  1  0
  4  5  2  0
  4  6  1  0
  6  7  2  0
  7  8  1  0
  8  9  2  0
  9 10  1  0
 10 11  2  0
 11 12  1  0
 12 13  1  0
 13 14  2  0
 14 15  1  0
 15 16  2  0
 16 17  1  0
 17 18  2  0
 17 19  1  0
 19 20  1  0
 20 21  1  0
 21 22  1  0
 22 23  1  0
 23 24  1  0
 24 25  1  0
 24 26  1  0
 16 27  1  0
 27 28  2  0
 11 29  1  0
 29 30  2  0
 30 31  1  0
 31 32  1  0
 32 33  2  0
 33 34  1  0
 34 35  2  0
 35 36  1  0
 36 37  1  0
 36 38  1  0
 36 39  1  0
 35 40  1  0
 40 41  2  0
 31  6  1  0
 41 32  1  0
 30  8  1  0
 28 13  1  0
 25 19  1  0
 26 21  1  0
  1 42  1  0
  1 43  1  0
  1 44  1  0
  3 45  1  0
  3 46  1  0
  3 47  1  0
  7 48  1  0
  9 49  1  0
 12 50  1  0
 14 51  1  0
 15 52  1  0
 20 53  1  0
 20 54  1  0
 21 55  1  0
 22 56  1  0
 22 57  1  0
 23 58  1  0
 23 59  1  0
 24 60  1  0
 25 61  1  0
 25 62  1  0
 26 63  1  0
 27 64  1  0
 33 65  1  0
 34 66  1  0
 37 67  1  0
 37 68  1  0
 37 69  1  0
 38 70  1  0
 38 71  1  0
 38 72  1  0
 39 73  1  0
 39 74  1  0
 39 75  1  0
 40 76  1  0
 41 77  1  0
M  END
$$$$
