@<TRIPOS>MOLECULE
*****
 77 82 0 0 0
SMALL
GASTEIGER

@<TRIPOS>ATOM
      1 C          -6.9665    4.5943   -0.5611 C.3     1  UNL1        0.0032
      2 N          -5.4997    4.3697   -0.7347 N.am    1  UNL1       -0.3024
      3 C          -4.7106    5.4381   -1.2478 C.3     1  UNL1        0.0032
      4 C          -5.0275    3.1119   -0.3641 C.2     1  UNL1        0.2630
      5 O          -5.8638    2.2737    0.1002 O.2     1  UNL1       -0.2684
      6 C          -3.6371    2.7034   -0.4802 C.ar    1  UNL1        0.1113
      7 C          -2.4974    3.4205   -0.7034 C.ar    1  UNL1       -0.0206
      8 C          -1.4319    2.5231   -0.7193 C.ar    1  UNL1        0.0382
      9 C          -0.0626    2.6745   -0.8915 C.ar    1  UNL1        0.0419
     10 N           0.7127    1.5803   -0.8433 N.ar    1  UNL1       -0.2219
     11 C           0.2386    0.3255   -0.6339 C.ar    1  UNL1        0.2224
     12 N           1.1820   -0.7485   -0.5818 N.pl3   1  UNL1       -0.2685
     13 C           2.4767   -0.5751   -0.0008 C.ar    1  UNL1        0.1250
     14 C           2.8670    0.5513    0.6820 C.ar    1  UNL1       -0.0208
     15 C           4.1433    0.7439    1.1854 C.ar    1  UNL1       -0.0449
     16 C           5.1036   -0.2380    1.0076 C.ar    1  UNL1        0.0551
     17 C           6.4503   -0.0897    1.4971 C.2     1  UNL1        0.2482
     18 O           6.6116   -0.0541    2.7644 O.2     1  UNL1       -0.2699
     19 N           7.6251    0.0218    0.7104 N.am    1  UNL1       -0.2945
     20 C           8.9136    0.1733    1.3424 C.3     1  UNL1        0.0304
     21 C           9.8982   -0.7224    0.6357 C.3     1  UNL1        0.0237
     22 C           9.4021   -2.1393    0.5198 C.3     1  UNL1       -0.0346
     23 C           8.7278   -2.1878   -0.8209 C.3     1  UNL1       -0.0346
     24 C           8.7550   -0.7706   -1.3001 C.3     1  UNL1        0.0237
     25 C           7.5838   -0.0031   -0.7417 C.3     1  UNL1        0.0304
     26 N          10.0109   -0.2758   -0.7432 N.3     1  UNL1       -0.3075
     27 C           4.6850   -1.3558    0.3217 C.ar    1  UNL1        0.0418
     28 N           3.4246   -1.5260   -0.1668 N.ar    1  UNL1       -0.2394
     29 N          -1.0821    0.1850   -0.4676 N.ar    1  UNL1       -0.1958
     30 C          -1.9210    1.2704   -0.5079 C.ar    1  UNL1        0.1509
     31 N          -3.2540    1.3815   -0.3660 N.ar    1  UNL1       -0.2893
     32 C          -4.1002    0.2603   -0.1328 C.ar    1  UNL1        0.0487
     33 C          -3.9701   -0.5429    0.9683 C.ar    1  UNL1       -0.0375
     34 C          -4.7890   -1.6263    1.2151 C.ar    1  UNL1       -0.0561
     35 C          -5.7924   -1.9345    0.3274 C.ar    1  UNL1       -0.0418
     36 C          -6.7040   -3.0951    0.5080 C.3     1  UNL1       -0.0127
     37 C          -6.2583   -4.1804   -0.4494 C.3     1  UNL1       -0.0560
     38 C          -6.5947   -3.6008    1.9416 C.3     1  UNL1       -0.0560
     39 C          -8.1342   -2.6899    0.2977 C.3     1  UNL1       -0.0560
     40 C          -5.9455   -1.1421   -0.7894 C.ar    1  UNL1       -0.0561
     41 C          -5.1014   -0.0494   -1.0170 C.ar    1  UNL1       -0.0375
     42 H          -7.0570    5.6162   -0.1717 H       1  UNL1        0.0428
     43 H          -7.3832    3.8079    0.0864 H       1  UNL1        0.0428
     44 H          -7.3467    4.5333   -1.6192 H       1  UNL1        0.0428
     45 H          -5.4320    6.2417   -1.6009 H       1  UNL1        0.0428
     46 H          -4.0907    5.8824   -0.4218 H       1  UNL1        0.0428
     47 H          -4.1076    5.2198   -2.1337 H       1  UNL1        0.0428
     48 H          -2.3595    4.4923   -0.8448 H       1  UNL1        0.0647
     49 H           0.3142    3.6677   -1.0552 H       1  UNL1        0.0838
     50 H           0.9212   -1.6740   -0.9732 H       1  UNL1        0.1564
     51 H           2.1350    1.3359    0.8614 H       1  UNL1        0.0652
     52 H           4.4135    1.6432    1.7191 H       1  UNL1        0.0627
     53 H           8.8417   -0.0674    2.4282 H       1  UNL1        0.0480
     54 H           9.2645    1.2372    1.1980 H       1  UNL1        0.0480
     55 H          10.8914   -0.7336    1.1415 H       1  UNL1        0.0476
     56 H          10.2301   -2.8785    0.5510 H       1  UNL1        0.0281
     57 H           8.7184   -2.3955    1.3448 H       1  UNL1        0.0281
     58 H           7.6700   -2.4647   -0.6541 H       1  UNL1        0.0281
     59 H           9.2045   -2.8995   -1.5235 H       1  UNL1        0.0281
     60 H           8.7612   -0.7140   -2.3970 H       1  UNL1        0.0476
     61 H           6.6739   -0.4675   -1.1321 H       1  UNL1        0.0480
     62 H           7.6718    1.0466   -1.1474 H       1  UNL1        0.0480
     63 H          10.7630   -0.8378   -1.2237 H       1  UNL1        0.1226
     64 H           5.4474   -2.1280    0.1825 H       1  UNL1        0.0838
     65 H          -3.1871   -0.3107    1.6820 H       1  UNL1        0.0638
     66 H          -4.6578   -2.2311    2.0926 H       1  UNL1        0.0621
     67 H          -6.4172   -3.7725   -1.4772 H       1  UNL1        0.0238
     68 H          -6.7929   -5.1350   -0.2823 H       1  UNL1        0.0238
     69 H          -5.1787   -4.3361   -0.2777 H       1  UNL1        0.0238
     70 H          -5.6065   -4.0454    2.1111 H       1  UNL1        0.0238
     71 H          -7.4254   -4.2961    2.1010 H       1  UNL1        0.0238
     72 H          -6.7975   -2.7194    2.6075 H       1  UNL1        0.0238
     73 H          -8.3476   -1.8129    0.9564 H       1  UNL1        0.0238
     74 H          -8.3935   -2.5094   -0.7607 H       1  UNL1        0.0238
     75 H          -8.8059   -3.5160    0.6661 H       1  UNL1        0.0238
     76 H          -6.7268   -1.3492   -1.5208 H       1  UNL1        0.0621
     77 H          -5.2766    0.5148   -1.9143 H       1  UNL1        0.0638
@<TRIPOS>BOND
     1     1     2    1
     2     2     3    1
     3     2     4   am
     4     4     5    2
     5     4     6    1
     6     6     7   ar
     7     7     8   ar
     8     8     9   ar
     9     9    10   ar
    10    10    11   ar
    11    11    12    1
    12    12    13    1
    13    13    14   ar
    14    14    15   ar
    15    15    16   ar
    16    16    17    1
    17    17    18    2
    18    17    19   am
    19    19    20    1
    20    20    21    1
    21    21    22    1
    22    22    23    1
    23    23    24    1
    24    24    25    1
    25    24    26    1
    26    16    27   ar
    27    27    28   ar
    28    11    29   ar
    29    29    30   ar
    30    30    31   ar
    31    31    32    1
    32    32    33   ar
    33    33    34   ar
    34    34    35   ar
    35    35    36    1
    36    36    37    1
    37    36    38    1
    38    36    39    1
    39    35    40   ar
    40    40    41   ar
    41    31     6   ar
    42    41    32   ar
    43    30     8   ar
    44    28    13   ar
    45    25    19    1
    46    26    21    1
    47     1    42    1
    48     1    43    1
    49     1    44    1
    50     3    45    1
    51     3    46    1
    52     3    47    1
    53     7    48    1
    54     9    49    1
    55    12    50    1
    56    14    51    1
    57    15    52    1
    58    20    53    1
    59    20    54    1
    60    21    55    1
    61    22    56    1
    62    22    57    1
    63    23    58    1
    64    23    59    1
    65    24    60    1
    66    25    61    1
    67    25    62    1
    68    26    63    1
    69    27    64    1
    70    33    65    1
    71    34    66    1
    72    37    67    1
    73    37    68    1
    74    37    69    1
    75    38    70    1
    76    38    71    1
    77    38    72    1
    78    39    73    1
    79    39    74    1
    80    39    75    1
    81    40    76    1
    82    41    77    1
