
     RDKit          3D

 49 50  0  0  0  0  0  0  0  0999 V2000
   -3.5801    0.9033   -1.5893 C   0  0  0  0  0  0  0  0  0  0  0  0
   -3.2989    0.3430   -0.3220 O   0  0  0  0  0  0  0  0  0  0  0  0
   -2.0135    0.0615    0.1098 C   0  0  0  0  0  0  0  0  0  0  0  0
   -1.4363   -1.1673   -0.1222 C   0  0  0  0  0  0  0  0  0  0  0  0
   -2.2037   -2.1982   -0.8435 C   0  0  0  0  0  0  0  0  0  0  0  0
   -1.9466   -2.1496   -2.3468 C   0  0  0  0  0  0  0  0  0  0  0  0
   -1.9431   -3.5888   -0.3611 C   0  0  0  0  0  0  0  0  0  0  0  0
   -0.1340   -1.4486    0.3163 C   0  0  0  0  0  0  0  0  0  0  0  0
    0.6045   -0.5064    0.9903 C   0  0  0  0  0  0  0  0  0  0  0  0
    1.9733   -0.7660    1.4558 C   0  0  0  0  0  0  0  0  0  0  0  0
    3.0362   -0.3031    0.5632 C   0  0  0  0  0  0  0  0  0  0  0  0
    3.7072    0.8749    0.8956 C   0  0  0  0  0  0  0  0  0  0  0  0
    4.6929    1.3808    0.1325 N   0  0  0  0  0  0  0  0  0  0  0  0
    5.0760    0.7618   -0.9976 C   0  0  0  0  0  0  0  0  0  0  0  0
    6.1194    1.2828   -1.8199 N   0  0  0  0  0  0  0  0  0  0  0  0
    4.4379   -0.3728   -1.3283 N   0  0  0  0  0  0  0  0  0  0  0  0
    3.4422   -0.9218   -0.5960 C   0  0  0  0  0  0  0  0  0  0  0  0
    2.7940   -2.1147   -0.9680 N   0  0  0  0  0  0  0  0  0  0  0  0
   -0.0037    0.7308    1.2125 C   0  0  0  0  0  0  0  0  0  0  0  0
   -1.2866    1.0236    0.7869 C   0  0  0  0  0  0  0  0  0  0  0  0
   -1.9124    2.3489    1.0392 C   0  0  0  0  0  0  0  0  0  0  0  0
   -2.6135    2.3651    2.3968 C   0  0  0  0  0  0  0  0  0  0  0  0
   -0.9744    3.5008    0.8535 C   0  0  0  0  0  0  0  0  0  0  0  0
   -4.0809    0.1530   -2.2327 H   0  0  0  0  0  0  0  0  0  0  0  0
   -4.3174    1.7415   -1.4660 H   0  0  0  0  0  0  0  0  0  0  0  0
   -2.6697    1.2860   -2.0906 H   0  0  0  0  0  0  0  0  0  0  0  0
   -3.2973   -1.9736   -0.7132 H   0  0  0  0  0  0  0  0  0  0  0  0
   -1.6858   -1.1489   -2.7026 H   0  0  0  0  0  0  0  0  0  0  0  0
   -2.8424   -2.5916   -2.8295 H   0  0  0  0  0  0  0  0  0  0  0  0
   -1.1004   -2.8714   -2.5459 H   0  0  0  0  0  0  0  0  0  0  0  0
   -0.9587   -3.9521   -0.7676 H   0  0  0  0  0  0  0  0  0  0  0  0
   -1.8864   -3.6776    0.7357 H   0  0  0  0  0  0  0  0  0  0  0  0
   -2.7361   -4.2470   -0.8048 H   0  0  0  0  0  0  0  0  0  0  0  0
    0.2545   -2.4311    0.1042 H   0  0  0  0  0  0  0  0  0  0  0  0
    2.1256   -1.8457    1.6815 H   0  0  0  0  0  0  0  0  0  0  0  0
    2.0849   -0.2587    2.4430 H   0  0  0  0  0  0  0  0  0  0  0  0
    3.4072    1.3887    1.8090 H   0  0  0  0  0  0  0  0  0  0  0  0
    6.7871    0.6118   -2.2663 H   0  0  0  0  0  0  0  0  0  0  0  0
    6.1792    2.3259   -1.9469 H   0  0  0  0  0  0  0  0  0  0  0  0
    1.9875   -2.1041   -1.6141 H   0  0  0  0  0  0  0  0  0  0  0  0
    3.1359   -3.0151   -0.5837 H   0  0  0  0  0  0  0  0  0  0  0  0
    0.5670    1.4640    1.7353 H   0  0  0  0  0  0  0  0  0  0  0  0
   -2.7447    2.4959    0.2891 H   0  0  0  0  0  0  0  0  0  0  0  0
   -1.9075    2.6557    3.2029 H   0  0  0  0  0  0  0  0  0  0  0  0
   -3.4078    3.1134    2.3488 H   0  0  0  0  0  0  0  0  0  0  0  0
   -3.0305    1.3428    2.5343 H   0  0  0  0  0  0  0  0  0  0  0  0
    0.0117    3.3759    1.3088 H   0  0  0  0  0  0  0  0  0  0  0  0
   -1.4754    4.3942    1.3048 H   0  0  0  0  0  0  0  0  0  0  0  0
   -0.9365    3.7283   -0.2424 H   0  0  0  0  0  0  0  0  0  0  0  0
  1  2  1  0
  2  3  1  0
  3  4  2  0
  4  5  1  0
  5  6  1  0
  5  7  1  0
  4  8  1  0
  8  9  2  0
  9 10  1  0
 10 11  1  0
 11 12  2  0
 12 13  1  0
 13 14  2  0
 14 15  1  0
 14 16  1  0
 16 17  2  0
 17 18  1  0
  9 19  1  0
 19 20  2  0
 20 21  1  0
 21 22  1  0
 21 23  1  0
 20  3  1  0
 17 11  1  0
  1 24  1  0
  1 25  1  0
  1 26  1  0
  5 27  1  0
  6 28  1  0
  6 29  1  0
  6 30  1  0
  7 31  1  0
  7 32  1  0
  7 33  1  0
  8 34  1  0
 10 35  1  0
 10 36  1  0
 12 37  1  0
 15 38  1  0
 15 39  1  0
 18 40  1  0
 18 41  1  0
 19 42  1  0
 21 43  1  0
 22 44  1  0
 22 45  1  0
 22 46  1  0
 23 47  1  0
 23 48  1  0
 23 49  1  0
M  END
$$$$
