@<TRIPOS>MOLECULE
*****
 49 50 0 0 0
SMALL
GASTEIGER

@<TRIPOS>ATOM
      1 C          -3.5801    0.9033   -1.5893 C.3     1  UNL1        0.0788
      2 O          -3.2989    0.3430   -0.3220 O.3     1  UNL1       -0.4945
      3 C          -2.0135    0.0615    0.1098 C.ar    1  UNL1        0.1269
      4 C          -1.4363   -1.1673   -0.1222 C.ar    1  UNL1       -0.0026
      5 C          -2.2037   -2.1982   -0.8435 C.3     1  UNL1       -0.0180
      6 C          -1.9466   -2.1496   -2.3468 C.3     1  UNL1       -0.0585
      7 C          -1.9431   -3.5888   -0.3611 C.3     1  UNL1       -0.0585
      8 C          -0.1340   -1.4486    0.3163 C.ar    1  UNL1       -0.0513
      9 C           0.6045   -0.5064    0.9903 C.ar    1  UNL1       -0.0421
     10 C           1.9733   -0.7660    1.4558 C.3     1  UNL1        0.0023
     11 C           3.0362   -0.3031    0.5632 C.ar    1  UNL1        0.0146
     12 C           3.7072    0.8749    0.8956 C.ar    1  UNL1        0.0379
     13 N           4.6929    1.3808    0.1325 N.ar    1  UNL1       -0.2227
     14 C           5.0760    0.7618   -0.9976 C.ar    1  UNL1        0.2142
     15 N           6.1194    1.2828   -1.8199 N.pl3   1  UNL1       -0.3274
     16 N           4.4379   -0.3728   -1.3283 N.ar    1  UNL1       -0.1999
     17 C           3.4422   -0.9218   -0.5960 C.ar    1  UNL1        0.1247
     18 N           2.7940   -2.1147   -0.9680 N.pl3   1  UNL1       -0.3428
     19 C          -0.0037    0.7308    1.2125 C.ar    1  UNL1       -0.0513
     20 C          -1.2866    1.0236    0.7869 C.ar    1  UNL1       -0.0026
     21 C          -1.9124    2.3489    1.0392 C.3     1  UNL1       -0.0180
     22 C          -2.6135    2.3651    2.3968 C.3     1  UNL1       -0.0585
     23 C          -0.9744    3.5008    0.8535 C.3     1  UNL1       -0.0585
     24 H          -4.0809    0.1530   -2.2327 H       1  UNL1        0.0660
     25 H          -4.3174    1.7415   -1.4660 H       1  UNL1        0.0660
     26 H          -2.6697    1.2860   -2.0906 H       1  UNL1        0.0660
     27 H          -3.2973   -1.9736   -0.7132 H       1  UNL1        0.0345
     28 H          -1.6858   -1.1489   -2.7026 H       1  UNL1        0.0235
     29 H          -2.8424   -2.5916   -2.8295 H       1  UNL1        0.0235
     30 H          -1.1004   -2.8714   -2.5459 H       1  UNL1        0.0235
     31 H          -0.9587   -3.9521   -0.7676 H       1  UNL1        0.0235
     32 H          -1.8864   -3.6776    0.7357 H       1  UNL1        0.0235
     33 H          -2.7361   -4.2470   -0.8048 H       1  UNL1        0.0235
     34 H           0.2545   -2.4311    0.1042 H       1  UNL1        0.0624
     35 H           2.1256   -1.8457    1.6815 H       1  UNL1        0.0363
     36 H           2.0849   -0.2587    2.4430 H       1  UNL1        0.0363
     37 H           3.4072    1.3887    1.8090 H       1  UNL1        0.0834
     38 H           6.7871    0.6118   -2.2663 H       1  UNL1        0.1452
     39 H           6.1792    2.3259   -1.9469 H       1  UNL1        0.1452
     40 H           1.9875   -2.1041   -1.6141 H       1  UNL1        0.1437
     41 H           3.1359   -3.0151   -0.5837 H       1  UNL1        0.1437
     42 H           0.5670    1.4640    1.7353 H       1  UNL1        0.0624
     43 H          -2.7447    2.4959    0.2891 H       1  UNL1        0.0345
     44 H          -1.9075    2.6557    3.2029 H       1  UNL1        0.0235
     45 H          -3.4078    3.1134    2.3488 H       1  UNL1        0.0235
     46 H          -3.0305    1.3428    2.5343 H       1  UNL1        0.0235
     47 H           0.0117    3.3759    1.3088 H       1  UNL1        0.0235
     48 H          -1.4754    4.3942    1.3048 H       1  UNL1        0.0235
     49 H          -0.9365    3.7283   -0.2424 H       1  UNL1        0.0235
@<TRIPOS>BOND
     1     1     2    1
     2     2     3    1
     3     3     4   ar
     4     4     5    1
     5     5     6    1
     6     5     7    1
     7     4     8   ar
     8     8     9   ar
     9     9    10    1
    10    10    11    1
    11    11    12   ar
    12    12    13   ar
    13    13    14   ar
    14    14    15    1
    15    14    16   ar
    16    16    17   ar
    17    17    18    1
    18     9    19   ar
    19    19    20   ar
    20    20    21    1
    21    21    22    1
    22    21    23    1
    23    20     3   ar
    24    17    11   ar
    25     1    24    1
    26     1    25    1
    27     1    26    1
    28     5    27    1
    29     6    28    1
    30     6    29    1
    31     6    30    1
    32     7    31    1
    33     7    32    1
    34     7    33    1
    35     8    34    1
    36    10    35    1
    37    10    36    1
    38    12    37    1
    39    15    38    1
    40    15    39    1
    41    18    40    1
    42    18    41    1
    43    19    42    1
    44    21    43    1
    45    22    44    1
    46    22    45    1
    47    22    46    1
    48    23    47    1
    49    23    48    1
    50    23    49    1
