
     RDKit          3D

 70 74  0  0  0  0  0  0  0  0999 V2000
    0.3846   -1.2823    2.7113 C   0  0  0  0  0  0  0  0  0  0  0  0
   -0.0207   -0.6434    1.4046 C   0  0  0  0  0  0  0  0  0  0  0  0
    0.7102    0.6854    1.3009 C   0  0  0  0  0  0  0  0  0  0  0  0
    0.3005   -1.5800    0.3090 C   0  0  0  0  0  0  0  0  0  0  0  0
    1.5524   -1.9283   -0.1636 C   0  0  0  0  0  0  0  0  0  0  0  0
    2.8591   -1.5337    0.3797 C   0  0  0  0  0  0  0  0  0  0  0  0
    3.1978   -0.7954    1.4412 N   0  0  0  0  0  0  0  0  0  0  0  0
    4.5162   -0.7081    1.5471 N   0  0  0  0  0  0  0  0  0  0  0  0
    5.0209   -1.4172    0.5152 C   0  0  0  0  0  0  0  0  0  0  0  0
    6.3756   -1.6455    0.1673 N   0  0  0  0  0  0  0  0  0  0  0  0
    7.3953   -1.0234    0.9859 C   0  0  0  0  0  0  0  0  0  0  0  0
    7.2356    0.4922    0.7938 C   0  0  0  0  0  0  0  0  0  0  0  0
    7.4486    0.7153   -0.6914 C   0  0  0  0  0  0  0  0  0  0  0  0
    7.3578    2.0758   -1.1033 N   0  0  0  0  0  0  0  0  0  0  0  0
    6.0634    2.6547   -1.0184 C   0  0  0  0  0  0  0  0  0  0  0  0
    8.4516    2.8966   -0.6948 C   0  0  0  0  0  0  0  0  0  0  0  0
    4.0023   -1.8893   -0.1518 O   0  0  0  0  0  0  0  0  0  0  0  0
    1.3947   -2.7907   -1.2400 C   0  0  0  0  0  0  0  0  0  0  0  0
    0.0868   -2.9564   -1.4046 N   0  0  0  0  0  0  0  0  0  0  0  0
   -0.5660   -3.7010   -2.2971 N   0  0  0  0  0  0  0  0  0  0  0  0
   -1.9042   -3.7530   -2.2969 C   0  0  0  0  0  0  0  0  0  0  0  0
   -2.6126   -3.0645   -1.4072 N   0  0  0  0  0  0  0  0  0  0  0  0
   -1.9868   -2.2793   -0.4636 C   0  0  0  0  0  0  0  0  0  0  0  0
   -2.7942   -1.6123    0.4776 N   0  0  0  0  0  0  0  0  0  0  0  0
   -3.6509   -0.5740    0.0329 C   0  0  0  0  0  0  0  0  0  0  0  0
   -5.0074   -0.6231    0.2106 C   0  0  0  0  0  0  0  0  0  0  0  0
   -5.8368    0.4042   -0.2418 C   0  0  0  0  0  0  0  0  0  0  0  0
   -7.2732    0.2814   -0.0103 C   0  0  0  0  0  0  0  0  0  0  0  0
   -7.7012   -0.8655    0.3971 O   0  0  0  0  0  0  0  0  0  0  0  0
   -8.2582    1.2497   -0.1707 N   0  0  0  0  0  0  0  0  0  0  0  0
   -9.6819    0.9749    0.0952 C   0  0  0  0  0  0  0  0  0  0  0  0
  -10.6233    1.7764   -0.7780 C   0  0  0  0  0  0  0  0  0  0  0  0
  -10.4593    2.0850    0.7005 C   0  0  0  0  0  0  0  0  0  0  0  0
   -5.3197    1.5073   -0.8842 C   0  0  0  0  0  0  0  0  0  0  0  0
   -6.0917    2.5293   -1.3509 F   0  0  0  0  0  0  0  0  0  0  0  0
   -3.9415    1.5548   -1.0635 C   0  0  0  0  0  0  0  0  0  0  0  0
   -3.1417    0.5281   -0.6089 C   0  0  0  0  0  0  0  0  0  0  0  0
   -1.7886    0.6438   -0.8402 F   0  0  0  0  0  0  0  0  0  0  0  0
   -0.6120   -2.2493   -0.4961 C   0  0  0  0  0  0  0  0  0  0  0  0
    0.9560   -2.2209    2.5580 H   0  0  0  0  0  0  0  0  0  0  0  0
   -0.4874   -1.5680    3.3313 H   0  0  0  0  0  0  0  0  0  0  0  0
    0.9613   -0.5613    3.3552 H   0  0  0  0  0  0  0  0  0  0  0  0
   -1.1120   -0.4621    1.5065 H   0  0  0  0  0  0  0  0  0  0  0  0
    1.2687    0.9440    2.1948 H   0  0  0  0  0  0  0  0  0  0  0  0
    1.2549    0.7291    0.3523 H   0  0  0  0  0  0  0  0  0  0  0  0
   -0.1237    1.4614    1.1631 H   0  0  0  0  0  0  0  0  0  0  0  0
    6.5994   -2.2437   -0.6525 H   0  0  0  0  0  0  0  0  0  0  0  0
    7.2247   -1.2449    2.0583 H   0  0  0  0  0  0  0  0  0  0  0  0
    8.4155   -1.3270    0.6547 H   0  0  0  0  0  0  0  0  0  0  0  0
    7.9770    1.0364    1.3979 H   0  0  0  0  0  0  0  0  0  0  0  0
    6.2356    0.8409    1.0782 H   0  0  0  0  0  0  0  0  0  0  0  0
    8.4527    0.2875   -0.9366 H   0  0  0  0  0  0  0  0  0  0  0  0
    6.7239    0.1209   -1.2942 H   0  0  0  0  0  0  0  0  0  0  0  0
    6.1559    3.7633   -1.0200 H   0  0  0  0  0  0  0  0  0  0  0  0
    5.4660    2.3655   -0.1305 H   0  0  0  0  0  0  0  0  0  0  0  0
    5.5158    2.4073   -1.9563 H   0  0  0  0  0  0  0  0  0  0  0  0
    9.3337    2.2447   -0.4337 H   0  0  0  0  0  0  0  0  0  0  0  0
    8.2846    3.5237    0.1840 H   0  0  0  0  0  0  0  0  0  0  0  0
    8.8139    3.5399   -1.5413 H   0  0  0  0  0  0  0  0  0  0  0  0
    2.2110   -3.2308   -1.8197 H   0  0  0  0  0  0  0  0  0  0  0  0
   -2.4251   -4.3691   -3.0372 H   0  0  0  0  0  0  0  0  0  0  0  0
   -2.8479   -1.8312    1.4842 H   0  0  0  0  0  0  0  0  0  0  0  0
   -5.4248   -1.4735    0.7087 H   0  0  0  0  0  0  0  0  0  0  0  0
   -8.0085    2.1957   -0.4761 H   0  0  0  0  0  0  0  0  0  0  0  0
   -9.9543   -0.0491    0.3482 H   0  0  0  0  0  0  0  0  0  0  0  0
  -10.2448    2.5498   -1.4573 H   0  0  0  0  0  0  0  0  0  0  0  0
  -11.5802    1.2794   -1.0830 H   0  0  0  0  0  0  0  0  0  0  0  0
   -9.8973    2.9559    1.0310 H   0  0  0  0  0  0  0  0  0  0  0  0
  -11.2958    1.7788    1.3810 H   0  0  0  0  0  0  0  0  0  0  0  0
   -3.5300    2.4180   -1.5668 H   0  0  0  0  0  0  0  0  0  0  0  0
  1  2  1  0
  2  3  1  0
  2  4  1  0
  4  5  1  0
  5  6  1  0
  6  7  2  0
  7  8  1  0
  8  9  2  0
  9 10  1  0
 10 11  1  0
 11 12  1  0
 12 13  1  0
 13 14  1  0
 14 15  1  0
 14 16  1  0
  9 17  1  0
  5 18  2  0
 18 19  1  0
 19 20  1  0
 20 21  2  0
 21 22  1  0
 22 23  2  0
 23 24  1  0
 24 25  1  0
 25 26  2  0
 26 27  1  0
 27 28  1  0
 28 29  2  0
 28 30  1  0
 30 31  1  0
 31 32  1  0
 32 33  1  0
 27 34  2  0
 34 35  1  0
 34 36  1  0
 36 37  2  0
 37 38  1  0
 23 39  1  0
 39  4  2  0
 17  6  1  0
 39 19  1  0
 37 25  1  0
 33 31  1  0
  1 40  1  0
  1 41  1  0
  1 42  1  0
  2 43  1  0
  3 44  1  0
  3 45  1  0
  3 46  1  0
 10 47  1  0
 11 48  1  0
 11 49  1  0
 12 50  1  0
 12 51  1  0
 13 52  1  0
 13 53  1  0
 15 54  1  0
 15 55  1  0
 15 56  1  0
 16 57  1  0
 16 58  1  0
 16 59  1  0
 18 60  1  0
 21 61  1  0
 24 62  1  0
 26 63  1  0
 30 64  1  0
 31 65  1  0
 32 66  1  0
 32 67  1  0
 33 68  1  0
 33 69  1  0
 36 70  1  0
M  END
$$$$
