@<TRIPOS>MOLECULE
*****
 70 74 0 0 0
SMALL
GASTEIGER

@<TRIPOS>ATOM
      1 C           0.3846   -1.2823    2.7113 C.3     1  UNL1       -0.0586
      2 C          -0.0207   -0.6434    1.4046 C.3     1  UNL1       -0.0186
      3 C           0.7102    0.6854    1.3009 C.3     1  UNL1       -0.0586
      4 C           0.3005   -1.5800    0.3090 C.ar    1  UNL1       -0.0023
      5 C           1.5524   -1.9283   -0.1636 C.ar    1  UNL1        0.0621
      6 C           2.8591   -1.5337    0.3797 C.ar    1  UNL1        0.2518
      7 N           3.1978   -0.7954    1.4412 N.ar    1  UNL1       -0.1058
      8 N           4.5162   -0.7081    1.5471 N.ar    1  UNL1       -0.0924
      9 C           5.0209   -1.4172    0.5152 C.ar    1  UNL1        0.3081
     10 N           6.3756   -1.6455    0.1673 N.pl3   1  UNL1       -0.2975
     11 C           7.3953   -1.0234    0.9859 C.3     1  UNL1        0.0144
     12 C           7.2356    0.4922    0.7938 C.3     1  UNL1       -0.0245
     13 C           7.4486    0.7153   -0.6914 C.3     1  UNL1       -0.0003
     14 N           7.3578    2.0758   -1.1033 N.3     1  UNL1       -0.3083
     15 C           6.0634    2.6547   -1.0184 C.3     1  UNL1       -0.0130
     16 C           8.4516    2.8966   -0.6948 C.3     1  UNL1       -0.0130
     17 O           4.0023   -1.8893   -0.1518 O.2     1  UNL1       -0.4048
     18 C           1.3947   -2.7907   -1.2400 C.ar    1  UNL1        0.0425
     19 N           0.0868   -2.9564   -1.4046 N.ar    1  UNL1       -0.2341
     20 N          -0.5660   -3.7010   -2.2971 N.ar    1  UNL1       -0.1548
     21 C          -1.9042   -3.7530   -2.2969 C.ar    1  UNL1        0.1388
     22 N          -2.6126   -3.0645   -1.4072 N.ar    1  UNL1       -0.2167
     23 C          -1.9868   -2.2793   -0.4636 C.ar    1  UNL1        0.1507
     24 N          -2.7942   -1.6123    0.4776 N.pl3   1  UNL1       -0.2954
     25 C          -3.6509   -0.5740    0.0329 C.ar    1  UNL1        0.0690
     26 C          -5.0074   -0.6231    0.2106 C.ar    1  UNL1       -0.0228
     27 C          -5.8368    0.4042   -0.2418 C.ar    1  UNL1        0.0737
     28 C          -7.2732    0.2814   -0.0103 C.2     1  UNL1        0.2471
     29 O          -7.7012   -0.8655    0.3971 O.2     1  UNL1       -0.2701
     30 N          -8.2582    1.2497   -0.1707 N.am    1  UNL1       -0.3084
     31 C          -9.6819    0.9749    0.0952 C.3     1  UNL1        0.0235
     32 C         -10.6233    1.7764   -0.7780 C.3     1  UNL1       -0.0328
     33 C         -10.4593    2.0850    0.7005 C.3     1  UNL1       -0.0328
     34 C          -5.3197    1.5073   -0.8842 C.ar    1  UNL1        0.1383
     35 F          -6.0917    2.5293   -1.3509 F       1  UNL1       -0.2046
     36 C          -3.9415    1.5548   -1.0635 C.ar    1  UNL1        0.0114
     37 C          -3.1417    0.5281   -0.6089 C.ar    1  UNL1        0.1472
     38 F          -1.7886    0.6438   -0.8402 F       1  UNL1       -0.2035
     39 C          -0.6120   -2.2493   -0.4961 C.ar    1  UNL1        0.1095
     40 H           0.9560   -2.2209    2.5580 H       1  UNL1        0.0235
     41 H          -0.4874   -1.5680    3.3313 H       1  UNL1        0.0235
     42 H           0.9613   -0.5613    3.3552 H       1  UNL1        0.0235
     43 H          -1.1120   -0.4621    1.5065 H       1  UNL1        0.0344
     44 H           1.2687    0.9440    2.1948 H       1  UNL1        0.0235
     45 H           1.2549    0.7291    0.3523 H       1  UNL1        0.0235
     46 H          -0.1237    1.4614    1.1631 H       1  UNL1        0.0235
     47 H           6.5994   -2.2437   -0.6525 H       1  UNL1        0.1504
     48 H           7.2247   -1.2449    2.0583 H       1  UNL1        0.0463
     49 H           8.4155   -1.3270    0.6547 H       1  UNL1        0.0463
     50 H           7.9770    1.0364    1.3979 H       1  UNL1        0.0293
     51 H           6.2356    0.8409    1.0782 H       1  UNL1        0.0293
     52 H           8.4527    0.2875   -0.9366 H       1  UNL1        0.0427
     53 H           6.7239    0.1209   -1.2942 H       1  UNL1        0.0427
     54 H           6.1559    3.7633   -1.0200 H       1  UNL1        0.0391
     55 H           5.4660    2.3655   -0.1305 H       1  UNL1        0.0391
     56 H           5.5158    2.4073   -1.9563 H       1  UNL1        0.0391
     57 H           9.3337    2.2447   -0.4337 H       1  UNL1        0.0391
     58 H           8.2846    3.5237    0.1840 H       1  UNL1        0.0391
     59 H           8.8139    3.5399   -1.5413 H       1  UNL1        0.0391
     60 H           2.2110   -3.2308   -1.8197 H       1  UNL1        0.0838
     61 H          -2.4251   -4.3691   -3.0372 H       1  UNL1        0.1066
     62 H          -2.8479   -1.8312    1.4842 H       1  UNL1        0.1537
     63 H          -5.4248   -1.4735    0.7087 H       1  UNL1        0.0645
     64 H          -8.0085    2.1957   -0.4761 H       1  UNL1        0.1493
     65 H          -9.9543   -0.0491    0.3482 H       1  UNL1        0.0498
     66 H         -10.2448    2.5498   -1.4573 H       1  UNL1        0.0284
     67 H         -11.5802    1.2794   -1.0830 H       1  UNL1        0.0284
     68 H          -9.8973    2.9559    1.0310 H       1  UNL1        0.0284
     69 H         -11.2958    1.7788    1.3810 H       1  UNL1        0.0284
     70 H          -3.5300    2.4180   -1.5668 H       1  UNL1        0.0676
@<TRIPOS>BOND
     1     1     2    1
     2     2     3    1
     3     2     4    1
     4     4     5   ar
     5     5     6    1
     6     6     7   ar
     7     7     8   ar
     8     8     9   ar
     9     9    10    1
    10    10    11    1
    11    11    12    1
    12    12    13    1
    13    13    14    1
    14    14    15    1
    15    14    16    1
    16     9    17   ar
    17     5    18   ar
    18    18    19   ar
    19    19    20   ar
    20    20    21   ar
    21    21    22   ar
    22    22    23   ar
    23    23    24    1
    24    24    25    1
    25    25    26   ar
    26    26    27   ar
    27    27    28    1
    28    28    29    2
    29    28    30   am
    30    30    31    1
    31    31    32    1
    32    32    33    1
    33    27    34   ar
    34    34    35    1
    35    34    36   ar
    36    36    37   ar
    37    37    38    1
    38    23    39   ar
    39    39     4   ar
    40    17     6   ar
    41    39    19   ar
    42    37    25   ar
    43    33    31    1
    44     1    40    1
    45     1    41    1
    46     1    42    1
    47     2    43    1
    48     3    44    1
    49     3    45    1
    50     3    46    1
    51    10    47    1
    52    11    48    1
    53    11    49    1
    54    12    50    1
    55    12    51    1
    56    13    52    1
    57    13    53    1
    58    15    54    1
    59    15    55    1
    60    15    56    1
    61    16    57    1
    62    16    58    1
    63    16    59    1
    64    18    60    1
    65    21    61    1
    66    24    62    1
    67    26    63    1
    68    30    64    1
    69    31    65    1
    70    32    66    1
    71    32    67    1
    72    33    68    1
    73    33    69    1
    74    36    70    1
