@<TRIPOS>MOLECULE
*****
 56 59 0 0 0
SMALL
GASTEIGER

@<TRIPOS>ATOM
      1 C           5.4371    2.8021    0.6108 C.3     1  UNL1       -0.0121
      2 N           5.1006    1.6463   -0.2252 N.3     1  UNL1       -0.2923
      3 C           3.8050    1.1728    0.1854 C.3     1  UNL1        0.0334
      4 C           3.3577    0.0017   -0.6240 C.3     1  UNL1        0.1023
      5 O           2.1351   -0.5411   -0.3400 O.3     1  UNL1       -0.4901
      6 C           0.8595   -0.1438   -0.3622 C.ar    1  UNL1        0.1283
      7 C           0.4333    1.0946   -0.7504 C.ar    1  UNL1       -0.0188
      8 C          -0.9263    1.4358   -0.7474 C.ar    1  UNL1       -0.0505
      9 C          -1.8747    0.5376   -0.3551 C.ar    1  UNL1       -0.0170
     10 C          -3.2888    0.8939   -0.3533 C.ar    1  UNL1       -0.0142
     11 C          -3.7054    2.1946   -0.0996 C.ar    1  UNL1       -0.0503
     12 C          -5.0401    2.5410   -0.0961 C.ar    1  UNL1       -0.0157
     13 C          -6.0154    1.5854   -0.3496 C.ar    1  UNL1        0.1621
     14 C          -5.6379    0.3033   -0.6015 C.ar    1  UNL1        0.1626
     15 C          -4.2858   -0.0251   -0.6003 C.ar    1  UNL1       -0.0086
     16 O          -6.6141   -0.6614   -0.8570 O.3     1  UNL1       -0.4849
     17 C          -7.9654   -0.3811   -0.5112 C.3     1  UNL1        0.1237
     18 C          -8.2398    1.0221   -1.0294 C.3     1  UNL1        0.1237
     19 O          -7.3676    1.9069   -0.3522 O.3     1  UNL1       -0.4849
     20 C          -1.4521   -0.7122    0.0370 C.ar    1  UNL1       -0.0428
     21 C          -0.1187   -1.0618    0.0394 C.ar    1  UNL1        0.0258
     22 C           0.2720   -2.4082    0.4675 C.ar    1  UNL1        0.0039
     23 C           0.3640   -3.4483   -0.4436 C.ar    1  UNL1       -0.0525
     24 C           0.7325   -4.7323   -0.0600 C.ar    1  UNL1       -0.0611
     25 C           1.0202   -4.9995    1.2683 C.ar    1  UNL1       -0.0603
     26 C           0.9298   -3.9694    2.1751 C.ar    1  UNL1       -0.0428
     27 C           0.5632   -2.6974    1.7856 C.ar    1  UNL1        0.0488
     28 CL          0.4610   -1.4195    2.9700 Cl      1  UNL1       -0.0829
     29 C           6.1661    0.7010   -0.1635 C.3     1  UNL1        0.0966
     30 C           7.3669    1.2813   -0.8250 C.2     1  UNL1        0.3189
     31 O           7.2969    2.4313   -1.3095 O.2     1  UNL1       -0.2496
     32 O           8.5572    0.5830   -0.9179 O.3     1  UNL1       -0.4797
     33 H           5.4443    3.6811   -0.0927 H       1  UNL1        0.0391
     34 H           4.7383    2.9238    1.4421 H       1  UNL1        0.0391
     35 H           6.4754    2.7038    0.9726 H       1  UNL1        0.0391
     36 H           3.8427    0.8676    1.2687 H       1  UNL1        0.0460
     37 H           3.1084    2.0124    0.0388 H       1  UNL1        0.0460
     38 H           4.1176   -0.8197   -0.4061 H       1  UNL1        0.0709
     39 H           3.5141    0.2756   -1.6935 H       1  UNL1        0.0709
     40 H           1.1021    1.8687   -1.0868 H       1  UNL1        0.0654
     41 H          -1.1918    2.4239   -1.0634 H       1  UNL1        0.0625
     42 H          -2.9940    2.9900    0.1061 H       1  UNL1        0.0625
     43 H          -5.3753    3.5505    0.1002 H       1  UNL1        0.0655
     44 H          -4.0466   -1.0580   -0.8067 H       1  UNL1        0.0661
     45 H          -8.6611   -1.0894   -0.9704 H       1  UNL1        0.0731
     46 H          -8.0193   -0.3708    0.6018 H       1  UNL1        0.0731
     47 H          -7.9611    1.0213   -2.1034 H       1  UNL1        0.0731
     48 H          -9.2933    1.3228   -0.8548 H       1  UNL1        0.0731
     49 H          -2.2170   -1.4240    0.3489 H       1  UNL1        0.0631
     50 H           0.1332   -3.2153   -1.4843 H       1  UNL1        0.0624
     51 H           0.7948   -5.5222   -0.7965 H       1  UNL1        0.0618
     52 H           1.3110   -6.0101    1.5758 H       1  UNL1        0.0618
     53 H           1.1617   -4.1983    3.2254 H       1  UNL1        0.0632
     54 H           5.9475   -0.2242   -0.7257 H       1  UNL1        0.0541
     55 H           6.3976    0.4935    0.9096 H       1  UNL1        0.0541
     56 H           9.3446    0.8637   -1.4879 H       1  UNL1        0.2951
@<TRIPOS>BOND
     1     1     2    1
     2     2     3    1
     3     3     4    1
     4     4     5    1
     5     5     6    1
     6     6     7   ar
     7     7     8   ar
     8     8     9   ar
     9     9    10    1
    10    10    11   ar
    11    11    12   ar
    12    12    13   ar
    13    13    14   ar
    14    14    15   ar
    15    14    16    1
    16    16    17    1
    17    17    18    1
    18    18    19    1
    19     9    20   ar
    20    20    21   ar
    21    21    22    1
    22    22    23   ar
    23    23    24   ar
    24    24    25   ar
    25    25    26   ar
    26    26    27   ar
    27    27    28    1
    28     2    29    1
    29    29    30    1
    30    30    31    2
    31    30    32    1
    32    21     6   ar
    33    27    22   ar
    34    15    10   ar
    35    19    13    1
    36     1    33    1
    37     1    34    1
    38     1    35    1
    39     3    36    1
    40     3    37    1
    41     4    38    1
    42     4    39    1
    43     7    40    1
    44     8    41    1
    45    11    42    1
    46    12    43    1
    47    15    44    1
    48    17    45    1
    49    17    46    1
    50    18    47    1
    51    18    48    1
    52    20    49    1
    53    23    50    1
    54    24    51    1
    55    25    52    1
    56    26    53    1
    57    29    54    1
    58    29    55    1
    59    32    56    1
