
     RDKit          3D

 56 59  0  0  0  0  0  0  0  0999 V2000
    5.4371    2.8021    0.6108 C   0  0  0  0  0  0  0  0  0  0  0  0
    5.1006    1.6463   -0.2252 N   0  0  0  0  0  0  0  0  0  0  0  0
    3.8050    1.1728    0.1854 C   0  0  0  0  0  0  0  0  0  0  0  0
    3.3577    0.0017   -0.6240 C   0  0  0  0  0  0  0  0  0  0  0  0
    2.1351   -0.5411   -0.3400 O   0  0  0  0  0  0  0  0  0  0  0  0
    0.8595   -0.1438   -0.3622 C   0  0  0  0  0  0  0  0  0  0  0  0
    0.4333    1.0946   -0.7504 C   0  0  0  0  0  0  0  0  0  0  0  0
   -0.9263    1.4358   -0.7474 C   0  0  0  0  0  0  0  0  0  0  0  0
   -1.8747    0.5376   -0.3551 C   0  0  0  0  0  0  0  0  0  0  0  0
   -3.2888    0.8939   -0.3533 C   0  0  0  0  0  0  0  0  0  0  0  0
   -3.7054    2.1946   -0.0996 C   0  0  0  0  0  0  0  0  0  0  0  0
   -5.0401    2.5410   -0.0961 C   0  0  0  0  0  0  0  0  0  0  0  0
   -6.0154    1.5854   -0.3496 C   0  0  0  0  0  0  0  0  0  0  0  0
   -5.6379    0.3033   -0.6015 C   0  0  0  0  0  0  0  0  0  0  0  0
   -4.2858   -0.0251   -0.6003 C   0  0  0  0  0  0  0  0  0  0  0  0
   -6.6141   -0.6614   -0.8570 O   0  0  0  0  0  0  0  0  0  0  0  0
   -7.9654   -0.3811   -0.5112 C   0  0  0  0  0  0  0  0  0  0  0  0
   -8.2398    1.0221   -1.0294 C   0  0  0  0  0  0  0  0  0  0  0  0
   -7.3676    1.9069   -0.3522 O   0  0  0  0  0  0  0  0  0  0  0  0
   -1.4521   -0.7122    0.0370 C   0  0  0  0  0  0  0  0  0  0  0  0
   -0.1187   -1.0618    0.0394 C   0  0  0  0  0  0  0  0  0  0  0  0
    0.2720   -2.4082    0.4675 C   0  0  0  0  0  0  0  0  0  0  0  0
    0.3640   -3.4483   -0.4436 C   0  0  0  0  0  0  0  0  0  0  0  0
    0.7325   -4.7323   -0.0600 C   0  0  0  0  0  0  0  0  0  0  0  0
    1.0202   -4.9995    1.2683 C   0  0  0  0  0  0  0  0  0  0  0  0
    0.9298   -3.9694    2.1751 C   0  0  0  0  0  0  0  0  0  0  0  0
    0.5632   -2.6974    1.7856 C   0  0  0  0  0  0  0  0  0  0  0  0
    0.4610   -1.4195    2.9700 Cl  0  0  0  0  0  0  0  0  0  0  0  0
    6.1661    0.7010   -0.1635 C   0  0  0  0  0  0  0  0  0  0  0  0
    7.3669    1.2813   -0.8250 C   0  0  0  0  0  0  0  0  0  0  0  0
    7.2969    2.4313   -1.3095 O   0  0  0  0  0  0  0  0  0  0  0  0
    8.5572    0.5830   -0.9179 O   0  0  0  0  0  0  0  0  0  0  0  0
    5.4443    3.6811   -0.0927 H   0  0  0  0  0  0  0  0  0  0  0  0
    4.7383    2.9238    1.4421 H   0  0  0  0  0  0  0  0  0  0  0  0
    6.4754    2.7038    0.9726 H   0  0  0  0  0  0  0  0  0  0  0  0
    3.8427    0.8676    1.2687 H   0  0  0  0  0  0  0  0  0  0  0  0
    3.1084    2.0124    0.0388 H   0  0  0  0  0  0  0  0  0  0  0  0
    4.1176   -0.8197   -0.4061 H   0  0  0  0  0  0  0  0  0  0  0  0
    3.5141    0.2756   -1.6935 H   0  0  0  0  0  0  0  0  0  0  0  0
    1.1021    1.8687   -1.0868 H   0  0  0  0  0  0  0  0  0  0  0  0
   -1.1918    2.4239   -1.0634 H   0  0  0  0  0  0  0  0  0  0  0  0
   -2.9940    2.9900    0.1061 H   0  0  0  0  0  0  0  0  0  0  0  0
   -5.3753    3.5505    0.1002 H   0  0  0  0  0  0  0  0  0  0  0  0
   -4.0466   -1.0580   -0.8067 H   0  0  0  0  0  0  0  0  0  0  0  0
   -8.6611   -1.0894   -0.9704 H   0  0  0  0  0  0  0  0  0  0  0  0
   -8.0193   -0.3708    0.6018 H   0  0  0  0  0  0  0  0  0  0  0  0
   -7.9611    1.0213   -2.1034 H   0  0  0  0  0  0  0  0  0  0  0  0
   -9.2933    1.3228   -0.8548 H   0  0  0  0  0  0  0  0  0  0  0  0
   -2.2170   -1.4240    0.3489 H   0  0  0  0  0  0  0  0  0  0  0  0
    0.1332   -3.2153   -1.4843 H   0  0  0  0  0  0  0  0  0  0  0  0
    0.7948   -5.5222   -0.7965 H   0  0  0  0  0  0  0  0  0  0  0  0
    1.3110   -6.0101    1.5758 H   0  0  0  0  0  0  0  0  0  0  0  0
    1.1617   -4.1983    3.2254 H   0  0  0  0  0  0  0  0  0  0  0  0
    5.9475   -0.2242   -0.7257 H   0  0  0  0  0  0  0  0  0  0  0  0
    6.3976    0.4935    0.9096 H   0  0  0  0  0  0  0  0  0  0  0  0
    9.3446    0.8637   -1.4879 H   0  0  0  0  0  0  0  0  0  0  0  0
  1  2  1  0
  2  3  1  0
  3  4  1  0
  4  5  1  0
  5  6  1  0
  6  7  2  0
  7  8  1  0
  8  9  2  0
  9 10  1  0
 10 11  2  0
 11 12  1  0
 12 13  2  0
 13 14  1  0
 14 15  2  0
 14 16  1  0
 16 17  1  0
 17 18  1  0
 18 19  1  0
  9 20  1  0
 20 21  2  0
 21 22  1  0
 22 23  2  0
 23 24  1  0
 24 25  2  0
 25 26  1  0
 26 27  2  0
 27 28  1  0
  2 29  1  0
 29 30  1  0
 30 31  2  0
 30 32  1  0
 21  6  1  0
 27 22  1  0
 15 10  1  0
 19 13  1  0
  1 33  1  0
  1 34  1  0
  1 35  1  0
  3 36  1  0
  3 37  1  0
  4 38  1  0
  4 39  1  0
  7 40  1  0
  8 41  1  0
 11 42  1  0
 12 43  1  0
 15 44  1  0
 17 45  1  0
 17 46  1  0
 18 47  1  0
 18 48  1  0
 20 49  1  0
 23 50  1  0
 24 51  1  0
 25 52  1  0
 26 53  1  0
 29 54  1  0
 29 55  1  0
 32 56  1  0
M  END
$$$$
