@<TRIPOS>MOLECULE
*****
 76 81 0 0 0
SMALL
GASTEIGER

@<TRIPOS>ATOM
      1 C          -1.6288    8.4188    0.7528 C.3     1  UNL1        0.0804
      2 O          -1.1242    7.1404    0.5195 O.3     1  UNL1       -0.4795
      3 C          -1.8790    5.9838    0.5175 C.ar    1  UNL1        0.2191
      4 C          -1.2526    4.7770    0.2715 C.ar    1  UNL1        0.0404
      5 C          -1.8978    3.5738    0.2452 C.ar    1  UNL1        0.1364
      6 N          -1.2397    2.3546   -0.0098 N.am    1  UNL1       -0.2240
      7 C           0.1482    2.1987   -0.2864 C.2     1  UNL1        0.3219
      8 O           0.9522    3.0271   -0.8005 O.2     1  UNL1       -0.2512
      9 N           0.5259    0.8687    0.1336 N.am    1  UNL1       -0.1920
     10 C           1.7960    0.2497    0.0671 C.ar    1  UNL1        0.0455
     11 C           2.2408   -0.4832   -1.0030 C.ar    1  UNL1       -0.0392
     12 C           3.4962   -1.0614   -1.0014 C.ar    1  UNL1       -0.0523
     13 C           4.3497   -0.9172    0.0889 C.ar    1  UNL1       -0.0175
     14 C           5.6494   -1.5267    0.0859 C.ar    1  UNL1       -0.0149
     15 C           5.8076   -2.8544   -0.2912 C.ar    1  UNL1       -0.0530
     16 C           7.0625   -3.4185   -0.2810 C.ar    1  UNL1       -0.0472
     17 C           8.1978   -2.7160    0.0932 C.ar    1  UNL1        0.0591
     18 C           9.4777   -3.4021    0.0701 C.2     1  UNL1        0.3368
     19 O          10.5194   -2.7933    0.4033 O.2     1  UNL1       -0.2451
     20 O           9.5790   -4.7256   -0.3146 O.3     1  UNL1       -0.4771
     21 C           8.0375   -1.4153    0.4618 C.ar    1  UNL1       -0.0443
     22 C           6.7749   -0.8320    0.4562 C.ar    1  UNL1       -0.0420
     23 C           6.6829    0.5922    0.8647 C.3     1  UNL1       -0.0391
     24 C           3.8863   -0.1799    1.1510 C.ar    1  UNL1       -0.0523
     25 C           2.6296    0.3989    1.1494 C.ar    1  UNL1       -0.0392
     26 C          -0.6840    0.2764    0.6540 C.2     1  UNL1        0.2516
     27 O          -0.7275   -0.6434    1.5081 O.2     1  UNL1       -0.2724
     28 C          -1.7692    1.0061   -0.0514 C.3     1  UNL1        0.1240
     29 C          -3.1133    0.8540    0.5394 C.3     1  UNL1       -0.0095
     30 C          -3.5617   -0.5699    0.4867 C.3     1  UNL1        0.0017
     31 N          -3.3772   -1.2158   -0.7669 N.3     1  UNL1       -0.2965
     32 C          -3.5793   -2.6431   -0.6438 C.3     1  UNL1        0.0415
     33 C          -4.9119   -3.0205   -0.1755 C.ar    1  UNL1        0.0581
     34 N          -5.1189   -3.4288    1.0841 N.ar    1  UNL1       -0.2583
     35 C          -6.3181   -3.7860    1.5630 C.ar    1  UNL1        0.0279
     36 C          -7.4273   -3.7456    0.7469 C.ar    1  UNL1       -0.0433
     37 C          -7.2763   -3.3370   -0.5481 C.ar    1  UNL1       -0.0557
     38 C          -6.0108   -2.9749   -1.0032 C.ar    1  UNL1       -0.0279
     39 C          -5.8876   -2.5426   -2.3958 C.3     1  UNL1       -0.0380
     40 C          -2.1111   -0.9937   -1.3782 C.3     1  UNL1        0.0017
     41 C          -1.8067    0.4942   -1.4930 C.3     1  UNL1       -0.0095
     42 N          -3.2418    3.6306    0.4836 N.ar    1  UNL1       -0.2200
     43 C          -3.8706    4.7939    0.7251 C.ar    1  UNL1        0.1219
     44 N          -3.2013    5.9670    0.7438 N.ar    1  UNL1       -0.2013
     45 H          -1.4022    8.7489    1.7934 H       1  UNL1        0.0660
     46 H          -1.2087    9.1912    0.0664 H       1  UNL1        0.0660
     47 H          -2.7374    8.3775    0.6114 H       1  UNL1        0.0660
     48 H          -0.1886    4.8105    0.0937 H       1  UNL1        0.0705
     49 H           1.5570   -0.5822   -1.8430 H       1  UNL1        0.0636
     50 H           3.8087   -1.6329   -1.8683 H       1  UNL1        0.0624
     51 H           4.9269   -3.4149   -0.5863 H       1  UNL1        0.0624
     52 H           7.1301   -4.4592   -0.5846 H       1  UNL1        0.0626
     53 H          10.4805   -5.1456   -0.5891 H       1  UNL1        0.2954
     54 H           8.8865   -0.8251    0.7611 H       1  UNL1        0.0628
     55 H           7.6048    1.1403    0.5014 H       1  UNL1        0.0278
     56 H           6.7480    0.7198    1.9797 H       1  UNL1        0.0278
     57 H           5.8258    1.1237    0.4162 H       1  UNL1        0.0278
     58 H           4.4817   -0.0178    2.0425 H       1  UNL1        0.0624
     59 H           2.3057    0.9785    2.0219 H       1  UNL1        0.0636
     60 H          -3.2392    1.2973    1.5360 H       1  UNL1        0.0303
     61 H          -3.8225    1.4150   -0.1277 H       1  UNL1        0.0303
     62 H          -2.9791   -1.1439    1.2551 H       1  UNL1        0.0427
     63 H          -4.6269   -0.6911    0.8347 H       1  UNL1        0.0427
     64 H          -2.7921   -3.0127    0.0539 H       1  UNL1        0.0491
     65 H          -3.3240   -3.1271   -1.6327 H       1  UNL1        0.0491
     66 H          -6.3932   -4.1083    2.6117 H       1  UNL1        0.0829
     67 H          -8.3868   -4.0438    1.1720 H       1  UNL1        0.0633
     68 H          -8.1519   -3.3106   -1.1745 H       1  UNL1        0.0621
     69 H          -5.8903   -1.4394   -2.5109 H       1  UNL1        0.0278
     70 H          -6.7543   -2.9030   -3.0110 H       1  UNL1        0.0278
     71 H          -4.9616   -2.9422   -2.8803 H       1  UNL1        0.0278
     72 H          -1.9547   -1.4989   -2.3267 H       1  UNL1        0.0427
     73 H          -1.3276   -1.3996   -0.6726 H       1  UNL1        0.0427
     74 H          -0.8228    0.6766   -1.9296 H       1  UNL1        0.0303
     75 H          -2.6472    0.9874   -1.9834 H       1  UNL1        0.0303
     76 H          -4.9415    4.8530    0.9166 H       1  UNL1        0.1049
@<TRIPOS>BOND
     1     1     2    1
     2     2     3    1
     3     3     4   ar
     4     4     5   ar
     5     5     6    1
     6     6     7   am
     7     7     8    2
     8     7     9   am
     9     9    10    1
    10    10    11   ar
    11    11    12   ar
    12    12    13   ar
    13    13    14    1
    14    14    15   ar
    15    15    16   ar
    16    16    17   ar
    17    17    18    1
    18    18    19    2
    19    18    20    1
    20    17    21   ar
    21    21    22   ar
    22    22    23    1
    23    13    24   ar
    24    24    25   ar
    25     9    26   am
    26    26    27    2
    27    26    28    1
    28    28    29    1
    29    29    30    1
    30    30    31    1
    31    31    32    1
    32    32    33    1
    33    33    34   ar
    34    34    35   ar
    35    35    36   ar
    36    36    37   ar
    37    37    38   ar
    38    38    39    1
    39    31    40    1
    40    40    41    1
    41     5    42   ar
    42    42    43   ar
    43    43    44   ar
    44    44     3   ar
    45    28     6    1
    46    38    33   ar
    47    25    10   ar
    48    41    28    1
    49    22    14   ar
    50     1    45    1
    51     1    46    1
    52     1    47    1
    53     4    48    1
    54    11    49    1
    55    12    50    1
    56    15    51    1
    57    16    52    1
    58    20    53    1
    59    21    54    1
    60    23    55    1
    61    23    56    1
    62    23    57    1
    63    24    58    1
    64    25    59    1
    65    29    60    1
    66    29    61    1
    67    30    62    1
    68    30    63    1
    69    32    64    1
    70    32    65    1
    71    35    66    1
    72    36    67    1
    73    37    68    1
    74    39    69    1
    75    39    70    1
    76    39    71    1
    77    40    72    1
    78    40    73    1
    79    41    74    1
    80    41    75    1
    81    43    76    1
