
     RDKit          3D

 76 81  0  0  0  0  0  0  0  0999 V2000
   -1.6288    8.4188    0.7528 C   0  0  0  0  0  0  0  0  0  0  0  0
   -1.1242    7.1404    0.5195 O   0  0  0  0  0  0  0  0  0  0  0  0
   -1.8790    5.9838    0.5175 C   0  0  0  0  0  0  0  0  0  0  0  0
   -1.2526    4.7770    0.2715 C   0  0  0  0  0  0  0  0  0  0  0  0
   -1.8978    3.5738    0.2452 C   0  0  0  0  0  0  0  0  0  0  0  0
   -1.2397    2.3546   -0.0098 N   0  0  0  0  0  0  0  0  0  0  0  0
    0.1482    2.1987   -0.2864 C   0  0  0  0  0  0  0  0  0  0  0  0
    0.9522    3.0271   -0.8005 O   0  0  0  0  0  0  0  0  0  0  0  0
    0.5259    0.8687    0.1336 N   0  0  0  0  0  0  0  0  0  0  0  0
    1.7960    0.2497    0.0671 C   0  0  0  0  0  0  0  0  0  0  0  0
    2.2408   -0.4832   -1.0030 C   0  0  0  0  0  0  0  0  0  0  0  0
    3.4962   -1.0614   -1.0014 C   0  0  0  0  0  0  0  0  0  0  0  0
    4.3497   -0.9172    0.0889 C   0  0  0  0  0  0  0  0  0  0  0  0
    5.6494   -1.5267    0.0859 C   0  0  0  0  0  0  0  0  0  0  0  0
    5.8076   -2.8544   -0.2912 C   0  0  0  0  0  0  0  0  0  0  0  0
    7.0625   -3.4185   -0.2810 C   0  0  0  0  0  0  0  0  0  0  0  0
    8.1978   -2.7160    0.0932 C   0  0  0  0  0  0  0  0  0  0  0  0
    9.4777   -3.4021    0.0701 C   0  0  0  0  0  0  0  0  0  0  0  0
   10.5194   -2.7933    0.4033 O   0  0  0  0  0  0  0  0  0  0  0  0
    9.5790   -4.7256   -0.3146 O   0  0  0  0  0  0  0  0  0  0  0  0
    8.0375   -1.4153    0.4618 C   0  0  0  0  0  0  0  0  0  0  0  0
    6.7749   -0.8320    0.4562 C   0  0  0  0  0  0  0  0  0  0  0  0
    6.6829    0.5922    0.8647 C   0  0  0  0  0  0  0  0  0  0  0  0
    3.8863   -0.1799    1.1510 C   0  0  0  0  0  0  0  0  0  0  0  0
    2.6296    0.3989    1.1494 C   0  0  0  0  0  0  0  0  0  0  0  0
   -0.6840    0.2764    0.6540 C   0  0  0  0  0  0  0  0  0  0  0  0
   -0.7275   -0.6434    1.5081 O   0  0  0  0  0  0  0  0  0  0  0  0
   -1.7692    1.0061   -0.0514 C   0  0  0  0  0  0  0  0  0  0  0  0
   -3.1133    0.8540    0.5394 C   0  0  0  0  0  0  0  0  0  0  0  0
   -3.5617   -0.5699    0.4867 C   0  0  0  0  0  0  0  0  0  0  0  0
   -3.3772   -1.2158   -0.7669 N   0  0  0  0  0  0  0  0  0  0  0  0
   -3.5793   -2.6431   -0.6438 C   0  0  0  0  0  0  0  0  0  0  0  0
   -4.9119   -3.0205   -0.1755 C   0  0  0  0  0  0  0  0  0  0  0  0
   -5.1189   -3.4288    1.0841 N   0  0  0  0  0  0  0  0  0  0  0  0
   -6.3181   -3.7860    1.5630 C   0  0  0  0  0  0  0  0  0  0  0  0
   -7.4273   -3.7456    0.7469 C   0  0  0  0  0  0  0  0  0  0  0  0
   -7.2763   -3.3370   -0.5481 C   0  0  0  0  0  0  0  0  0  0  0  0
   -6.0108   -2.9749   -1.0032 C   0  0  0  0  0  0  0  0  0  0  0  0
   -5.8876   -2.5426   -2.3958 C   0  0  0  0  0  0  0  0  0  0  0  0
   -2.1111   -0.9937   -1.3782 C   0  0  0  0  0  0  0  0  0  0  0  0
   -1.8067    0.4942   -1.4930 C   0  0  0  0  0  0  0  0  0  0  0  0
   -3.2418    3.6306    0.4836 N   0  0  0  0  0  0  0  0  0  0  0  0
   -3.8706    4.7939    0.7251 C   0  0  0  0  0  0  0  0  0  0  0  0
   -3.2013    5.9670    0.7438 N   0  0  0  0  0  0  0  0  0  0  0  0
   -1.4022    8.7489    1.7934 H   0  0  0  0  0  0  0  0  0  0  0  0
   -1.2087    9.1912    0.0664 H   0  0  0  0  0  0  0  0  0  0  0  0
   -2.7374    8.3775    0.6114 H   0  0  0  0  0  0  0  0  0  0  0  0
   -0.1886    4.8105    0.0937 H   0  0  0  0  0  0  0  0  0  0  0  0
    1.5570   -0.5822   -1.8430 H   0  0  0  0  0  0  0  0  0  0  0  0
    3.8087   -1.6329   -1.8683 H   0  0  0  0  0  0  0  0  0  0  0  0
    4.9269   -3.4149   -0.5863 H   0  0  0  0  0  0  0  0  0  0  0  0
    7.1301   -4.4592   -0.5846 H   0  0  0  0  0  0  0  0  0  0  0  0
   10.4805   -5.1456   -0.5891 H   0  0  0  0  0  0  0  0  0  0  0  0
    8.8865   -0.8251    0.7611 H   0  0  0  0  0  0  0  0  0  0  0  0
    7.6048    1.1403    0.5014 H   0  0  0  0  0  0  0  0  0  0  0  0
    6.7480    0.7198    1.9797 H   0  0  0  0  0  0  0  0  0  0  0  0
    5.8258    1.1237    0.4162 H   0  0  0  0  0  0  0  0  0  0  0  0
    4.4817   -0.0178    2.0425 H   0  0  0  0  0  0  0  0  0  0  0  0
    2.3057    0.9785    2.0219 H   0  0  0  0  0  0  0  0  0  0  0  0
   -3.2392    1.2973    1.5360 H   0  0  0  0  0  0  0  0  0  0  0  0
   -3.8225    1.4150   -0.1277 H   0  0  0  0  0  0  0  0  0  0  0  0
   -2.9791   -1.1439    1.2551 H   0  0  0  0  0  0  0  0  0  0  0  0
   -4.6269   -0.6911    0.8347 H   0  0  0  0  0  0  0  0  0  0  0  0
   -2.7921   -3.0127    0.0539 H   0  0  0  0  0  0  0  0  0  0  0  0
   -3.3240   -3.1271   -1.6327 H   0  0  0  0  0  0  0  0  0  0  0  0
   -6.3932   -4.1083    2.6117 H   0  0  0  0  0  0  0  0  0  0  0  0
   -8.3868   -4.0438    1.1720 H   0  0  0  0  0  0  0  0  0  0  0  0
   -8.1519   -3.3106   -1.1745 H   0  0  0  0  0  0  0  0  0  0  0  0
   -5.8903   -1.4394   -2.5109 H   0  0  0  0  0  0  0  0  0  0  0  0
   -6.7543   -2.9030   -3.0110 H   0  0  0  0  0  0  0  0  0  0  0  0
   -4.9616   -2.9422   -2.8803 H   0  0  0  0  0  0  0  0  0  0  0  0
   -1.9547   -1.4989   -2.3267 H   0  0  0  0  0  0  0  0  0  0  0  0
   -1.3276   -1.3996   -0.6726 H   0  0  0  0  0  0  0  0  0  0  0  0
   -0.8228    0.6766   -1.9296 H   0  0  0  0  0  0  0  0  0  0  0  0
   -2.6472    0.9874   -1.9834 H   0  0  0  0  0  0  0  0  0  0  0  0
   -4.9415    4.8530    0.9166 H   0  0  0  0  0  0  0  0  0  0  0  0
  1  2  1  0
  2  3  1  0
  3  4  2  0
  4  5  1  0
  5  6  1  0
  6  7  1  0
  7  8  2  0
  7  9  1  0
  9 10  1  0
 10 11  2  0
 11 12  1  0
 12 13  2  0
 13 14  1  0
 14 15  2  0
 15 16  1  0
 16 17  2  0
 17 18  1  0
 18 19  2  0
 18 20  1  0
 17 21  1  0
 21 22  2  0
 22 23  1  0
 13 24  1  0
 24 25  2  0
  9 26  1  0
 26 27  2  0
 26 28  1  0
 28 29  1  0
 29 30  1  0
 30 31  1  0
 31 32  1  0
 32 33  1  0
 33 34  2  0
 34 35  1  0
 35 36  2  0
 36 37  1  0
 37 38  2  0
 38 39  1  0
 31 40  1  0
 40 41  1  0
  5 42  2  0
 42 43  1  0
 43 44  2  0
 44  3  1  0
 28  6  1  0
 38 33  1  0
 25 10  1  0
 41 28  1  0
 22 14  1  0
  1 45  1  0
  1 46  1  0
  1 47  1  0
  4 48  1  0
 11 49  1  0
 12 50  1  0
 15 51  1  0
 16 52  1  0
 20 53  1  0
 21 54  1  0
 23 55  1  0
 23 56  1  0
 23 57  1  0
 24 58  1  0
 25 59  1  0
 29 60  1  0
 29 61  1  0
 30 62  1  0
 30 63  1  0
 32 64  1  0
 32 65  1  0
 35 66  1  0
 36 67  1  0
 37 68  1  0
 39 69  1  0
 39 70  1  0
 39 71  1  0
 40 72  1  0
 40 73  1  0
 41 74  1  0
 41 75  1  0
 43 76  1  0
M  END
$$$$
