@<TRIPOS>MOLECULE
*****
 54 58 0 0 0
SMALL
GASTEIGER

@<TRIPOS>ATOM
      1 C           2.9047    1.8782   -1.8668 C.3     1  UNL1       -0.0377
      2 C           3.8263    1.6317   -0.7253 C.ar    1  UNL1       -0.0249
      3 C           4.8310    2.5175   -0.4144 C.ar    1  UNL1       -0.0568
      4 C           5.6744    2.2728    0.6457 C.ar    1  UNL1       -0.0614
      5 C           5.4760    1.1207    1.3744 C.ar    1  UNL1       -0.0597
      6 C           4.4629    0.2310    1.0582 C.ar    1  UNL1       -0.0359
      7 C           3.6150    0.4687   -0.0008 C.ar    1  UNL1        0.0721
      8 N           2.5715   -0.4281   -0.3412 N.ar    1  UNL1       -0.1960
      9 N           1.3084   -0.1693   -0.2026 N.ar    1  UNL1       -0.1631
     10 C           0.2934   -1.0288   -0.5284 C.ar    1  UNL1        0.0974
     11 C          -1.0876   -0.6080   -0.3162 C.ar    1  UNL1        0.0690
     12 C          -2.2451   -1.2905   -0.5649 C.ar    1  UNL1        0.1038
     13 C          -2.4653   -2.6074   -1.1113 C.ar    1  UNL1        0.0030
     14 C          -2.5925   -2.8318   -2.4758 C.ar    1  UNL1       -0.0498
     15 C          -2.8189   -4.1114   -2.9008 C.ar    1  UNL1       -0.0258
     16 C          -2.9269   -5.1894   -2.0382 C.ar    1  UNL1        0.1234
     17 F          -3.1521   -6.4393   -2.5129 F       1  UNL1       -0.2055
     18 C          -2.8018   -4.9748   -0.6825 C.ar    1  UNL1       -0.0258
     19 C          -2.5724   -3.6789   -0.2505 C.ar    1  UNL1       -0.0498
     20 N          -3.2859   -0.4808   -0.1994 N.ar    1  UNL1       -0.1689
     21 N          -2.8402    0.6661    0.2618 N.ar    1  UNL1       -0.2492
     22 C          -1.4892    0.6065    0.1975 C.ar    1  UNL1        0.1269
     23 N          -0.7125    1.7331    0.6388 N.pl3   1  UNL1       -0.3283
     24 C          -1.2148    2.6482    1.6621 C.3     1  UNL1        0.0170
     25 C          -2.5932    2.1853    2.0709 C.3     1  UNL1        0.0173
     26 C          -3.2995    3.1983    2.9197 C.3     1  UNL1        0.0501
     27 O          -2.5507    3.4177    4.0638 O.3     1  UNL1       -0.3946
     28 C          -3.3825    1.9036    0.7907 C.3     1  UNL1        0.0499
     29 C           0.6847   -2.2337   -1.0316 C.ar    1  UNL1       -0.0287
     30 C           2.0066   -2.5761   -1.2060 C.ar    1  UNL1        0.0068
     31 C           2.9432   -1.6316   -0.8435 C.ar    1  UNL1        0.2719
     32 O           4.1592   -1.9012   -0.9853 O.2     1  UNL1       -0.2658
     33 H           1.8408    1.6883   -1.5956 H       1  UNL1        0.0278
     34 H           2.9713    2.9572   -2.1091 H       1  UNL1        0.0278
     35 H           3.2052    1.3198   -2.7762 H       1  UNL1        0.0278
     36 H           4.9893    3.4189   -0.9816 H       1  UNL1        0.0621
     37 H           6.4797    2.9514    0.9202 H       1  UNL1        0.0618
     38 H           6.1233    0.8955    2.2184 H       1  UNL1        0.0618
     39 H           4.3647   -0.6499    1.6701 H       1  UNL1        0.0639
     40 H          -2.5128   -2.0018   -3.1904 H       1  UNL1        0.0625
     41 H          -2.9231   -4.3133   -3.9774 H       1  UNL1        0.0646
     42 H          -2.8852   -5.8152    0.0020 H       1  UNL1        0.0646
     43 H          -2.4816   -3.5695    0.8395 H       1  UNL1        0.0625
     44 H           0.2193    1.8883    0.2136 H       1  UNL1        0.1475
     45 H          -1.3572    3.6259    1.1362 H       1  UNL1        0.0466
     46 H          -0.5262    2.7699    2.5008 H       1  UNL1        0.0466
     47 H          -2.5272    1.2338    2.6165 H       1  UNL1        0.0356
     48 H          -4.2834    2.7563    3.2108 H       1  UNL1        0.0561
     49 H          -3.5168    4.1330    2.3638 H       1  UNL1        0.0561
     50 H          -2.5924    4.3713    4.3296 H       1  UNL1        0.2094
     51 H          -3.0881    2.7049    0.0796 H       1  UNL1        0.0513
     52 H          -4.4585    1.8520    0.9659 H       1  UNL1        0.0513
     53 H          -0.0446   -2.9618   -1.3082 H       1  UNL1        0.0641
     54 H           2.2773   -3.5536   -1.6133 H       1  UNL1        0.0673
@<TRIPOS>BOND
     1     1     2    1
     2     2     3   ar
     3     3     4   ar
     4     4     5   ar
     5     5     6   ar
     6     6     7   ar
     7     7     8    1
     8     8     9   ar
     9     9    10   ar
    10    10    11    1
    11    11    12   ar
    12    12    13    1
    13    13    14   ar
    14    14    15   ar
    15    15    16   ar
    16    16    17    1
    17    16    18   ar
    18    18    19   ar
    19    12    20   ar
    20    20    21   ar
    21    21    22   ar
    22    22    23    1
    23    23    24    1
    24    24    25    1
    25    25    26    1
    26    26    27    1
    27    25    28    1
    28    10    29   ar
    29    29    30   ar
    30    30    31   ar
    31    31    32    2
    32     7     2   ar
    33    31     8   ar
    34    22    11   ar
    35    19    13   ar
    36    28    21    1
    37     1    33    1
    38     1    34    1
    39     1    35    1
    40     3    36    1
    41     4    37    1
    42     5    38    1
    43     6    39    1
    44    14    40    1
    45    15    41    1
    46    18    42    1
    47    19    43    1
    48    23    44    1
    49    24    45    1
    50    24    46    1
    51    25    47    1
    52    26    48    1
    53    26    49    1
    54    27    50    1
    55    28    51    1
    56    28    52    1
    57    29    53    1
    58    30    54    1
