@<TRIPOS>MOLECULE
*****
 63 69 0 0 0
SMALL
GASTEIGER

@<TRIPOS>ATOM
      1 O           2.0819   -2.5831   -2.7176 O.2     1  UNL1       -0.2697
      2 C           3.0632   -1.8443   -2.4415 C.2     1  UNL1        0.2519
      3 N           4.3520   -1.9452   -2.9873 N.am    1  UNL1       -0.2482
      4 C           5.1472   -0.9323   -2.4146 C.2     1  UNL1        0.2533
      5 O           6.3548   -0.7386   -2.6844 O.2     1  UNL1       -0.2697
      6 C           4.2784   -0.1838   -1.4699 C.2     1  UNL1        0.0751
      7 C           4.7671    0.9571   -0.6992 C.ar    1  UNL1        0.0789
      8 C           4.3235    2.2518   -0.6112 C.ar    1  UNL1        0.0545
      9 N           5.1182    2.9059    0.2717 N.ar    1  UNL1       -0.2355
     10 C           6.0517    2.0652    0.7444 C.ar    1  UNL1        0.1380
     11 C           7.0790    2.2607    1.6600 C.ar    1  UNL1       -0.0188
     12 C           7.8976    1.1965    1.9657 C.ar    1  UNL1       -0.0569
     13 C           7.6599   -0.0065    1.3514 C.ar    1  UNL1       -0.0450
     14 C           6.6319   -0.1837    0.4403 C.ar    1  UNL1        0.0118
     15 N           5.8453    0.8695    0.1565 N.ar    1  UNL1       -0.2991
     16 C           3.0768   -0.6977   -1.4757 C.2     1  UNL1        0.0604
     17 C           1.8573   -0.3491   -0.7695 C.ar    1  UNL1        0.0131
     18 C           1.1845    0.8262   -0.6797 C.ar    1  UNL1        0.0137
     19 N           0.1189    0.6614    0.1094 N.ar    1  UNL1       -0.3443
     20 C           0.1050   -0.6364    0.5328 C.ar    1  UNL1        0.0544
     21 C          -0.7862   -1.2883    1.3574 C.ar    1  UNL1       -0.0060
     22 C          -0.6107   -2.6015    1.6581 C.ar    1  UNL1       -0.0551
     23 C           0.4591   -3.3162    1.1486 C.ar    1  UNL1       -0.0607
     24 C           1.3460   -2.6291    0.3149 C.ar    1  UNL1       -0.0520
     25 C           1.1811   -1.3045    0.0026 C.ar    1  UNL1        0.0081
     26 C          -1.9934   -0.6429    1.9615 C.3     1  UNL1        0.0432
     27 N          -2.7369    0.0276    0.8507 N.am    1  UNL1       -0.2794
     28 C          -3.9989   -0.5105    0.6344 C.2     1  UNL1        0.3051
     29 O          -4.2755   -1.4937    1.4852 O.2     1  UNL1       -0.2524
     30 N          -5.0304   -0.2711   -0.2480 N.am    1  UNL1       -0.2855
     31 C          -6.2436   -1.1188   -0.0945 C.3     1  UNL1        0.0161
     32 C          -7.4758   -0.2884   -0.0453 C.3     1  UNL1       -0.0371
     33 C          -7.2385    1.1891    0.0236 C.3     1  UNL1       -0.0502
     34 C          -6.1602    1.7151   -0.8475 C.3     1  UNL1       -0.0371
     35 C          -5.1750    0.6632   -1.3327 C.3     1  UNL1        0.0161
     36 C          -2.2622    1.1006    0.0608 C.3     1  UNL1        0.0345
     37 C          -0.8855    1.6319    0.4914 C.3     1  UNL1        0.0392
     38 H           4.6779   -2.6523   -3.7004 H       1  UNL1        0.1581
     39 H           3.4931    2.6649   -1.1673 H       1  UNL1        0.0852
     40 H           7.2660    3.2066    2.1422 H       1  UNL1        0.0654
     41 H           8.7330    1.2642    2.6763 H       1  UNL1        0.0619
     42 H           8.3027   -0.8627    1.5855 H       1  UNL1        0.0632
     43 H           6.4539   -1.1383   -0.0264 H       1  UNL1        0.0813
     44 H           1.4165    1.7537   -1.1515 H       1  UNL1        0.0815
     45 H          -1.3011   -3.1191    2.3020 H       1  UNL1        0.0621
     46 H           0.6081   -4.3612    1.3823 H       1  UNL1        0.0618
     47 H           2.1702   -3.1904   -0.0690 H       1  UNL1        0.0624
     48 H          -2.6346   -1.3537    2.4772 H       1  UNL1        0.0515
     49 H          -1.6639    0.1312    2.6742 H       1  UNL1        0.0515
     50 H          -6.1172   -1.8132    0.7534 H       1  UNL1        0.0465
     51 H          -6.2683   -1.7338   -1.0171 H       1  UNL1        0.0465
     52 H          -8.0307   -0.5651    0.8930 H       1  UNL1        0.0280
     53 H          -8.2002   -0.5375   -0.8607 H       1  UNL1        0.0280
     54 H          -8.2045    1.6707   -0.3166 H       1  UNL1        0.0266
     55 H          -7.1123    1.5509    1.0676 H       1  UNL1        0.0266
     56 H          -6.5493    2.2016   -1.7782 H       1  UNL1        0.0280
     57 H          -5.5637    2.4922   -0.3291 H       1  UNL1        0.0280
     58 H          -5.6231    0.1078   -2.2144 H       1  UNL1        0.0465
     59 H          -4.2552    1.1602   -1.6074 H       1  UNL1        0.0465
     60 H          -2.1329    0.7201   -0.9889 H       1  UNL1        0.0483
     61 H          -2.9091    1.9915    0.0119 H       1  UNL1        0.0483
     62 H          -0.7317    2.5867   -0.0175 H       1  UNL1        0.0507
     63 H          -0.9309    1.7330    1.5758 H       1  UNL1        0.0507
@<TRIPOS>BOND
     1     1     2    2
     2     2     3   am
     3     3     4   am
     4     4     5    2
     5     4     6    1
     6     6     7    1
     7     7     8   ar
     8     8     9   ar
     9     9    10   ar
    10    10    11   ar
    11    11    12   ar
    12    12    13   ar
    13    13    14   ar
    14    14    15   ar
    15     6    16    2
    16    16    17    1
    17    17    18   ar
    18    18    19   ar
    19    19    20   ar
    20    20    21   ar
    21    21    22   ar
    22    22    23   ar
    23    23    24   ar
    24    24    25   ar
    25    21    26    1
    26    26    27    1
    27    27    28   am
    28    28    29    2
    29    28    30   am
    30    30    31    1
    31    31    32    1
    32    32    33    1
    33    33    34    1
    34    34    35    1
    35    27    36    1
    36    36    37    1
    37    16     2    1
    38    25    17   ar
    39    35    30    1
    40    15     7   ar
    41    37    19    1
    42    15    10   ar
    43    25    20   ar
    44     3    38    1
    45     8    39    1
    46    11    40    1
    47    12    41    1
    48    13    42    1
    49    14    43    1
    50    18    44    1
    51    22    45    1
    52    23    46    1
    53    24    47    1
    54    26    48    1
    55    26    49    1
    56    31    50    1
    57    31    51    1
    58    32    52    1
    59    32    53    1
    60    33    54    1
    61    33    55    1
    62    34    56    1
    63    34    57    1
    64    35    58    1
    65    35    59    1
    66    36    60    1
    67    36    61    1
    68    37    62    1
    69    37    63    1
