@<TRIPOS>MOLECULE
*****
 48 50 0 0 0
SMALL
GASTEIGER

@<TRIPOS>ATOM
      1 C           1.1690   -0.6565   -0.4604 C.3     1  UNL1        0.0255
      2 C          -0.0351   -1.4760   -0.0504 C.3     1  UNL1        0.0273
      3 N          -1.2274   -0.8473   -0.5907 N.am    1  UNL1       -0.2803
      4 C          -1.1217    0.3651   -1.4204 C.3     1  UNL1        0.0417
      5 C          -0.2351    1.2771   -0.6133 C.ar    1  UNL1       -0.0231
      6 C           0.9418    0.7467   -0.1218 C.ar    1  UNL1       -0.0335
      7 C           1.8054    1.5214    0.6265 C.ar    1  UNL1       -0.0574
      8 C           1.4692    2.8333    0.8727 C.ar    1  UNL1       -0.0583
      9 C           0.2780    3.3771    0.3777 C.ar    1  UNL1       -0.0472
     10 C          -0.0758    4.8036    0.6521 C.3     1  UNL1       -0.0395
     11 C          -0.5919    2.5874   -0.3793 C.ar    1  UNL1       -0.0426
     12 C          -1.8550    3.1506   -0.9087 C.3     1  UNL1       -0.0391
     13 C          -2.3080   -1.6502   -0.1303 C.2     1  UNL1        0.3046
     14 O          -1.6152   -2.5002    0.5191 O.2     1  UNL1       -0.2524
     15 N          -3.6997   -1.6121   -0.2795 N.am    1  UNL1       -0.2916
     16 C          -4.4233   -0.6091   -1.0377 C.3     1  UNL1        0.0043
     17 C          -4.3868   -2.6899    0.4058 C.3     1  UNL1        0.0043
     18 C           2.4320   -1.2372   -0.0059 C.ar    1  UNL1       -0.0350
     19 C           2.6215   -1.8701    1.2216 C.ar    1  UNL1       -0.0164
     20 C           3.8361   -2.4005    1.5989 C.ar    1  UNL1        0.1171
     21 O           3.9954   -3.0295    2.8367 O.3     1  UNL1       -0.5068
     22 C           4.9462   -2.3325    0.7697 C.ar    1  UNL1       -0.0202
     23 C           4.8111   -1.7158   -0.4568 C.ar    1  UNL1       -0.0580
     24 C           3.5631   -1.1936   -0.7962 C.ar    1  UNL1       -0.0577
     25 H           1.1859   -0.7086   -1.5865 H       1  UNL1        0.0413
     26 H          -0.0343   -1.5336    1.0394 H       1  UNL1        0.0474
     27 H           0.0644   -2.5392   -0.4194 H       1  UNL1        0.0474
     28 H          -0.6425    0.1479   -2.3885 H       1  UNL1        0.0514
     29 H          -2.1174    0.7725   -1.5583 H       1  UNL1        0.0514
     30 H           2.7121    1.0550    0.9859 H       1  UNL1        0.0621
     31 H           2.1454    3.4453    1.4605 H       1  UNL1        0.0620
     32 H          -0.0372    5.3427   -0.3158 H       1  UNL1        0.0278
     33 H          -1.0279    4.9272    1.1810 H       1  UNL1        0.0278
     34 H           0.7093    5.2358    1.2835 H       1  UNL1        0.0278
     35 H          -1.9584    4.1964   -0.5361 H       1  UNL1        0.0278
     36 H          -2.7603    2.6294   -0.6105 H       1  UNL1        0.0278
     37 H          -1.8160    3.2032   -2.0179 H       1  UNL1        0.0278
     38 H          -4.3087    0.4145   -0.6478 H       1  UNL1        0.0429
     39 H          -4.0080   -0.6079   -2.0865 H       1  UNL1        0.0429
     40 H          -5.5034   -0.9173   -1.0622 H       1  UNL1        0.0429
     41 H          -5.3646   -2.2702    0.7340 H       1  UNL1        0.0429
     42 H          -3.8708   -3.0209    1.3341 H       1  UNL1        0.0429
     43 H          -4.4953   -3.5869   -0.2344 H       1  UNL1        0.0429
     44 H           1.7746   -1.9392    1.8909 H       1  UNL1        0.0657
     45 H           4.0875   -4.0557    2.8726 H       1  UNL1        0.2921
     46 H           5.9108   -2.7163    0.9899 H       1  UNL1        0.0654
     47 H           5.6107   -1.6123   -1.1699 H       1  UNL1        0.0619
     48 H           3.4501   -0.7035   -1.7673 H       1  UNL1        0.0621
@<TRIPOS>BOND
     1     1     2    1
     2     2     3    1
     3     3     4    1
     4     4     5    1
     5     5     6   ar
     6     6     7   ar
     7     7     8   ar
     8     8     9   ar
     9     9    10    1
    10     9    11   ar
    11    11    12    1
    12     3    13   am
    13    13    14    2
    14    13    15   am
    15    15    16    1
    16    15    17    1
    17     1    18    1
    18    18    19   ar
    19    19    20   ar
    20    20    21    1
    21    20    22   ar
    22    22    23   ar
    23    23    24   ar
    24     6     1    1
    25    24    18   ar
    26    11     5   ar
    27     1    25    1
    28     2    26    1
    29     2    27    1
    30     4    28    1
    31     4    29    1
    32     7    30    1
    33     8    31    1
    34    10    32    1
    35    10    33    1
    36    10    34    1
    37    12    35    1
    38    12    36    1
    39    12    37    1
    40    16    38    1
    41    16    39    1
    42    16    40    1
    43    17    41    1
    44    17    42    1
    45    17    43    1
    46    19    44    1
    47    21    45    1
    48    22    46    1
    49    23    47    1
    50    24    48    1
