
     RDKit          3D

 48 50  0  0  0  0  0  0  0  0999 V2000
    1.1690   -0.6565   -0.4604 C   0  0  1  0  0  0  0  0  0  0  0  0
   -0.0351   -1.4760   -0.0504 C   0  0  0  0  0  0  0  0  0  0  0  0
   -1.2274   -0.8473   -0.5907 N   0  0  0  0  0  0  0  0  0  0  0  0
   -1.1217    0.3651   -1.4204 C   0  0  0  0  0  0  0  0  0  0  0  0
   -0.2351    1.2771   -0.6133 C   0  0  0  0  0  0  0  0  0  0  0  0
    0.9418    0.7467   -0.1218 C   0  0  0  0  0  0  0  0  0  0  0  0
    1.8054    1.5214    0.6265 C   0  0  0  0  0  0  0  0  0  0  0  0
    1.4692    2.8333    0.8727 C   0  0  0  0  0  0  0  0  0  0  0  0
    0.2780    3.3771    0.3777 C   0  0  0  0  0  0  0  0  0  0  0  0
   -0.0758    4.8036    0.6521 C   0  0  0  0  0  0  0  0  0  0  0  0
   -0.5919    2.5874   -0.3793 C   0  0  0  0  0  0  0  0  0  0  0  0
   -1.8550    3.1506   -0.9087 C   0  0  0  0  0  0  0  0  0  0  0  0
   -2.3080   -1.6502   -0.1303 C   0  0  0  0  0  0  0  0  0  0  0  0
   -1.6152   -2.5002    0.5191 O   0  0  0  0  0  0  0  0  0  0  0  0
   -3.6997   -1.6121   -0.2795 N   0  0  0  0  0  0  0  0  0  0  0  0
   -4.4233   -0.6091   -1.0377 C   0  0  0  0  0  0  0  0  0  0  0  0
   -4.3868   -2.6899    0.4058 C   0  0  0  0  0  0  0  0  0  0  0  0
    2.4320   -1.2372   -0.0059 C   0  0  0  0  0  0  0  0  0  0  0  0
    2.6215   -1.8701    1.2216 C   0  0  0  0  0  0  0  0  0  0  0  0
    3.8361   -2.4005    1.5989 C   0  0  0  0  0  0  0  0  0  0  0  0
    3.9954   -3.0295    2.8367 O   0  0  0  0  0  0  0  0  0  0  0  0
    4.9462   -2.3325    0.7697 C   0  0  0  0  0  0  0  0  0  0  0  0
    4.8111   -1.7158   -0.4568 C   0  0  0  0  0  0  0  0  0  0  0  0
    3.5631   -1.1936   -0.7962 C   0  0  0  0  0  0  0  0  0  0  0  0
    1.1859   -0.7086   -1.5865 H   0  0  0  0  0  0  0  0  0  0  0  0
   -0.0343   -1.5336    1.0394 H   0  0  0  0  0  0  0  0  0  0  0  0
    0.0644   -2.5392   -0.4194 H   0  0  0  0  0  0  0  0  0  0  0  0
   -0.6425    0.1479   -2.3885 H   0  0  0  0  0  0  0  0  0  0  0  0
   -2.1174    0.7725   -1.5583 H   0  0  0  0  0  0  0  0  0  0  0  0
    2.7121    1.0550    0.9859 H   0  0  0  0  0  0  0  0  0  0  0  0
    2.1454    3.4453    1.4605 H   0  0  0  0  0  0  0  0  0  0  0  0
   -0.0372    5.3427   -0.3158 H   0  0  0  0  0  0  0  0  0  0  0  0
   -1.0279    4.9272    1.1810 H   0  0  0  0  0  0  0  0  0  0  0  0
    0.7093    5.2358    1.2835 H   0  0  0  0  0  0  0  0  0  0  0  0
   -1.9584    4.1964   -0.5361 H   0  0  0  0  0  0  0  0  0  0  0  0
   -2.7603    2.6294   -0.6105 H   0  0  0  0  0  0  0  0  0  0  0  0
   -1.8160    3.2032   -2.0179 H   0  0  0  0  0  0  0  0  0  0  0  0
   -4.3087    0.4145   -0.6478 H   0  0  0  0  0  0  0  0  0  0  0  0
   -4.0080   -0.6079   -2.0865 H   0  0  0  0  0  0  0  0  0  0  0  0
   -5.5034   -0.9173   -1.0622 H   0  0  0  0  0  0  0  0  0  0  0  0
   -5.3646   -2.2702    0.7340 H   0  0  0  0  0  0  0  0  0  0  0  0
   -3.8708   -3.0209    1.3341 H   0  0  0  0  0  0  0  0  0  0  0  0
   -4.4953   -3.5869   -0.2344 H   0  0  0  0  0  0  0  0  0  0  0  0
    1.7746   -1.9392    1.8909 H   0  0  0  0  0  0  0  0  0  0  0  0
    4.0875   -4.0557    2.8726 H   0  0  0  0  0  0  0  0  0  0  0  0
    5.9108   -2.7163    0.9899 H   0  0  0  0  0  0  0  0  0  0  0  0
    5.6107   -1.6123   -1.1699 H   0  0  0  0  0  0  0  0  0  0  0  0
    3.4501   -0.7035   -1.7673 H   0  0  0  0  0  0  0  0  0  0  0  0
  1  2  1  0
  2  3  1  0
  3  4  1  0
  4  5  1  0
  5  6  2  0
  6  7  1  0
  7  8  2  0
  8  9  1  0
  9 10  1  0
  9 11  2  0
 11 12  1  0
  3 13  1  0
 13 14  2  0
 13 15  1  0
 15 16  1  0
 15 17  1  0
  1 18  1  0
 18 19  2  0
 19 20  1  0
 20 21  1  0
 20 22  2  0
 22 23  1  0
 23 24  2  0
  6  1  1  0
 24 18  1  0
 11  5  1  0
  1 25  1  6
  2 26  1  0
  2 27  1  0
  4 28  1  0
  4 29  1  0
  7 30  1  0
  8 31  1  0
 10 32  1  0
 10 33  1  0
 10 34  1  0
 12 35  1  0
 12 36  1  0
 12 37  1  0
 16 38  1  0
 16 39  1  0
 16 40  1  0
 17 41  1  0
 17 42  1  0
 17 43  1  0
 19 44  1  0
 21 45  1  0
 22 46  1  0
 23 47  1  0
 24 48  1  0
M  END
$$$$
