@<TRIPOS>MOLECULE
*****
 24 26 0 0 0
SMALL
GASTEIGER

@<TRIPOS>ATOM
      1 CL         -0.7039    0.4881   -2.8701 Cl      1  UNL1       -0.0801
      2 C          -1.5528    0.3985   -1.3441 C.ar    1  UNL1        0.0795
      3 C          -1.1534   -0.3933   -0.2927 C.ar    1  UNL1        0.1382
      4 N           0.0246   -1.1409   -0.5600 N.pl3   1  UNL1       -0.2030
      5 C           1.3459   -0.6751   -0.2927 C.cat   1  UNL1        0.3695
      6 N           1.5966    0.1949    0.6240 N.2     1  UNL1       -0.1140
      7 C           3.0169    0.4950    0.6893 C.3     1  UNL1        0.1328
      8 C           3.4866    0.0626   -0.6875 C.3     1  UNL1        0.0920
      9 N           2.5680   -1.0473   -0.9349 N.pl3   1  UNL1       -0.2350
     10 C          -1.8535   -0.4155    0.8562 C.ar    1  UNL1        0.1375
     11 N          -1.3809   -1.2744    1.9350 N.ar    1  UNL1       -0.1874
     12 S          -2.6315   -0.9266    3.1647 S.2     1  UNL1        0.1166
     13 N          -3.5995    0.1943    2.3097 N.ar    1  UNL1       -0.1907
     14 C          -2.9552    0.3518    0.9616 C.ar    1  UNL1        0.1032
     15 C          -3.3809    1.1459   -0.0534 C.ar    1  UNL1       -0.0319
     16 C          -2.6649    1.1654   -1.2215 C.ar    1  UNL1       -0.0381
     17 H          -0.0771   -2.1088   -0.9860 H       1  UNL1        0.2513
     18 H           3.5556   -0.1964    1.4016 H       1  UNL1        0.0723
     19 H           3.2318    1.5569    0.9034 H       1  UNL1        0.0723
     20 H           4.5359   -0.2491   -0.7212 H       1  UNL1        0.0665
     21 H           3.2345    0.8340   -1.4583 H       1  UNL1        0.0665
     22 H           2.6584   -1.9707   -1.4531 H       1  UNL1        0.2445
     23 H          -4.2750    1.7059    0.1652 H       1  UNL1        0.0640
     24 H          -3.0262    1.8047   -2.0094 H       1  UNL1        0.0634
@<TRIPOS>BOND
     1     1     2    1
     2     2     3   ar
     3     3     4    1
     4     4     5    1
     5     5     6    2
     6     6     7    1
     7     7     8    1
     8     8     9    1
     9     3    10   ar
    10    10    11   ar
    11    11    12   ar
    12    12    13   ar
    13    13    14   ar
    14    14    15   ar
    15    15    16   ar
    16    16     2   ar
    17     9     5    1
    18    14    10   ar
    19     4    17    1
    20     7    18    1
    21     7    19    1
    22     8    20    1
    23     8    21    1
    24     9    22    1
    25    15    23    1
    26    16    24    1
