
     RDKit          3D

 51 53  0  0  0  0  0  0  0  0999 V2000
   -2.0805   -1.8516    1.6866 C   0  0  0  0  0  0  0  0  0  0  0  0
   -2.7673   -0.8772    0.9045 O   0  0  0  0  0  0  0  0  0  0  0  0
   -2.1178   -0.1305   -0.0495 C   0  0  0  0  0  0  0  0  0  0  0  0
   -2.9557    0.7572   -0.6972 C   0  0  0  0  0  0  0  0  0  0  0  0
   -4.3183    0.8988   -0.4291 O   0  0  0  0  0  0  0  0  0  0  0  0
   -5.2426    0.1000   -1.1534 C   0  0  0  0  0  0  0  0  0  0  0  0
   -2.4543    1.5943   -1.6983 C   0  0  0  0  0  0  0  0  0  0  0  0
   -3.2869    2.5006   -2.3665 O   0  0  0  0  0  0  0  0  0  0  0  0
   -3.9797    2.1454   -3.5478 C   0  0  0  0  0  0  0  0  0  0  0  0
   -1.1085    1.5284   -2.0380 C   0  0  0  0  0  0  0  0  0  0  0  0
   -0.4978    2.5901   -3.3000 Cl  0  0  0  0  0  0  0  0  0  0  0  0
   -0.2635    0.6276   -1.3793 C   0  0  0  0  0  0  0  0  0  0  0  0
    1.1777    0.5512   -1.7391 C   0  0  0  0  0  0  0  0  0  0  0  0
    1.9369   -0.4317   -0.9618 C   0  0  0  0  0  0  0  0  0  0  0  0
    2.0939   -1.7327   -1.3005 N   0  0  0  0  0  0  0  0  0  0  0  0
    2.8469   -2.2983   -0.3447 C   0  0  0  0  0  0  0  0  0  0  0  0
    3.2650   -3.6173   -0.2712 C   0  0  0  0  0  0  0  0  0  0  0  0
    2.9188   -4.5755   -1.2644 N   0  0  0  0  0  0  0  0  0  0  0  0
    4.0193   -3.9295    0.8016 N   0  0  0  0  0  0  0  0  0  0  0  0
    4.3264   -2.9790    1.7285 C   0  0  0  0  0  0  0  0  0  0  0  0
    3.9192   -1.6834    1.6618 N   0  0  0  0  0  0  0  0  0  0  0  0
    3.1611   -1.3401    0.5969 C   0  0  0  0  0  0  0  0  0  0  0  0
    2.5800   -0.1754    0.1906 N   0  0  0  0  0  0  0  0  0  0  0  0
    2.7146    1.0256    0.9508 C   0  0  0  0  0  0  0  0  0  0  0  0
    1.6612    1.2512    1.9857 C   0  0  0  0  0  0  0  0  0  0  0  0
    2.0222    2.5844    2.6555 C   0  0  0  0  0  0  0  0  0  0  0  0
    1.0800    2.9365    3.6900 C   0  0  0  0  0  0  0  0  0  0  0  0
    0.3114    3.2252    4.5641 C   0  0  0  0  0  0  0  0  0  0  0  0
   -0.7879   -0.1847   -0.3964 C   0  0  0  0  0  0  0  0  0  0  0  0
   -1.6072   -2.5526    0.9723 H   0  0  0  0  0  0  0  0  0  0  0  0
   -2.7810   -2.3431    2.3743 H   0  0  0  0  0  0  0  0  0  0  0  0
   -1.2902   -1.2900    2.2567 H   0  0  0  0  0  0  0  0  0  0  0  0
   -5.8748   -0.4771   -0.4310 H   0  0  0  0  0  0  0  0  0  0  0  0
   -5.9675    0.7255   -1.7288 H   0  0  0  0  0  0  0  0  0  0  0  0
   -4.7424   -0.6548   -1.8051 H   0  0  0  0  0  0  0  0  0  0  0  0
   -3.9502    1.0485   -3.6731 H   0  0  0  0  0  0  0  0  0  0  0  0
   -5.0318    2.4418   -3.4066 H   0  0  0  0  0  0  0  0  0  0  0  0
   -3.4907    2.6204   -4.4022 H   0  0  0  0  0  0  0  0  0  0  0  0
    1.6285    1.5629   -1.6647 H   0  0  0  0  0  0  0  0  0  0  0  0
    1.2073    0.2509   -2.8112 H   0  0  0  0  0  0  0  0  0  0  0  0
    2.2581   -4.2697   -2.0123 H   0  0  0  0  0  0  0  0  0  0  0  0
    3.3493   -5.5226   -1.1792 H   0  0  0  0  0  0  0  0  0  0  0  0
    4.9411   -3.3960    2.5286 H   0  0  0  0  0  0  0  0  0  0  0  0
    2.6882    1.9301    0.2770 H   0  0  0  0  0  0  0  0  0  0  0  0
    3.6986    1.1116    1.4669 H   0  0  0  0  0  0  0  0  0  0  0  0
    1.6355    0.4857    2.7743 H   0  0  0  0  0  0  0  0  0  0  0  0
    0.6352    1.3480    1.6081 H   0  0  0  0  0  0  0  0  0  0  0  0
    3.0638    2.5051    3.0269 H   0  0  0  0  0  0  0  0  0  0  0  0
    2.0155    3.3612    1.8655 H   0  0  0  0  0  0  0  0  0  0  0  0
   -0.3636    3.4983    5.3400 H   0  0  0  0  0  0  0  0  0  0  0  0
   -0.1957   -0.8937    0.1441 H   0  0  0  0  0  0  0  0  0  0  0  0
  1  2  1  0
  2  3  1  0
  3  4  2  0
  4  5  1  0
  5  6  1  0
  4  7  1  0
  7  8  1  0
  8  9  1  0
  7 10  2  0
 10 11  1  0
 10 12  1  0
 12 13  1  0
 13 14  1  0
 14 15  2  0
 15 16  1  0
 16 17  2  0
 17 18  1  0
 17 19  1  0
 19 20  2  0
 20 21  1  0
 21 22  2  0
 22 23  1  0
 23 24  1  0
 24 25  1  0
 25 26  1  0
 26 27  1  0
 27 28  3  0
 12 29  2  0
 29  3  1  0
 23 14  1  0
 22 16  1  0
  1 30  1  0
  1 31  1  0
  1 32  1  0
  6 33  1  0
  6 34  1  0
  6 35  1  0
  9 36  1  0
  9 37  1  0
  9 38  1  0
 13 39  1  0
 13 40  1  0
 18 41  1  0
 18 42  1  0
 20 43  1  0
 24 44  1  0
 24 45  1  0
 25 46  1  0
 25 47  1  0
 26 48  1  0
 26 49  1  0
 28 50  1  0
 29 51  1  0
M  END
$$$$
