@<TRIPOS>MOLECULE
*****
 51 53 0 0 0
SMALL
GASTEIGER

@<TRIPOS>ATOM
      1 C          -2.0805   -1.8516    1.6866 C.3     1  UNL1        0.0790
      2 O          -2.7673   -0.8772    0.9045 O.3     1  UNL1       -0.4913
      3 C          -2.1178   -0.1305   -0.0495 C.ar    1  UNL1        0.1655
      4 C          -2.9557    0.7572   -0.6972 C.ar    1  UNL1        0.2050
      5 O          -4.3183    0.8988   -0.4291 O.3     1  UNL1       -0.4885
      6 C          -5.2426    0.1000   -1.1534 C.3     1  UNL1        0.0791
      7 C          -2.4543    1.5943   -1.6983 C.ar    1  UNL1        0.1838
      8 O          -3.2869    2.5006   -2.3665 O.3     1  UNL1       -0.4900
      9 C          -3.9797    2.1454   -3.5478 C.3     1  UNL1        0.0790
     10 C          -1.1085    1.5284   -2.0380 C.ar    1  UNL1        0.0900
     11 CL         -0.4978    2.5901   -3.3000 Cl      1  UNL1       -0.0793
     12 C          -0.2635    0.6276   -1.3793 C.ar    1  UNL1       -0.0146
     13 C           1.1777    0.5512   -1.7391 C.3     1  UNL1        0.0325
     14 C           1.9369   -0.4317   -0.9618 C.ar    1  UNL1        0.1164
     15 N           2.0939   -1.7327   -1.3005 N.ar    1  UNL1       -0.2268
     16 C           2.8469   -2.2983   -0.3447 C.ar    1  UNL1        0.1475
     17 C           3.2650   -3.6173   -0.2712 C.ar    1  UNL1        0.1472
     18 N           2.9188   -4.5755   -1.2644 N.pl3   1  UNL1       -0.3413
     19 N           4.0193   -3.9295    0.8016 N.ar    1  UNL1       -0.2188
     20 C           4.3264   -2.9790    1.7285 C.ar    1  UNL1        0.1205
     21 N           3.9192   -1.6834    1.6618 N.ar    1  UNL1       -0.2160
     22 C           3.1611   -1.3401    0.5969 C.ar    1  UNL1        0.1655
     23 N           2.5800   -0.1754    0.1906 N.ar    1  UNL1       -0.3120
     24 C           2.7146    1.0256    0.9508 C.3     1  UNL1        0.0272
     25 C           1.6612    1.2512    1.9857 C.3     1  UNL1       -0.0240
     26 C           2.0222    2.5844    2.6555 C.3     1  UNL1        0.0105
     27 C           1.0800    2.9365    3.6900 C.1     1  UNL1       -0.1055
     28 C           0.3114    3.2252    4.5641 C.1     1  UNL1       -0.1192
     29 C          -0.7879   -0.1847   -0.3964 C.ar    1  UNL1       -0.0111
     30 H          -1.6072   -2.5526    0.9723 H       1  UNL1        0.0660
     31 H          -2.7810   -2.3431    2.3743 H       1  UNL1        0.0660
     32 H          -1.2902   -1.2900    2.2567 H       1  UNL1        0.0660
     33 H          -5.8748   -0.4771   -0.4310 H       1  UNL1        0.0660
     34 H          -5.9675    0.7255   -1.7288 H       1  UNL1        0.0660
     35 H          -4.7424   -0.6548   -1.8051 H       1  UNL1        0.0660
     36 H          -3.9502    1.0485   -3.6731 H       1  UNL1        0.0660
     37 H          -5.0318    2.4418   -3.4066 H       1  UNL1        0.0660
     38 H          -3.4907    2.6204   -4.4022 H       1  UNL1        0.0660
     39 H           1.6285    1.5629   -1.6647 H       1  UNL1        0.0392
     40 H           1.2073    0.2509   -2.8112 H       1  UNL1        0.0392
     41 H           2.2581   -4.2697   -2.0123 H       1  UNL1        0.1438
     42 H           3.3493   -5.5226   -1.1792 H       1  UNL1        0.1438
     43 H           4.9411   -3.3960    2.5286 H       1  UNL1        0.1048
     44 H           2.6882    1.9301    0.2770 H       1  UNL1        0.0493
     45 H           3.6986    1.1116    1.4669 H       1  UNL1        0.0493
     46 H           1.6355    0.4857    2.7743 H       1  UNL1        0.0291
     47 H           0.6352    1.3480    1.6081 H       1  UNL1        0.0291
     48 H           3.0638    2.5051    3.0269 H       1  UNL1        0.0398
     49 H           2.0155    3.3612    1.8655 H       1  UNL1        0.0398
     50 H          -0.3636    3.4983    5.3400 H       1  UNL1        0.1228
     51 H          -0.1957   -0.8937    0.1441 H       1  UNL1        0.0659
@<TRIPOS>BOND
     1     1     2    1
     2     2     3    1
     3     3     4   ar
     4     4     5    1
     5     5     6    1
     6     4     7   ar
     7     7     8    1
     8     8     9    1
     9     7    10   ar
    10    10    11    1
    11    10    12   ar
    12    12    13    1
    13    13    14    1
    14    14    15   ar
    15    15    16   ar
    16    16    17   ar
    17    17    18    1
    18    17    19   ar
    19    19    20   ar
    20    20    21   ar
    21    21    22   ar
    22    22    23   ar
    23    23    24    1
    24    24    25    1
    25    25    26    1
    26    26    27    1
    27    27    28    3
    28    12    29   ar
    29    29     3   ar
    30    23    14   ar
    31    22    16   ar
    32     1    30    1
    33     1    31    1
    34     1    32    1
    35     6    33    1
    36     6    34    1
    37     6    35    1
    38     9    36    1
    39     9    37    1
    40     9    38    1
    41    13    39    1
    42    13    40    1
    43    18    41    1
    44    18    42    1
    45    20    43    1
    46    24    44    1
    47    24    45    1
    48    25    46    1
    49    25    47    1
    50    26    48    1
    51    26    49    1
    52    28    50    1
    53    29    51    1
