@<TRIPOS>MOLECULE
*****
 63 67 0 0 0
SMALL
GASTEIGER

@<TRIPOS>ATOM
      1 C          -7.2316    1.2230    1.9641 C.3     1  UNL1        0.0029
      2 N          -7.0948    1.9488    0.7341 N.am    1  UNL1       -0.3064
      3 C          -7.8062    3.1812    0.5407 C.3     1  UNL1        0.0029
      4 C          -6.2602    1.4561   -0.2896 C.2     1  UNL1        0.2319
      5 O          -6.1383    2.1006   -1.3875 O.2     1  UNL1       -0.2741
      6 C          -5.5171    0.1754   -0.0849 C.3     1  UNL1        0.1054
      7 C          -4.5619    0.2076    1.1016 C.3     1  UNL1       -0.0220
      8 C          -4.0853    0.1748   -0.3342 C.3     1  UNL1        0.0134
      9 C          -3.4249   -0.9492   -0.9123 C.3     1  UNL1        0.0935
     10 C          -2.5810   -0.3574   -2.1196 C.3     1  UNL1       -0.0351
     11 C          -2.3810   -1.5419   -0.0506 C.ar    1  UNL1        0.0158
     12 C          -1.0506   -1.1070   -0.1295 C.ar    1  UNL1       -0.0463
     13 C          -0.0512   -1.5678    0.6936 C.ar    1  UNL1       -0.0217
     14 C           1.3386   -1.1443    0.6408 C.2     1  UNL1       -0.0171
     15 C           2.0086   -0.8840   -0.4684 C.2     1  UNL1        0.1507
     16 F           1.2910   -1.0413   -1.6317 F       1  UNL1       -0.2032
     17 C           3.3963   -0.4631   -0.5075 C.ar    1  UNL1        0.1172
     18 C           4.2029   -0.2799    0.5871 C.ar    1  UNL1        0.0596
     19 N           5.4884    0.1099    0.5243 N.ar    1  UNL1       -0.2178
     20 C           6.0298    0.3371   -0.6690 C.ar    1  UNL1        0.2335
     21 O           7.3527    0.7400   -0.7737 O.3     1  UNL1       -0.4749
     22 C           8.1848    0.9288    0.3526 C.3     1  UNL1        0.0983
     23 C           9.5584    1.3670   -0.1055 C.3     1  UNL1        0.0400
     24 C          10.4923    1.5853    1.0462 C.3     1  UNL1        0.0557
     25 O          11.3755    0.6809    0.4485 O.3     1  UNL1       -0.3788
     26 C          10.4731    0.2597   -0.5346 C.3     1  UNL1        0.0557
     27 C           5.2629    0.1683   -1.8078 C.ar    1  UNL1        0.0898
     28 N           3.9653   -0.2269   -1.7109 N.ar    1  UNL1       -0.2459
     29 C          -0.4090   -2.5078    1.6377 C.ar    1  UNL1       -0.0518
     30 C          -1.7166   -2.9621    1.7439 C.ar    1  UNL1       -0.0255
     31 C          -2.6905   -2.4974    0.9220 C.ar    1  UNL1        0.1289
     32 F          -3.9664   -2.9484    0.9429 F       1  UNL1       -0.2051
     33 N          -4.1167   -1.9999   -1.5826 N.2     1  UNL1       -0.2521
     34 C          -5.3533   -2.2974   -1.5332 C.2     1  UNL1        0.1485
     35 N          -5.9406   -3.3681   -2.2437 N.pl3   1  UNL1       -0.3380
     36 S          -6.4119   -1.3031   -0.4994 S.3     1  UNL1       -0.0746
     37 H          -6.9705    0.1619    1.7698 H       1  UNL1        0.0428
     38 H          -8.2752    1.2246    2.3402 H       1  UNL1        0.0428
     39 H          -6.5411    1.6064    2.7632 H       1  UNL1        0.0428
     40 H          -8.5975    3.0059   -0.2157 H       1  UNL1        0.0428
     41 H          -8.2052    3.5382    1.5129 H       1  UNL1        0.0428
     42 H          -7.0824    3.9107    0.1030 H       1  UNL1        0.0428
     43 H          -4.4624    1.2092    1.6350 H       1  UNL1        0.0287
     44 H          -4.6411   -0.6708    1.7348 H       1  UNL1        0.0287
     45 H          -3.6820    1.1981   -0.6734 H       1  UNL1        0.0346
     46 H          -2.1934    0.6190   -1.8044 H       1  UNL1        0.0256
     47 H          -3.2618   -0.2074   -2.9642 H       1  UNL1        0.0256
     48 H          -1.7963   -1.0368   -2.4045 H       1  UNL1        0.0256
     49 H          -0.7401   -0.3634   -0.8569 H       1  UNL1        0.0628
     50 H           1.8492   -1.0391    1.6014 H       1  UNL1        0.0653
     51 H           3.7862   -0.4570    1.5651 H       1  UNL1        0.0853
     52 H           7.7450    1.7443    0.9942 H       1  UNL1        0.0701
     53 H           8.2559    0.0457    1.0032 H       1  UNL1        0.0701
     54 H           9.4748    2.2301   -0.8003 H       1  UNL1        0.0378
     55 H          10.1500    1.1987    2.0149 H       1  UNL1        0.0564
     56 H          10.8778    2.6329    1.0729 H       1  UNL1        0.0564
     57 H          10.0390   -0.7403   -0.3770 H       1  UNL1        0.0564
     58 H          10.8655    0.3415   -1.5658 H       1  UNL1        0.0564
     59 H           5.7489    0.3655   -2.7534 H       1  UNL1        0.0884
     60 H           0.3427   -2.8982    2.3074 H       1  UNL1        0.0624
     61 H          -2.0091   -3.7111    2.4943 H       1  UNL1        0.0646
     62 H          -6.3664   -4.1504   -1.7278 H       1  UNL1        0.1442
     63 H          -5.9420   -3.3637   -3.2728 H       1  UNL1        0.1442
@<TRIPOS>BOND
     1     1     2    1
     2     2     3    1
     3     2     4   am
     4     4     5    2
     5     6     4    1
     6     6     7    1
     7     7     8    1
     8     8     9    1
     9     9    10    1
    10     9    11    1
    11    11    12   ar
    12    12    13   ar
    13    13    14    1
    14    14    15    2
    15    15    16    1
    16    15    17    1
    17    17    18   ar
    18    18    19   ar
    19    19    20   ar
    20    20    21    1
    21    21    22    1
    22    22    23    1
    23    23    24    1
    24    24    25    1
    25    25    26    1
    26    20    27   ar
    27    27    28   ar
    28    13    29   ar
    29    29    30   ar
    30    30    31   ar
    31    31    32    1
    32     9    33    1
    33    33    34    2
    34    34    35    1
    35    34    36    1
    36     8     6    1
    37    31    11   ar
    38    36     6    1
    39    28    17   ar
    40    26    23    1
    41     1    37    1
    42     1    38    1
    43     1    39    1
    44     3    40    1
    45     3    41    1
    46     3    42    1
    47     7    43    1
    48     7    44    1
    49     8    45    1
    50    10    46    1
    51    10    47    1
    52    10    48    1
    53    12    49    1
    54    14    50    1
    55    18    51    1
    56    22    52    1
    57    22    53    1
    58    23    54    1
    59    24    55    1
    60    24    56    1
    61    26    57    1
    62    26    58    1
    63    27    59    1
    64    29    60    1
    65    30    61    1
    66    35    62    1
    67    35    63    1
