@<TRIPOS>MOLECULE
*****
 67 70 0 0 0
SMALL
GASTEIGER

@<TRIPOS>ATOM
      1 O           4.4656   -1.5564   -0.5858 O.2     1  UNL1       -0.2702
      2 C           3.7781   -0.5014   -0.3660 C.2     1  UNL1        0.2444
      3 N           3.2023   -0.4209    0.9308 N.am    1  UNL1       -0.3050
      4 C           3.3843   -1.4711    1.9408 C.3     1  UNL1        0.0604
      5 C           4.2053   -0.8556    3.0451 C.3     1  UNL1       -0.0311
      6 C           5.0739   -1.8356    3.7648 C.3     1  UNL1       -0.0513
      7 C           4.3300   -2.5691    4.8661 C.3     1  UNL1       -0.0529
      8 C           3.1304   -3.2579    4.2552 C.3     1  UNL1       -0.0496
      9 C           2.0540   -2.2840    3.9118 C.3     1  UNL1       -0.0139
     10 C           2.0580   -2.0014    2.4184 C.3     1  UNL1        0.1216
     11 O           0.9714   -1.2129    2.0195 O.3     1  UNL1       -0.4560
     12 C          -0.0499   -1.6344    1.1874 C.2     1  UNL1        0.3397
     13 O           0.0134   -2.8108    0.7662 O.2     1  UNL1       -0.2449
     14 C          -1.1632   -0.7903    0.7929 C.ar    1  UNL1        0.0659
     15 C          -1.2953    0.5182    1.2210 C.ar    1  UNL1       -0.0053
     16 C          -2.3653    1.2668    0.8161 C.ar    1  UNL1        0.1320
     17 O          -2.4769    2.5762    1.2580 O.3     1  UNL1       -0.5059
     18 C          -3.3645    0.7789   -0.0287 C.ar    1  UNL1        0.1050
     19 C          -4.5267    1.5413   -0.3487 C.2     1  UNL1        0.2044
     20 O          -4.8409    2.4697    0.4788 O.2     1  UNL1       -0.2863
     21 C          -5.3885    1.3741   -1.4879 C.ar    1  UNL1        0.0778
     22 C          -6.7799    1.5013   -1.2777 C.ar    1  UNL1        0.1285
     23 O          -7.2319    1.7490   -0.0006 O.3     1  UNL1       -0.5060
     24 C          -7.6748    1.3883   -2.2834 C.ar    1  UNL1       -0.0194
     25 C          -7.2794    1.1407   -3.5819 C.ar    1  UNL1       -0.0575
     26 C          -5.9314    1.0154   -3.8230 C.ar    1  UNL1       -0.0468
     27 C          -5.0008    1.1374   -2.7742 C.ar    1  UNL1        0.0731
     28 C          -3.6310    1.2289   -3.1958 C.2     1  UNL1        0.3376
     29 O          -3.3187    0.8661   -4.3752 O.2     1  UNL1       -0.2451
     30 O          -2.6406    1.7059   -2.3734 O.3     1  UNL1       -0.4771
     31 C          -3.2064   -0.5467   -0.4445 C.ar    1  UNL1        0.1320
     32 O          -4.1525   -1.1343   -1.2837 O.3     1  UNL1       -0.5059
     33 C          -2.1240   -1.3159   -0.0406 C.ar    1  UNL1       -0.0053
     34 C           3.6407    0.4883   -1.4011 C.ar    1  UNL1        0.0369
     35 C           4.2442    0.3011   -2.6163 C.ar    1  UNL1       -0.0462
     36 C           4.1234    1.2534   -3.6401 C.ar    1  UNL1       -0.0195
     37 C           3.3816    2.4018   -3.4185 C.ar    1  UNL1        0.1169
     38 O           3.2636    3.3391   -4.4285 O.3     1  UNL1       -0.5068
     39 C           2.7731    2.5934   -2.1973 C.ar    1  UNL1       -0.0195
     40 C           2.9087    1.6263   -1.1891 C.ar    1  UNL1       -0.0462
     41 H           2.6329    0.4250    1.1517 H       1  UNL1        0.1494
     42 H           4.0185   -2.2451    1.4612 H       1  UNL1        0.0535
     43 H           4.8963   -0.0892    2.5853 H       1  UNL1        0.0284
     44 H           3.6118   -0.3073    3.7862 H       1  UNL1        0.0284
     45 H           5.5086   -2.6198    3.0980 H       1  UNL1        0.0266
     46 H           5.8763   -1.2467    4.2812 H       1  UNL1        0.0266
     47 H           4.0038   -1.8731    5.6645 H       1  UNL1        0.0265
     48 H           4.9960   -3.3273    5.2813 H       1  UNL1        0.0265
     49 H           3.4549   -3.8147    3.3787 H       1  UNL1        0.0266
     50 H           2.7637   -3.9799    5.0376 H       1  UNL1        0.0266
     51 H           2.0420   -1.3810    4.5238 H       1  UNL1        0.0301
     52 H           1.0700   -2.8030    4.1079 H       1  UNL1        0.0301
     53 H           1.9172   -2.9945    1.9360 H       1  UNL1        0.0753
     54 H          -0.5171    0.8854    1.8740 H       1  UNL1        0.0662
     55 H          -2.3937    3.3776    0.6464 H       1  UNL1        0.2922
     56 H          -7.2450    2.6995    0.3777 H       1  UNL1        0.2922
     57 H          -8.7557    1.4816   -2.1518 H       1  UNL1        0.0654
     58 H          -7.9921    1.0469   -4.3864 H       1  UNL1        0.0619
     59 H          -5.5992    0.8182   -4.8473 H       1  UNL1        0.0626
     60 H          -1.7464    2.0407   -2.7099 H       1  UNL1        0.2954
     61 H          -5.0638   -1.3331   -0.8773 H       1  UNL1        0.2922
     62 H          -2.0831   -2.3288   -0.4120 H       1  UNL1        0.0662
     63 H           4.8403   -0.5642   -2.8742 H       1  UNL1        0.0626
     64 H           4.5984    1.1099   -4.6014 H       1  UNL1        0.0654
     65 H           4.0138    3.6102   -5.0502 H       1  UNL1        0.2921
     66 H           2.1935    3.4924   -2.0266 H       1  UNL1        0.0654
     67 H           2.3991    1.8578   -0.2648 H       1  UNL1        0.0626
@<TRIPOS>BOND
     1     1     2    2
     2     2     3   am
     3     3     4    1
     4     4     5    1
     5     5     6    1
     6     6     7    1
     7     7     8    1
     8     8     9    1
     9     9    10    1
    10    10    11    1
    11    11    12    1
    12    12    13    2
    13    12    14    1
    14    14    15   ar
    15    15    16   ar
    16    16    17    1
    17    16    18   ar
    18    18    19    1
    19    19    20    2
    20    19    21    1
    21    21    22   ar
    22    22    23    1
    23    22    24   ar
    24    24    25   ar
    25    25    26   ar
    26    26    27   ar
    27    27    28    1
    28    28    29    2
    29    28    30    1
    30    18    31   ar
    31    31    32    1
    32    31    33   ar
    33     2    34    1
    34    34    35   ar
    35    35    36   ar
    36    36    37   ar
    37    37    38    1
    38    37    39   ar
    39    39    40   ar
    40    10     4    1
    41    33    14   ar
    42    40    34   ar
    43    27    21   ar
    44     3    41    1
    45     4    42    1
    46     5    43    1
    47     5    44    1
    48     6    45    1
    49     6    46    1
    50     7    47    1
    51     7    48    1
    52     8    49    1
    53     8    50    1
    54     9    51    1
    55     9    52    1
    56    10    53    1
    57    15    54    1
    58    17    55    1
    59    23    56    1
    60    24    57    1
    61    25    58    1
    62    26    59    1
    63    30    60    1
    64    32    61    1
    65    33    62    1
    66    35    63    1
    67    36    64    1
    68    38    65    1
    69    39    66    1
    70    40    67    1
