@<TRIPOS>MOLECULE
*****
 37 39 0 0 0
SMALL
GASTEIGER

@<TRIPOS>ATOM
      1 C          -4.2175    0.3102    0.4223 C.3     1  UNL1       -0.0152
      2 N          -3.4493    1.1131   -0.4751 N.3     1  UNL1       -0.3123
      3 C          -2.0241    1.0083   -0.3218 C.3     1  UNL1        0.0329
      4 C          -1.5499    1.3744    1.0522 C.3     1  UNL1       -0.0326
      5 C          -0.0895    1.1885    1.2448 C.3     1  UNL1       -0.0405
      6 C           0.6177    0.7079    0.0204 C.3     1  UNL1        0.0096
      7 C           2.0356    0.4546    0.1567 C.ar    1  UNL1       -0.0385
      8 C           2.5551   -0.0658    1.3156 C.ar    1  UNL1       -0.0565
      9 C           3.9324   -0.3025    1.4236 C.ar    1  UNL1       -0.0417
     10 C           4.7642   -0.0094    0.3578 C.ar    1  UNL1        0.0593
     11 CL          6.4935   -0.3034    0.4853 Cl      1  UNL1       -0.0820
     12 C           4.2540    0.5109   -0.8045 C.ar    1  UNL1        0.0595
     13 CL          5.3469    0.8658   -2.1265 Cl      1  UNL1       -0.0820
     14 C           2.8906    0.7340   -0.8821 C.ar    1  UNL1       -0.0382
     15 C          -0.1133   -0.4925   -0.5037 C.ar    1  UNL1       -0.0353
     16 C           0.5299   -1.6777   -0.7938 C.ar    1  UNL1       -0.0577
     17 C          -0.2270   -2.7277   -1.2744 C.ar    1  UNL1       -0.0615
     18 C          -1.5816   -2.5635   -1.4475 C.ar    1  UNL1       -0.0614
     19 C          -2.2198   -1.3542   -1.1484 C.ar    1  UNL1       -0.0568
     20 C          -1.4678   -0.3132   -0.6715 C.ar    1  UNL1       -0.0267
     21 H          -3.6451   -0.4682    0.9613 H       1  UNL1        0.0388
     22 H          -5.0743   -0.1224   -0.1348 H       1  UNL1        0.0388
     23 H          -4.7074    0.9592    1.2090 H       1  UNL1        0.0388
     24 H          -3.7087    2.1065   -0.4148 H       1  UNL1        0.1222
     25 H          -1.5870    1.7474   -1.0480 H       1  UNL1        0.0510
     26 H          -2.0811    0.6787    1.7653 H       1  UNL1        0.0284
     27 H          -1.9083    2.3903    1.3623 H       1  UNL1        0.0284
     28 H           0.3449    2.1857    1.5111 H       1  UNL1        0.0275
     29 H           0.1366    0.5221    2.1184 H       1  UNL1        0.0275
     30 H           0.4726    1.4835   -0.7917 H       1  UNL1        0.0397
     31 H           1.9764   -0.3219    2.1905 H       1  UNL1        0.0621
     32 H           4.3433   -0.7110    2.3323 H       1  UNL1        0.0633
     33 H           2.5337    1.1491   -1.8279 H       1  UNL1        0.0635
     34 H           1.5967   -1.7945   -0.6533 H       1  UNL1        0.0621
     35 H           0.2739   -3.6510   -1.5004 H       1  UNL1        0.0618
     36 H          -2.1662   -3.3993   -1.8270 H       1  UNL1        0.0618
     37 H          -3.2803   -1.2121   -1.2816 H       1  UNL1        0.0621
@<TRIPOS>BOND
     1     1     2    1
     2     2     3    1
     3     3     4    1
     4     4     5    1
     5     5     6    1
     6     6     7    1
     7     7     8   ar
     8     8     9   ar
     9     9    10   ar
    10    10    11    1
    11    10    12   ar
    12    12    13    1
    13    12    14   ar
    14     6    15    1
    15    15    16   ar
    16    16    17   ar
    17    17    18   ar
    18    18    19   ar
    19    19    20   ar
    20    20     3    1
    21    14     7   ar
    22    20    15   ar
    23     1    21    1
    24     1    22    1
    25     1    23    1
    26     2    24    1
    27     3    25    1
    28     4    26    1
    29     4    27    1
    30     5    28    1
    31     5    29    1
    32     6    30    1
    33     8    31    1
    34     9    32    1
    35    14    33    1
    36    16    34    1
    37    17    35    1
    38    18    36    1
    39    19    37    1
