
     RDKit          3D

 37 39  0  0  0  0  0  0  0  0999 V2000
   -4.2175    0.3102    0.4223 C   0  0  0  0  0  0  0  0  0  0  0  0
   -3.4493    1.1131   -0.4751 N   0  0  0  0  0  0  0  0  0  0  0  0
   -2.0241    1.0083   -0.3218 C   0  0  1  0  0  0  0  0  0  0  0  0
   -1.5499    1.3744    1.0522 C   0  0  0  0  0  0  0  0  0  0  0  0
   -0.0895    1.1885    1.2448 C   0  0  0  0  0  0  0  0  0  0  0  0
    0.6177    0.7079    0.0204 C   0  0  1  0  0  0  0  0  0  0  0  0
    2.0356    0.4546    0.1567 C   0  0  0  0  0  0  0  0  0  0  0  0
    2.5551   -0.0658    1.3156 C   0  0  0  0  0  0  0  0  0  0  0  0
    3.9324   -0.3025    1.4236 C   0  0  0  0  0  0  0  0  0  0  0  0
    4.7642   -0.0094    0.3578 C   0  0  0  0  0  0  0  0  0  0  0  0
    6.4935   -0.3034    0.4853 Cl  0  0  0  0  0  0  0  0  0  0  0  0
    4.2540    0.5109   -0.8045 C   0  0  0  0  0  0  0  0  0  0  0  0
    5.3469    0.8658   -2.1265 Cl  0  0  0  0  0  0  0  0  0  0  0  0
    2.8906    0.7340   -0.8821 C   0  0  0  0  0  0  0  0  0  0  0  0
   -0.1133   -0.4925   -0.5037 C   0  0  0  0  0  0  0  0  0  0  0  0
    0.5299   -1.6777   -0.7938 C   0  0  0  0  0  0  0  0  0  0  0  0
   -0.2270   -2.7277   -1.2744 C   0  0  0  0  0  0  0  0  0  0  0  0
   -1.5816   -2.5635   -1.4475 C   0  0  0  0  0  0  0  0  0  0  0  0
   -2.2198   -1.3542   -1.1484 C   0  0  0  0  0  0  0  0  0  0  0  0
   -1.4678   -0.3132   -0.6715 C   0  0  0  0  0  0  0  0  0  0  0  0
   -3.6451   -0.4682    0.9613 H   0  0  0  0  0  0  0  0  0  0  0  0
   -5.0743   -0.1224   -0.1348 H   0  0  0  0  0  0  0  0  0  0  0  0
   -4.7074    0.9592    1.2090 H   0  0  0  0  0  0  0  0  0  0  0  0
   -3.7087    2.1065   -0.4148 H   0  0  0  0  0  0  0  0  0  0  0  0
   -1.5870    1.7474   -1.0480 H   0  0  0  0  0  0  0  0  0  0  0  0
   -2.0811    0.6787    1.7653 H   0  0  0  0  0  0  0  0  0  0  0  0
   -1.9083    2.3903    1.3623 H   0  0  0  0  0  0  0  0  0  0  0  0
    0.3449    2.1857    1.5111 H   0  0  0  0  0  0  0  0  0  0  0  0
    0.1366    0.5221    2.1184 H   0  0  0  0  0  0  0  0  0  0  0  0
    0.4726    1.4835   -0.7917 H   0  0  0  0  0  0  0  0  0  0  0  0
    1.9764   -0.3219    2.1905 H   0  0  0  0  0  0  0  0  0  0  0  0
    4.3433   -0.7110    2.3323 H   0  0  0  0  0  0  0  0  0  0  0  0
    2.5337    1.1491   -1.8279 H   0  0  0  0  0  0  0  0  0  0  0  0
    1.5967   -1.7945   -0.6533 H   0  0  0  0  0  0  0  0  0  0  0  0
    0.2739   -3.6510   -1.5004 H   0  0  0  0  0  0  0  0  0  0  0  0
   -2.1662   -3.3993   -1.8270 H   0  0  0  0  0  0  0  0  0  0  0  0
   -3.2803   -1.2121   -1.2816 H   0  0  0  0  0  0  0  0  0  0  0  0
  1  2  1  0
  2  3  1  0
  3  4  1  0
  4  5  1  0
  5  6  1  0
  6  7  1  0
  7  8  2  0
  8  9  1  0
  9 10  2  0
 10 11  1  0
 10 12  1  0
 12 13  1  0
 12 14  2  0
  6 15  1  0
 15 16  2  0
 16 17  1  0
 17 18  2  0
 18 19  1  0
 19 20  2  0
 20  3  1  0
 14  7  1  0
 20 15  1  0
  1 21  1  0
  1 22  1  0
  1 23  1  0
  2 24  1  0
  3 25  1  6
  4 26  1  0
  4 27  1  0
  5 28  1  0
  5 29  1  0
  6 30  1  6
  8 31  1  0
  9 32  1  0
 14 33  1  0
 16 34  1  0
 17 35  1  0
 18 36  1  0
 19 37  1  0
M  END
$$$$
