
     RDKit          3D

 51 54  0  0  0  0  0  0  0  0999 V2000
    5.7726    2.6784    0.4340 O   0  0  0  0  0  0  0  0  0  0  0  0
    5.0318    1.7421    0.0580 C   0  0  0  0  0  0  0  0  0  0  0  0
    3.6592    1.8884   -0.0036 O   0  0  0  0  0  0  0  0  0  0  0  0
    5.6416    0.4773   -0.3197 C   0  0  0  0  0  0  0  0  0  0  0  0
    7.0264    0.2976   -0.2684 C   0  0  0  0  0  0  0  0  0  0  0  0
    7.5669   -0.9219   -0.6364 C   0  0  0  0  0  0  0  0  0  0  0  0
    6.7680   -1.9586   -1.0511 C   0  0  0  0  0  0  0  0  0  0  0  0
    5.3958   -1.7533   -1.0927 C   0  0  0  0  0  0  0  0  0  0  0  0
    4.8273   -0.5543   -0.7339 C   0  0  0  0  0  0  0  0  0  0  0  0
    3.4186   -0.3815   -0.7894 N   0  0  0  0  0  0  0  0  0  0  0  0
    2.6519   -0.6944    0.3548 C   0  0  0  0  0  0  0  0  0  0  0  0
    3.1711   -1.1198    1.4197 O   0  0  0  0  0  0  0  0  0  0  0  0
    1.2281   -0.5244    0.3121 N   0  0  0  0  0  0  0  0  0  0  0  0
    0.4512   -0.0486   -0.8173 C   0  0  0  0  0  0  0  0  0  0  0  0
   -0.7118    0.6509   -0.2023 C   0  0  1  0  0  0  0  0  0  0  0  0
   -2.0491    0.0083   -0.5714 C   0  0  0  0  0  0  0  0  0  0  0  0
   -2.8882    0.4983    0.6069 C   0  0  1  0  0  0  0  0  0  0  0  0
   -4.2552   -0.0076    0.5621 C   0  0  0  0  0  0  0  0  0  0  0  0
   -4.5175   -1.3106    0.9651 C   0  0  0  0  0  0  0  0  0  0  0  0
   -5.8076   -1.7884    0.9065 C   0  0  0  0  0  0  0  0  0  0  0  0
   -6.8268   -0.9826    0.4529 C   0  0  0  0  0  0  0  0  0  0  0  0
   -6.5363    0.3058    0.0599 C   0  0  0  0  0  0  0  0  0  0  0  0
   -5.2532    0.8399    0.0982 C   0  0  0  0  0  0  0  0  0  0  0  0
   -5.0067    2.2237   -0.3221 C   0  0  0  0  0  0  0  0  0  0  0  0
   -6.2344    2.7724   -0.7279 F   0  0  0  0  0  0  0  0  0  0  0  0
   -4.1476    2.3481   -1.3761 F   0  0  0  0  0  0  0  0  0  0  0  0
   -4.6058    3.0349    0.7290 F   0  0  0  0  0  0  0  0  0  0  0  0
   -2.0416    0.0317    1.7453 C   0  0  0  0  0  0  0  0  0  0  0  0
   -0.6426    0.4069    1.2881 C   0  0  1  0  0  0  0  0  0  0  0  0
    0.2854   -0.7858    1.3632 C   0  0  0  0  0  0  0  0  0  0  0  0
    3.1891    2.7694    0.2289 H   0  0  0  0  0  0  0  0  0  0  0  0
    7.6466    1.1208    0.0597 H   0  0  0  0  0  0  0  0  0  0  0  0
    8.6514   -1.0600   -0.5953 H   0  0  0  0  0  0  0  0  0  0  0  0
    7.2147   -2.8871   -1.3284 H   0  0  0  0  0  0  0  0  0  0  0  0
    4.7673   -2.5715   -1.4198 H   0  0  0  0  0  0  0  0  0  0  0  0
    2.9503   -0.0324   -1.6501 H   0  0  0  0  0  0  0  0  0  0  0  0
    1.0573    0.7120   -1.3847 H   0  0  0  0  0  0  0  0  0  0  0  0
    0.1914   -0.9069   -1.4501 H   0  0  0  0  0  0  0  0  0  0  0  0
   -0.7855    1.7249   -0.4477 H   0  0  0  0  0  0  0  0  0  0  0  0
   -2.4284    0.3142   -1.5390 H   0  0  0  0  0  0  0  0  0  0  0  0
   -1.8698   -1.0906   -0.4872 H   0  0  0  0  0  0  0  0  0  0  0  0
   -2.8343    1.6153    0.5250 H   0  0  0  0  0  0  0  0  0  0  0  0
   -3.7533   -1.9918    1.3295 H   0  0  0  0  0  0  0  0  0  0  0  0
   -6.0088   -2.8089    1.2230 H   0  0  0  0  0  0  0  0  0  0  0  0
   -7.8530   -1.3672    0.4076 H   0  0  0  0  0  0  0  0  0  0  0  0
   -7.3538    0.9338   -0.2977 H   0  0  0  0  0  0  0  0  0  0  0  0
   -2.0687   -1.0504    1.8572 H   0  0  0  0  0  0  0  0  0  0  0  0
   -2.2970    0.4890    2.7203 H   0  0  0  0  0  0  0  0  0  0  0  0
   -0.2508    1.2852    1.8325 H   0  0  0  0  0  0  0  0  0  0  0  0
   -0.2976   -1.6895    1.1307 H   0  0  0  0  0  0  0  0  0  0  0  0
    0.7614   -0.8818    2.3593 H   0  0  0  0  0  0  0  0  0  0  0  0
  1  2  2  0
  2  3  1  0
  2  4  1  0
  4  5  2  0
  5  6  1  0
  6  7  2  0
  7  8  1  0
  8  9  2  0
  9 10  1  0
 10 11  1  0
 11 12  2  0
 11 13  1  0
 13 14  1  0
 14 15  1  0
 15 16  1  0
 16 17  1  0
 17 18  1  0
 18 19  2  0
 19 20  1  0
 20 21  2  0
 21 22  1  0
 22 23  2  0
 23 24  1  0
 24 25  1  0
 24 26  1  0
 24 27  1  0
 17 28  1  0
 28 29  1  0
 29 30  1  0
  9  4  1  0
 30 13  1  0
 29 15  1  0
 23 18  1  0
  3 31  1  0
  5 32  1  0
  6 33  1  0
  7 34  1  0
  8 35  1  0
 10 36  1  0
 14 37  1  0
 14 38  1  0
 15 39  1  1
 16 40  1  0
 16 41  1  0
 17 42  1  6
 19 43  1  0
 20 44  1  0
 21 45  1  0
 22 46  1  0
 28 47  1  0
 28 48  1  0
 29 49  1  1
 30 50  1  0
 30 51  1  0
M  END
$$$$
