@<TRIPOS>MOLECULE
*****
 51 54 0 0 0
SMALL
GASTEIGER

@<TRIPOS>ATOM
      1 O           5.7726    2.6784    0.4340 O.2     1  UNL1       -0.2451
      2 C           5.0318    1.7421    0.0580 C.2     1  UNL1        0.3386
      3 O           3.6592    1.8884   -0.0036 O.3     1  UNL1       -0.4771
      4 C           5.6416    0.4773   -0.3197 C.ar    1  UNL1        0.0800
      5 C           7.0264    0.2976   -0.2684 C.ar    1  UNL1       -0.0460
      6 C           7.5669   -0.9219   -0.6364 C.ar    1  UNL1       -0.0609
      7 C           6.7680   -1.9586   -1.0511 C.ar    1  UNL1       -0.0600
      8 C           5.3958   -1.7533   -1.0927 C.ar    1  UNL1       -0.0396
      9 C           4.8273   -0.5543   -0.7339 C.ar    1  UNL1        0.0487
     10 N           3.4186   -0.3815   -0.7894 N.am    1  UNL1       -0.2685
     11 C           2.6519   -0.6944    0.3548 C.2     1  UNL1        0.3065
     12 O           3.1711   -1.1198    1.4197 O.2     1  UNL1       -0.2523
     13 N           1.2281   -0.5244    0.3121 N.am    1  UNL1       -0.2848
     14 C           0.4512   -0.0486   -0.8173 C.3     1  UNL1        0.0193
     15 C          -0.7118    0.6509   -0.2023 C.3     1  UNL1       -0.0203
     16 C          -2.0491    0.0083   -0.5714 C.3     1  UNL1       -0.0416
     17 C          -2.8882    0.4983    0.6069 C.3     1  UNL1       -0.0147
     18 C          -4.2552   -0.0076    0.5621 C.ar    1  UNL1       -0.0326
     19 C          -4.5175   -1.3106    0.9651 C.ar    1  UNL1       -0.0578
     20 C          -5.8076   -1.7884    0.9065 C.ar    1  UNL1       -0.0615
     21 C          -6.8268   -0.9826    0.4529 C.ar    1  UNL1       -0.0612
     22 C          -6.5363    0.3058    0.0599 C.ar    1  UNL1       -0.0498
     23 C          -5.2532    0.8399    0.0982 C.ar    1  UNL1        0.0582
     24 C          -5.0067    2.2237   -0.3221 C.3     1  UNL1        0.4177
     25 F          -6.2344    2.7724   -0.7279 F       1  UNL1       -0.1659
     26 F          -4.1476    2.3481   -1.3761 F       1  UNL1       -0.1659
     27 F          -4.6058    3.0349    0.7290 F       1  UNL1       -0.1659
     28 C          -2.0416    0.0317    1.7453 C.3     1  UNL1       -0.0416
     29 C          -0.6426    0.4069    1.2881 C.3     1  UNL1       -0.0203
     30 C           0.2854   -0.7858    1.3632 C.3     1  UNL1        0.0193
     31 H           3.1891    2.7694    0.2289 H       1  UNL1        0.2954
     32 H           7.6466    1.1208    0.0597 H       1  UNL1        0.0626
     33 H           8.6514   -1.0600   -0.5953 H       1  UNL1        0.0618
     34 H           7.2147   -2.8871   -1.3284 H       1  UNL1        0.0618
     35 H           4.7673   -2.5715   -1.4198 H       1  UNL1        0.0636
     36 H           2.9503   -0.0324   -1.6501 H       1  UNL1        0.1564
     37 H           1.0573    0.7120   -1.3847 H       1  UNL1        0.0468
     38 H           0.1914   -0.9069   -1.4501 H       1  UNL1        0.0468
     39 H          -0.7855    1.7249   -0.4477 H       1  UNL1        0.0319
     40 H          -2.4284    0.3142   -1.5390 H       1  UNL1        0.0274
     41 H          -1.8698   -1.0906   -0.4872 H       1  UNL1        0.0274
     42 H          -2.8343    1.6153    0.5250 H       1  UNL1        0.0349
     43 H          -3.7533   -1.9918    1.3295 H       1  UNL1        0.0620
     44 H          -6.0088   -2.8089    1.2230 H       1  UNL1        0.0618
     45 H          -7.8530   -1.3672    0.4076 H       1  UNL1        0.0618
     46 H          -7.3538    0.9338   -0.2977 H       1  UNL1        0.0623
     47 H          -2.0687   -1.0504    1.8572 H       1  UNL1        0.0274
     48 H          -2.2970    0.4890    2.7203 H       1  UNL1        0.0274
     49 H          -0.2508    1.2852    1.8325 H       1  UNL1        0.0319
     50 H          -0.2976   -1.6895    1.1307 H       1  UNL1        0.0468
     51 H           0.7614   -0.8818    2.3593 H       1  UNL1        0.0468
@<TRIPOS>BOND
     1     1     2    2
     2     2     3    1
     3     2     4    1
     4     4     5   ar
     5     5     6   ar
     6     6     7   ar
     7     7     8   ar
     8     8     9   ar
     9     9    10    1
    10    10    11   am
    11    11    12    2
    12    11    13   am
    13    13    14    1
    14    14    15    1
    15    15    16    1
    16    16    17    1
    17    17    18    1
    18    18    19   ar
    19    19    20   ar
    20    20    21   ar
    21    21    22   ar
    22    22    23   ar
    23    23    24    1
    24    24    25    1
    25    24    26    1
    26    24    27    1
    27    17    28    1
    28    28    29    1
    29    29    30    1
    30     9     4   ar
    31    30    13    1
    32    29    15    1
    33    23    18   ar
    34     3    31    1
    35     5    32    1
    36     6    33    1
    37     7    34    1
    38     8    35    1
    39    10    36    1
    40    14    37    1
    41    14    38    1
    42    15    39    1
    43    16    40    1
    44    16    41    1
    45    17    42    1
    46    19    43    1
    47    20    44    1
    48    21    45    1
    49    22    46    1
    50    28    47    1
    51    28    48    1
    52    29    49    1
    53    30    50    1
    54    30    51    1
