@<TRIPOS>MOLECULE
*****
 58 62 0 0 0
SMALL
GASTEIGER

@<TRIPOS>ATOM
      1 N1         -2.4737    1.2686   -0.7540 N.pl3   1  <1>        -0.3427
      2 C1         -1.1124    1.4145   -0.4262 C.ar    1  <1>         0.1261
      3 C2         -0.2869    0.4506    0.1447 C.ar    1  <1>         0.0241
      4 C3         -0.6653   -0.9131    0.5364 C.3     1  <1>         0.0029
      5 C4         -2.0839   -1.2318    0.3891 C.ar    1  <1>        -0.0428
      6 C5         -2.5792   -1.7645   -0.7782 C.ar    1  <1>        -0.0564
      7 C6         -3.9290   -2.0653   -0.8917 C.ar    1  <1>        -0.0351
      8 C7         -4.8170   -1.8523    0.1291 C.ar    1  <1>         0.1050
      9 S1         -6.5218   -2.2457   -0.0444 S.O2    1  <1>         0.0559
     10 N2         -7.4042   -0.8805   -0.6683 N.3     1  <1>        -0.2035
     11 O1         -6.6928   -3.4329   -0.9821 O.2     1  <1>        -0.1533
     12 O2         -7.0644   -2.6339    1.2857 O.2     1  <1>        -0.1533
     13 C8         -4.3263   -1.3158    1.3079 C.ar    1  <1>        -0.0351
     14 C9         -2.9681   -1.0129    1.4226 C.ar    1  <1>        -0.0564
     15 C10         0.9647    0.9885    0.3023 C.ar    1  <1>         0.0986
     16 C11         2.1954    0.4395    0.8613 C.ar    1  <1>         0.0030
     17 C12         2.9265    1.1581    1.8105 C.ar    1  <1>        -0.0525
     18 C13         4.0947    0.6915    2.3541 C.ar    1  <1>        -0.0606
     19 C14         4.5691   -0.5431    1.9453 C.ar    1  <1>        -0.0540
     20 C15         3.8940   -1.2987    1.0134 C.ar    1  <1>        -0.0173
     21 C16         4.4133   -2.5806    0.6053 C.ar    1  <1>        -0.0179
     22 C17         5.7673   -2.7971    0.5724 C.ar    1  <1>        -0.0540
     23 C18         6.3042   -4.0236    0.1813 C.ar    1  <1>        -0.0612
     24 C19         5.4318   -5.0374   -0.1800 C.ar    1  <1>        -0.0617
     25 C20         4.0778   -4.8401   -0.1537 C.ar    1  <1>        -0.0612
     26 C21         3.5738   -3.6011    0.2427 C.ar    1  <1>        -0.0540
     27 C22         2.7051   -0.7704    0.4918 C.ar    1  <1>        -0.0448
     28 N3          0.8640    2.2628   -0.1768 N.ar    1  <1>        -0.1626
     29 N4         -0.3511    2.4949   -0.5965 N.ar    1  <1>        -0.1937
     30 C23        -0.7721    3.7597   -1.1503 C.ar    1  <1>         0.1961
     31 N5          0.0091    4.8732   -1.3303 N.ar    1  <1>        -0.2144
     32 C24        -0.4465    5.9390   -1.8135 C.ar    1  <1>         0.1568
     33 C25         0.4244    7.1581   -2.0086 C.2     1  <1>         0.3559
     34 O3         -0.0762    8.1972   -2.4853 O.2     1  <1>        -0.2434
     35 O4          1.7452    7.1319   -1.6703 O.3     1  <1>        -0.4761
     36 C26        -1.8198    6.0110   -2.1932 C.ar    1  <1>         0.0116
     37 S2         -2.2679    4.2791   -1.7149 S.2     1  <1>        -0.0554
     38 H1         -2.8629    0.9644   -1.6584 H       1  <1>         0.1437
     39 H2         -3.1856    1.4956    0.0024 H       1  <1>         0.1437
     40 H3         -0.1104   -1.6566   -0.0923 H       1  <1>         0.0363
     41 H4         -0.3195   -1.0937    1.5770 H       1  <1>         0.0363
     42 H5         -1.8889   -1.9390   -1.5963 H       1  <1>         0.0621
     43 H6         -4.3057   -2.4876   -1.8273 H       1  <1>         0.0637
     44 H7         -6.9500   -0.5879   -1.5826 H       1  <1>         0.1442
     45 H8         -8.3768   -1.2440   -0.8772 H       1  <1>         0.1442
     46 H9         -5.0211   -1.1483    2.1106 H       1  <1>         0.0637
     47 H10        -2.5991   -0.5958    2.3451 H       1  <1>         0.0621
     48 H11         2.5230    2.1117    2.1005 H       1  <1>         0.0624
     49 H12         4.6605    1.2707    3.1020 H       1  <1>         0.0618
     50 H13         5.5005   -0.8710    2.4047 H       1  <1>         0.0624
     51 H14         6.4090   -1.9858    0.8593 H       1  <1>         0.0624
     52 H15         7.3742   -4.1702    0.1633 H       1  <1>         0.0618
     53 H16         5.8791   -5.9924   -0.4844 H       1  <1>         0.0618
     54 H17         3.4230   -5.6364   -0.4374 H       1  <1>         0.0618
     55 H18         2.4932   -3.4631    0.2576 H       1  <1>         0.0624
     56 H19         2.1977   -1.3733   -0.2434 H       1  <1>         0.0630
     57 H20         2.2783    7.9998   -1.5471 H       1  <1>         0.2955
     58 H21        -2.4205    6.7253   -2.5935 H       1  <1>         0.0718
@<TRIPOS>BOND
     1     1     2    1
     2     2     3   ar
     3     3     4    1
     4     4     5    1
     5     5     6   ar
     6     6     7   ar
     7     7     8   ar
     8     8     9    1
     9     9    10    1
    10     9    11    2
    11     9    12    2
    12     8    13   ar
    13    13    14   ar
    14     3    15   ar
    15    15    16    1
    16    16    17   ar
    17    17    18   ar
    18    18    19   ar
    19    19    20   ar
    20    20    21    1
    21    21    22   ar
    22    22    23   ar
    23    23    24   ar
    24    24    25   ar
    25    25    26   ar
    26    20    27   ar
    27    15    28   ar
    28    28    29   ar
    29    29    30    1
    30    30    31   ar
    31    31    32   ar
    32    32    33    1
    33    33    34    2
    34    33    35    1
    35    32    36   ar
    36    36    37   ar
    37    29     2   ar
    38    37    30   ar
    39    14     5   ar
    40    27    16   ar
    41    26    21   ar
    42     1    38    1
    43     1    39    1
    44     4    40    1
    45     4    41    1
    46     6    42    1
    47     7    43    1
    48    10    44    1
    49    10    45    1
    50    13    46    1
    51    14    47    1
    52    17    48    1
    53    18    49    1
    54    19    50    1
    55    22    51    1
    56    23    52    1
    57    24    53    1
    58    25    54    1
    59    26    55    1
    60    27    56    1
    61    35    57    1
    62    36    58    1
