@<TRIPOS>MOLECULE
*****
 58 62 0 0 0
SMALL
GASTEIGER

@<TRIPOS>ATOM
      1 N          -3.2447    2.5088   -3.1022 N.1     1  UNL1       -0.1943
      2 C          -3.7614    2.3991   -2.0603 C.1     1  UNL1        0.0883
      3 C          -4.4032    2.2840   -0.7415 C.3     1  UNL1        0.1214
      4 N          -3.9180    1.2155    0.0886 N.am    1  UNL1       -0.2971
      5 C          -4.0092   -0.1257   -0.3507 C.2     1  UNL1        0.2180
      6 O          -4.5252   -0.3274   -1.4799 O.2     1  UNL1       -0.2755
      7 C          -3.5393   -1.2678    0.4341 C.3     1  UNL1        0.0466
      8 C          -4.2665   -1.3780    1.7827 C.3     1  UNL1       -0.0412
      9 C          -3.9300   -2.7209    2.3364 C.3     1  UNL1       -0.0523
     10 C          -2.7252   -3.3758    1.7527 C.3     1  UNL1       -0.0523
     11 C          -1.6108   -2.4221    1.4086 C.3     1  UNL1       -0.0412
     12 C          -2.0736   -1.1397    0.8132 C.3     1  UNL1        0.0468
     13 C          -1.2726   -0.8310   -0.3955 C.2     1  UNL1        0.2195
     14 O          -1.8623   -0.7797   -1.5184 O.2     1  UNL1       -0.2753
     15 N           0.1188   -0.5882   -0.3709 N.am    1  UNL1       -0.2982
     16 C           0.8093   -0.3086   -1.6061 C.3     1  UNL1        0.0305
     17 C           1.7061    0.8902   -1.3849 C.3     1  UNL1        0.0298
     18 N           2.6134    0.5490   -0.3303 N.pl3   1  UNL1       -0.3066
     19 C           4.0315    0.5703   -0.5136 C.ar    1  UNL1        0.1619
     20 N           4.8746    0.7956   -1.3287 N.ar    1  UNL1       -0.2248
     21 C           6.1652    0.7369   -1.2347 C.ar    1  UNL1        0.0803
     22 C           7.1320    1.0073   -2.2093 C.ar    1  UNL1       -0.0351
     23 C           8.4554    0.8856   -1.9087 C.ar    1  UNL1       -0.0597
     24 C           8.9383    0.5078   -0.6908 C.ar    1  UNL1       -0.0606
     25 C           8.0061    0.2349    0.2898 C.ar    1  UNL1       -0.0458
     26 C           6.6515    0.3487    0.0180 C.ar    1  UNL1        0.0408
     27 S           5.1595    0.1079    0.9354 S.2     1  UNL1       -0.0522
     28 C           2.0763    0.1786    0.9362 C.3     1  UNL1        0.0298
     29 C           0.8093   -0.6197    0.8889 C.3     1  UNL1        0.0305
     30 C          -4.8510    3.5652   -0.1378 C.3     1  UNL1       -0.0154
     31 C          -5.8696    2.6293   -0.7267 C.3     1  UNL1       -0.0154
     32 H          -3.4862    1.3885    1.0335 H       1  UNL1        0.1502
     33 H          -3.7139   -2.2140   -0.1034 H       1  UNL1        0.0401
     34 H          -5.3423   -1.2567    1.6756 H       1  UNL1        0.0273
     35 H          -3.8568   -0.5774    2.4633 H       1  UNL1        0.0273
     36 H          -4.8397   -3.3543    2.2901 H       1  UNL1        0.0265
     37 H          -3.7332   -2.5946    3.4412 H       1  UNL1        0.0265
     38 H          -2.3753   -4.1859    2.4426 H       1  UNL1        0.0265
     39 H          -3.0214   -3.8939    0.8173 H       1  UNL1        0.0265
     40 H          -1.0796   -2.2094    2.3565 H       1  UNL1        0.0273
     41 H          -0.8683   -2.9548    0.7452 H       1  UNL1        0.0273
     42 H          -1.9387   -0.3152    1.5388 H       1  UNL1        0.0402
     43 H           1.4573   -1.1506   -1.9238 H       1  UNL1        0.0480
     44 H           0.1305   -0.0982   -2.4443 H       1  UNL1        0.0480
     45 H           2.2236    1.1917   -2.3175 H       1  UNL1        0.0480
     46 H           1.0487    1.7133   -1.0170 H       1  UNL1        0.0480
     47 H           6.8560    1.3196   -3.2263 H       1  UNL1        0.0639
     48 H           9.2010    1.1047   -2.6957 H       1  UNL1        0.0618
     49 H           9.9727    0.4250   -0.4970 H       1  UNL1        0.0618
     50 H           8.2723   -0.0743    1.2971 H       1  UNL1        0.0629
     51 H           2.8422   -0.3106    1.5997 H       1  UNL1        0.0480
     52 H           1.8427    1.1434    1.4757 H       1  UNL1        0.0480
     53 H           1.0867   -1.6630    1.2084 H       1  UNL1        0.0480
     54 H           0.1076   -0.2541    1.6846 H       1  UNL1        0.0480
     55 H          -4.7053    4.5045   -0.7325 H       1  UNL1        0.0297
     56 H          -4.8364    3.7365    0.9411 H       1  UNL1        0.0297
     57 H          -6.5423    2.1443    0.0181 H       1  UNL1        0.0297
     58 H          -6.3867    2.9054   -1.6647 H       1  UNL1        0.0297
@<TRIPOS>BOND
     1     1     2    3
     2     2     3    1
     3     3     4    1
     4     4     5   am
     5     5     6    2
     6     5     7    1
     7     7     8    1
     8     8     9    1
     9     9    10    1
    10    10    11    1
    11    11    12    1
    12    12    13    1
    13    13    14    2
    14    13    15   am
    15    15    16    1
    16    16    17    1
    17    17    18    1
    18    18    19    1
    19    19    20   ar
    20    20    21   ar
    21    21    22   ar
    22    22    23   ar
    23    23    24   ar
    24    24    25   ar
    25    25    26   ar
    26    26    27   ar
    27    18    28    1
    28    28    29    1
    29     3    30    1
    30    30    31    1
    31    31     3    1
    32    12     7    1
    33    29    15    1
    34    27    19   ar
    35    26    21   ar
    36     4    32    1
    37     7    33    1
    38     8    34    1
    39     8    35    1
    40     9    36    1
    41     9    37    1
    42    10    38    1
    43    10    39    1
    44    11    40    1
    45    11    41    1
    46    12    42    1
    47    16    43    1
    48    16    44    1
    49    17    45    1
    50    17    46    1
    51    22    47    1
    52    23    48    1
    53    24    49    1
    54    25    50    1
    55    28    51    1
    56    28    52    1
    57    29    53    1
    58    29    54    1
    59    30    55    1
    60    30    56    1
    61    31    57    1
    62    31    58    1
