
     RDKit          3D

 58 62  0  0  0  0  0  0  0  0999 V2000
   -3.2447    2.5088   -3.1022 N   0  0  0  0  0  0  0  0  0  0  0  0
   -3.7614    2.3991   -2.0603 C   0  0  0  0  0  0  0  0  0  0  0  0
   -4.4032    2.2840   -0.7415 C   0  0  0  0  0  0  0  0  0  0  0  0
   -3.9180    1.2155    0.0886 N   0  0  0  0  0  0  0  0  0  0  0  0
   -4.0092   -0.1257   -0.3507 C   0  0  0  0  0  0  0  0  0  0  0  0
   -4.5252   -0.3274   -1.4799 O   0  0  0  0  0  0  0  0  0  0  0  0
   -3.5393   -1.2678    0.4341 C   0  0  2  0  0  0  0  0  0  0  0  0
   -4.2665   -1.3780    1.7827 C   0  0  0  0  0  0  0  0  0  0  0  0
   -3.9300   -2.7209    2.3364 C   0  0  0  0  0  0  0  0  0  0  0  0
   -2.7252   -3.3758    1.7527 C   0  0  0  0  0  0  0  0  0  0  0  0
   -1.6108   -2.4221    1.4086 C   0  0  0  0  0  0  0  0  0  0  0  0
   -2.0736   -1.1397    0.8132 C   0  0  1  0  0  0  0  0  0  0  0  0
   -1.2726   -0.8310   -0.3955 C   0  0  0  0  0  0  0  0  0  0  0  0
   -1.8623   -0.7797   -1.5184 O   0  0  0  0  0  0  0  0  0  0  0  0
    0.1188   -0.5882   -0.3709 N   0  0  0  0  0  0  0  0  0  0  0  0
    0.8093   -0.3086   -1.6061 C   0  0  0  0  0  0  0  0  0  0  0  0
    1.7061    0.8902   -1.3849 C   0  0  0  0  0  0  0  0  0  0  0  0
    2.6134    0.5490   -0.3303 N   0  0  0  0  0  0  0  0  0  0  0  0
    4.0315    0.5703   -0.5136 C   0  0  0  0  0  0  0  0  0  0  0  0
    4.8746    0.7956   -1.3287 N   0  0  0  0  0  0  0  0  0  0  0  0
    6.1652    0.7369   -1.2347 C   0  0  0  0  0  0  0  0  0  0  0  0
    7.1320    1.0073   -2.2093 C   0  0  0  0  0  0  0  0  0  0  0  0
    8.4554    0.8856   -1.9087 C   0  0  0  0  0  0  0  0  0  0  0  0
    8.9383    0.5078   -0.6908 C   0  0  0  0  0  0  0  0  0  0  0  0
    8.0061    0.2349    0.2898 C   0  0  0  0  0  0  0  0  0  0  0  0
    6.6515    0.3487    0.0180 C   0  0  0  0  0  0  0  0  0  0  0  0
    5.1595    0.1079    0.9354 S   0  0  0  0  0  0  0  0  0  0  0  0
    2.0763    0.1786    0.9362 C   0  0  0  0  0  0  0  0  0  0  0  0
    0.8093   -0.6197    0.8889 C   0  0  0  0  0  0  0  0  0  0  0  0
   -4.8510    3.5652   -0.1378 C   0  0  0  0  0  0  0  0  0  0  0  0
   -5.8696    2.6293   -0.7267 C   0  0  0  0  0  0  0  0  0  0  0  0
   -3.4862    1.3885    1.0335 H   0  0  0  0  0  0  0  0  0  0  0  0
   -3.7139   -2.2140   -0.1034 H   0  0  0  0  0  0  0  0  0  0  0  0
   -5.3423   -1.2567    1.6756 H   0  0  0  0  0  0  0  0  0  0  0  0
   -3.8568   -0.5774    2.4633 H   0  0  0  0  0  0  0  0  0  0  0  0
   -4.8397   -3.3543    2.2901 H   0  0  0  0  0  0  0  0  0  0  0  0
   -3.7332   -2.5946    3.4412 H   0  0  0  0  0  0  0  0  0  0  0  0
   -2.3753   -4.1859    2.4426 H   0  0  0  0  0  0  0  0  0  0  0  0
   -3.0214   -3.8939    0.8173 H   0  0  0  0  0  0  0  0  0  0  0  0
   -1.0796   -2.2094    2.3565 H   0  0  0  0  0  0  0  0  0  0  0  0
   -0.8683   -2.9548    0.7452 H   0  0  0  0  0  0  0  0  0  0  0  0
   -1.9387   -0.3152    1.5388 H   0  0  0  0  0  0  0  0  0  0  0  0
    1.4573   -1.1506   -1.9238 H   0  0  0  0  0  0  0  0  0  0  0  0
    0.1305   -0.0982   -2.4443 H   0  0  0  0  0  0  0  0  0  0  0  0
    2.2236    1.1917   -2.3175 H   0  0  0  0  0  0  0  0  0  0  0  0
    1.0487    1.7133   -1.0170 H   0  0  0  0  0  0  0  0  0  0  0  0
    6.8560    1.3196   -3.2263 H   0  0  0  0  0  0  0  0  0  0  0  0
    9.2010    1.1047   -2.6957 H   0  0  0  0  0  0  0  0  0  0  0  0
    9.9727    0.4250   -0.4970 H   0  0  0  0  0  0  0  0  0  0  0  0
    8.2723   -0.0743    1.2971 H   0  0  0  0  0  0  0  0  0  0  0  0
    2.8422   -0.3106    1.5997 H   0  0  0  0  0  0  0  0  0  0  0  0
    1.8427    1.1434    1.4757 H   0  0  0  0  0  0  0  0  0  0  0  0
    1.0867   -1.6630    1.2084 H   0  0  0  0  0  0  0  0  0  0  0  0
    0.1076   -0.2541    1.6846 H   0  0  0  0  0  0  0  0  0  0  0  0
   -4.7053    4.5045   -0.7325 H   0  0  0  0  0  0  0  0  0  0  0  0
   -4.8364    3.7365    0.9411 H   0  0  0  0  0  0  0  0  0  0  0  0
   -6.5423    2.1443    0.0181 H   0  0  0  0  0  0  0  0  0  0  0  0
   -6.3867    2.9054   -1.6647 H   0  0  0  0  0  0  0  0  0  0  0  0
  1  2  3  0
  2  3  1  0
  3  4  1  0
  4  5  1  0
  5  6  2  0
  5  7  1  0
  7  8  1  0
  8  9  1  0
  9 10  1  0
 10 11  1  0
 11 12  1  0
 12 13  1  0
 13 14  2  0
 13 15  1  0
 15 16  1  0
 16 17  1  0
 17 18  1  0
 18 19  1  0
 19 20  2  0
 20 21  1  0
 21 22  2  0
 22 23  1  0
 23 24  2  0
 24 25  1  0
 25 26  2  0
 26 27  1  0
 18 28  1  0
 28 29  1  0
  3 30  1  0
 30 31  1  0
 31  3  1  0
 12  7  1  0
 29 15  1  0
 27 19  1  0
 26 21  1  0
  4 32  1  0
  7 33  1  6
  8 34  1  0
  8 35  1  0
  9 36  1  0
  9 37  1  0
 10 38  1  0
 10 39  1  0
 11 40  1  0
 11 41  1  0
 12 42  1  1
 16 43  1  0
 16 44  1  0
 17 45  1  0
 17 46  1  0
 22 47  1  0
 23 48  1  0
 24 49  1  0
 25 50  1  0
 28 51  1  0
 28 52  1  0
 29 53  1  0
 29 54  1  0
 30 55  1  0
 30 56  1  0
 31 57  1  0
 31 58  1  0
M  END
$$$$
