
     RDKit          3D

 18 17  0  0  0  0  0  0  0  0999 V2000
    0.9370    1.0054    0.4064 C   0  0  0  0  0  0  0  0  0  0  0  0
    1.8378    0.7803   -0.6223 O   0  0  0  0  0  0  0  0  0  0  0  0
    2.8625   -0.1745   -0.3863 C   0  0  0  0  0  0  0  0  0  0  0  0
   -0.1965    0.5489    0.8668 C   0  0  0  0  0  0  0  0  0  0  0  0
   -0.9263   -0.5683    0.2346 C   0  0  2  0  0  0  0  0  0  0  0  0
   -0.3590   -0.9244   -1.0469 N   0  0  0  0  0  0  0  0  0  0  0  0
   -2.3307   -0.0610    0.0369 C   0  0  0  0  0  0  0  0  0  0  0  0
   -3.0156    0.3243    1.1789 O   0  0  0  0  0  0  0  0  0  0  0  0
   -2.9132    0.0356   -1.0681 O   0  0  0  0  0  0  0  0  0  0  0  0
    1.4510    1.8302    0.8944 H   0  0  0  0  0  0  0  0  0  0  0  0
    3.4873   -0.2250   -1.3126 H   0  0  0  0  0  0  0  0  0  0  0  0
    2.4699   -1.1717   -0.1044 H   0  0  0  0  0  0  0  0  0  0  0  0
    3.5364    0.1265    0.4333 H   0  0  0  0  0  0  0  0  0  0  0  0
   -0.5857    1.0256    1.7391 H   0  0  0  0  0  0  0  0  0  0  0  0
   -0.9922   -1.4624    0.8655 H   0  0  0  0  0  0  0  0  0  0  0  0
   -0.3714   -0.1271   -1.7160 H   0  0  0  0  0  0  0  0  0  0  0  0
   -0.9395   -1.6729   -1.4724 H   0  0  0  0  0  0  0  0  0  0  0  0
   -3.9516    0.7103    1.0731 H   0  0  0  0  0  0  0  0  0  0  0  0
  1  2  1  0
  2  3  1  0
  1  4  2  0
  4  5  1  0
  5  6  1  0
  5  7  1  0
  7  8  1  0
  7  9  2  0
  1 10  1  0
  3 11  1  0
  3 12  1  0
  3 13  1  0
  4 14  1  0
  5 15  1  1
  6 16  1  0
  6 17  1  0
  8 18  1  0
M  END
$$$$
