@<TRIPOS>MOLECULE
*****
 18 17 0 0 0
SMALL
GASTEIGER

@<TRIPOS>ATOM
      1 C           0.9370    1.0054    0.4064 C.2     1  UNL1        0.0821
      2 O           1.8378    0.7803   -0.6223 O.2     1  UNL1       -0.5028
      3 C           2.8625   -0.1745   -0.3863 C.3     1  UNL1        0.0779
      4 C          -0.1965    0.5489    0.8668 C.2     1  UNL1       -0.0224
      5 CA         -0.9263   -0.5683    0.2346 C.3     1  UNL1        0.1250
      6 N          -0.3590   -0.9244   -1.0469 N.3     1  UNL1       -0.3152
      7 C          -2.3307   -0.0610    0.0369 C.2     1  UNL1        0.3258
      8 O          -3.0156    0.3243    1.1789 O.3     1  UNL1       -0.4793
      9 OXT        -2.9132    0.0356   -1.0681 O.2     1  UNL1       -0.2489
     10 H           1.4510    1.8302    0.8944 H       1  UNL1        0.1020
     11 H           3.4873   -0.2250   -1.3126 H       1  UNL1        0.0660
     12 H           2.4699   -1.1717   -0.1044 H       1  UNL1        0.0660
     13 H           3.5364    0.1265    0.4333 H       1  UNL1        0.0660
     14 H          -0.5857    1.0256    1.7391 H       1  UNL1        0.0623
     15 HA         -0.9922   -1.4624    0.8655 H       1  UNL1        0.0620
     16 H1         -0.3714   -0.1271   -1.7160 H       1  UNL1        0.1192
     17 H2         -0.9395   -1.6729   -1.4724 H       1  UNL1        0.1192
     18 H          -3.9516    0.7103    1.0731 H       1  UNL1        0.2951
@<TRIPOS>BOND
     1     1     2    1
     2     2     3    1
     3     1     4    2
     4     4     5    1
     5     5     6    1
     6     5     7    1
     7     7     8    1
     8     7     9    2
     9     1    10    1
    10     3    11    1
    11     3    12    1
    12     3    13    1
    13     4    14    1
    14     5    15    1
    15     6    16    1
    16     6    17    1
    17     8    18    1
