@<TRIPOS>MOLECULE
*****
 57 61 0 0 0
SMALL
GASTEIGER

@<TRIPOS>ATOM
      1 C          -6.1342   -1.9705    3.9841 C.3     1  UNL1        0.0001
      2 N          -5.7378   -2.1320    2.6048 N.am    1  UNL1       -0.3172
      3 C          -4.4203   -2.5543    2.2377 C.2     1  UNL1        0.2296
      4 O          -3.6424   -2.7720    3.2152 O.2     1  UNL1       -0.2743
      5 C          -4.0611   -2.7059    0.8201 C.3     1  UNL1        0.1052
      6 C          -2.7108   -3.1146    0.3575 C.3     1  UNL1       -0.0220
      7 C          -3.1353   -1.7273    0.2100 C.3     1  UNL1        0.0134
      8 C          -3.6348   -1.0675   -1.0146 C.3     1  UNL1        0.0935
      9 C          -4.7895   -0.1613   -0.5761 C.3     1  UNL1       -0.0351
     10 C          -2.5582   -0.2293   -1.6310 C.ar    1  UNL1        0.0158
     11 C          -1.2516   -0.2556   -1.1720 C.ar    1  UNL1       -0.0463
     12 C          -0.2840    0.4980   -1.8048 C.ar    1  UNL1       -0.0217
     13 C           1.1328    0.5816   -1.3898 C.2     1  UNL1       -0.0171
     14 C           1.5045    0.7559   -0.1725 C.2     1  UNL1        0.1506
     15 F           0.6256    0.8626    0.8222 F       1  UNL1       -0.2032
     16 C           2.9370    0.9882    0.1212 C.ar    1  UNL1        0.1170
     17 C           3.9159    0.9556   -0.8057 C.ar    1  UNL1        0.0572
     18 N           5.1881    1.3592   -0.5373 N.ar    1  UNL1       -0.2430
     19 C           5.5292    1.8118    0.6667 C.ar    1  UNL1        0.1314
     20 C           6.8118    2.3420    1.0356 C.1     1  UNL1       -0.0446
     21 C           7.8671    2.7581    1.3461 C.1     1  UNL1       -0.0920
     22 C           9.2026    3.3109    1.7521 C.3     1  UNL1        0.0211
     23 C           9.7089    4.5043    0.8765 C.3     1  UNL1       -0.0382
     24 C          10.3418    3.1801    0.8089 C.3     1  UNL1       -0.0382
     25 C           4.5298    1.8449    1.6278 C.ar    1  UNL1        0.0622
     26 N           3.2718    1.4501    1.3765 N.ar    1  UNL1       -0.2484
     27 C          -0.6129    1.2746   -2.8831 C.ar    1  UNL1       -0.0518
     28 C          -1.8977    1.3216   -3.3583 C.ar    1  UNL1       -0.0255
     29 C          -2.8771    0.5535   -2.7137 C.ar    1  UNL1        0.1289
     30 F          -4.1471    0.5707   -3.1550 F       1  UNL1       -0.2051
     31 N          -4.0549   -1.9235   -2.0820 N.2     1  UNL1       -0.2521
     32 C          -4.8366   -2.9022   -1.9368 C.2     1  UNL1        0.1485
     33 N          -5.2707   -3.7783   -2.9947 N.pl3   1  UNL1       -0.3380
     34 S          -5.4361   -3.2178   -0.2591 S.3     1  UNL1       -0.0746
     35 H          -7.2404   -1.9181    4.0542 H       1  UNL1        0.0426
     36 H          -5.7313   -0.9843    4.3279 H       1  UNL1        0.0426
     37 H          -5.7229   -2.7695    4.6163 H       1  UNL1        0.0426
     38 H          -6.4300   -1.9412    1.8642 H       1  UNL1        0.1484
     39 H          -2.5900   -3.7975   -0.5180 H       1  UNL1        0.0287
     40 H          -1.9999   -3.3953    1.1838 H       1  UNL1        0.0287
     41 H          -2.6745   -1.0097    0.9649 H       1  UNL1        0.0346
     42 H          -5.4148   -0.7635    0.1112 H       1  UNL1        0.0256
     43 H          -4.4248    0.7002    0.0090 H       1  UNL1        0.0256
     44 H          -5.4441    0.1341   -1.4099 H       1  UNL1        0.0256
     45 H          -0.9803   -0.8660   -0.3210 H       1  UNL1        0.0628
     46 H           1.8489    0.4758   -2.1956 H       1  UNL1        0.0653
     47 H           3.7568    0.5971   -1.8118 H       1  UNL1        0.0852
     48 H           9.3371    3.4084    2.8222 H       1  UNL1        0.0433
     49 H           8.9703    4.8028    0.0724 H       1  UNL1        0.0277
     50 H          10.1415    5.3397    1.4329 H       1  UNL1        0.0277
     51 H          10.1364    2.5437   -0.0974 H       1  UNL1        0.0277
     52 H          11.3460    3.1149    1.2681 H       1  UNL1        0.0277
     53 H           4.7767    2.1941    2.6488 H       1  UNL1        0.0858
     54 H           0.1829    1.8798   -3.3825 H       1  UNL1        0.0624
     55 H          -2.1695    1.9246   -4.2036 H       1  UNL1        0.0646
     56 H          -4.5590   -3.9557   -3.7646 H       1  UNL1        0.1442
     57 H          -6.1892   -4.2259   -3.0480 H       1  UNL1        0.1442
@<TRIPOS>BOND
     1     1     2    1
     2     2     3   am
     3     3     4    2
     4     5     3    1
     5     5     6    1
     6     6     7    1
     7     7     8    1
     8     8     9    1
     9     8    10    1
    10    10    11   ar
    11    11    12   ar
    12    12    13    1
    13    13    14    2
    14    14    15    1
    15    14    16    1
    16    16    17   ar
    17    17    18   ar
    18    18    19   ar
    19    19    20    1
    20    20    21    3
    21    21    22    1
    22    22    23    1
    23    23    24    1
    24    19    25   ar
    25    25    26   ar
    26    12    27   ar
    27    27    28   ar
    28    28    29   ar
    29    29    30    1
    30     8    31    1
    31    31    32    2
    32    32    33    1
    33    32    34    1
    34     7     5    1
    35    29    10   ar
    36    34     5    1
    37    26    16   ar
    38    24    22    1
    39     1    35    1
    40     1    36    1
    41     1    37    1
    42     2    38    1
    43     6    39    1
    44     6    40    1
    45     7    41    1
    46     9    42    1
    47     9    43    1
    48     9    44    1
    49    11    45    1
    50    13    46    1
    51    17    47    1
    52    22    48    1
    53    23    49    1
    54    23    50    1
    55    24    51    1
    56    24    52    1
    57    25    53    1
    58    27    54    1
    59    28    55    1
    60    33    56    1
    61    33    57    1
