
     RDKit          3D

 43 47  0  0  0  0  0  0  0  0999 V2000
   -7.7957   -0.5540   -0.9178 C   0  0  0  0  0  0  0  0  0  0  0  0
   -7.0145    0.5624   -0.5901 O   0  0  0  0  0  0  0  0  0  0  0  0
   -5.6676    0.4522   -0.3431 C   0  0  0  0  0  0  0  0  0  0  0  0
   -4.9791   -0.7404   -0.3942 C   0  0  0  0  0  0  0  0  0  0  0  0
   -3.6302   -0.8137   -0.1410 C   0  0  0  0  0  0  0  0  0  0  0  0
   -2.9726    0.3573    0.1710 C   0  0  0  0  0  0  0  0  0  0  0  0
   -1.5537    0.2939    0.4393 C   0  0  0  0  0  0  0  0  0  0  0  0
   -0.7649   -0.6574   -0.2155 C   0  0  0  0  0  0  0  0  0  0  0  0
    0.5479   -0.7626   -0.0080 N   0  0  0  0  0  0  0  0  0  0  0  0
    1.1036    0.1099    0.8845 C   0  0  0  0  0  0  0  0  0  0  0  0
    2.4056    0.2737    1.3255 C   0  0  0  0  0  0  0  0  0  0  0  0
    3.5205   -0.5281    0.8765 C   0  0  0  0  0  0  0  0  0  0  0  0
    3.8456   -1.6876    1.5526 C   0  0  0  0  0  0  0  0  0  0  0  0
    4.9128   -2.4405    1.1102 C   0  0  0  0  0  0  0  0  0  0  0  0
    5.6296   -2.0270    0.0118 C   0  0  0  0  0  0  0  0  0  0  0  0
    5.3376   -0.8692   -0.6968 C   0  0  0  0  0  0  0  0  0  0  0  0
    6.0604   -0.4948   -1.7675 N   0  0  0  0  0  0  0  0  0  0  0  0
    5.7612    0.6306   -2.4404 C   0  0  0  0  0  0  0  0  0  0  0  0
    4.6998    1.4024   -2.0204 C   0  0  0  0  0  0  0  0  0  0  0  0
    3.9575    1.0214   -0.9240 C   0  0  0  0  0  0  0  0  0  0  0  0
    4.2529   -0.1287   -0.2256 C   0  0  0  0  0  0  0  0  0  0  0  0
    2.4183    1.3083    2.2364 C   0  0  0  0  0  0  0  0  0  0  0  0
    1.1495    1.7441    2.3291 N   0  0  0  0  0  0  0  0  0  0  0  0
    0.3639    1.0331    1.5258 N   0  0  0  0  0  0  0  0  0  0  0  0
   -0.9640    1.1590    1.3331 C   0  0  0  0  0  0  0  0  0  0  0  0
   -3.6121    1.5744    0.2356 C   0  0  0  0  0  0  0  0  0  0  0  0
   -4.9638    1.6136   -0.0235 C   0  0  0  0  0  0  0  0  0  0  0  0
   -7.2810   -1.2234   -1.6153 H   0  0  0  0  0  0  0  0  0  0  0  0
   -8.7453   -0.2482   -1.4058 H   0  0  0  0  0  0  0  0  0  0  0  0
   -8.0987   -1.0654    0.0275 H   0  0  0  0  0  0  0  0  0  0  0  0
   -5.5370   -1.6472   -0.6455 H   0  0  0  0  0  0  0  0  0  0  0  0
   -3.1447   -1.7759   -0.1959 H   0  0  0  0  0  0  0  0  0  0  0  0
   -1.2242   -1.3365   -0.9163 H   0  0  0  0  0  0  0  0  0  0  0  0
    3.2854   -2.0190    2.4180 H   0  0  0  0  0  0  0  0  0  0  0  0
    5.2005   -3.3680    1.6225 H   0  0  0  0  0  0  0  0  0  0  0  0
    6.4554   -2.6337   -0.3096 H   0  0  0  0  0  0  0  0  0  0  0  0
    6.3628    0.9235   -3.3150 H   0  0  0  0  0  0  0  0  0  0  0  0
    4.4772    2.3009   -2.5745 H   0  0  0  0  0  0  0  0  0  0  0  0
    3.1093    1.6107   -0.5643 H   0  0  0  0  0  0  0  0  0  0  0  0
    3.2889    1.7044    2.7828 H   0  0  0  0  0  0  0  0  0  0  0  0
   -1.5842    1.8878    1.8310 H   0  0  0  0  0  0  0  0  0  0  0  0
   -3.1007    2.4993    0.4804 H   0  0  0  0  0  0  0  0  0  0  0  0
   -5.5120    2.5585    0.0165 H   0  0  0  0  0  0  0  0  0  0  0  0
  1  2  1  0
  2  3  1  0
  3  4  2  0
  4  5  1  0
  5  6  2  0
  6  7  1  0
  7  8  1  0
  8  9  2  0
  9 10  1  0
 10 11  2  0
 11 12  1  0
 12 13  2  0
 13 14  1  0
 14 15  2  0
 15 16  1  0
 16 17  2  0
 17 18  1  0
 18 19  2  0
 19 20  1  0
 20 21  2  0
 11 22  1  0
 22 23  2  0
 23 24  1  0
 24 25  1  0
  6 26  1  0
 26 27  2  0
 27  3  1  0
 25  7  2  0
 24 10  1  0
 21 12  1  0
 21 16  1  0
  1 28  1  0
  1 29  1  0
  1 30  1  0
  4 31  1  0
  5 32  1  0
  8 33  1  0
 13 34  1  0
 14 35  1  0
 15 36  1  0
 18 37  1  0
 19 38  1  0
 20 39  1  0
 22 40  1  0
 25 41  1  0
 26 42  1  0
 27 43  1  0
M  END
$$$$
