@<TRIPOS>MOLECULE
*****
 43 47 0 0 0
SMALL
GASTEIGER

@<TRIPOS>ATOM
      1 C          -7.7957   -0.5540   -0.9178 C.3     1  UNL1        0.0788
      2 O          -7.0145    0.5624   -0.5901 O.3     1  UNL1       -0.4951
      3 C          -5.6676    0.4522   -0.3431 C.ar    1  UNL1        0.1201
      4 C          -4.9791   -0.7404   -0.3942 C.ar    1  UNL1       -0.0194
      5 C          -3.6302   -0.8137   -0.1410 C.ar    1  UNL1       -0.0505
      6 C          -2.9726    0.3573    0.1710 C.ar    1  UNL1       -0.0148
      7 C          -1.5537    0.2939    0.4393 C.ar    1  UNL1        0.0184
      8 C          -0.7649   -0.6574   -0.2155 C.ar    1  UNL1        0.0391
      9 N           0.5479   -0.7626   -0.0080 N.ar    1  UNL1       -0.2350
     10 C           1.1036    0.1099    0.8845 C.ar    1  UNL1        0.1632
     11 C           2.4056    0.2737    1.3255 C.ar    1  UNL1        0.0466
     12 C           3.5205   -0.5281    0.8765 C.ar    1  UNL1       -0.0037
     13 C           3.8456   -1.6876    1.5526 C.ar    1  UNL1       -0.0532
     14 C           4.9128   -2.4405    1.1102 C.ar    1  UNL1       -0.0591
     15 C           5.6296   -2.0270    0.0118 C.ar    1  UNL1       -0.0357
     16 C           5.3376   -0.8692   -0.6968 C.ar    1  UNL1        0.0715
     17 N           6.0604   -0.4948   -1.7675 N.ar    1  UNL1       -0.2550
     18 C           5.7612    0.6306   -2.4404 C.ar    1  UNL1        0.0283
     19 C           4.6998    1.4024   -2.0204 C.ar    1  UNL1       -0.0430
     20 C           3.9575    1.0214   -0.9240 C.ar    1  UNL1       -0.0506
     21 C           4.2529   -0.1287   -0.2256 C.ar    1  UNL1        0.0082
     22 C           2.4183    1.3083    2.2364 C.ar    1  UNL1        0.0597
     23 N           1.1495    1.7441    2.3291 N.ar    1  UNL1       -0.1727
     24 N           0.3639    1.0331    1.5258 N.ar    1  UNL1       -0.2206
     25 C          -0.9640    1.1590    1.3331 C.ar    1  UNL1        0.0406
     26 C          -3.6121    1.5744    0.2356 C.ar    1  UNL1       -0.0505
     27 C          -4.9638    1.6136   -0.0235 C.ar    1  UNL1       -0.0194
     28 H          -7.2810   -1.2234   -1.6153 H       1  UNL1        0.0660
     29 H          -8.7453   -0.2482   -1.4058 H       1  UNL1        0.0660
     30 H          -8.0987   -1.0654    0.0275 H       1  UNL1        0.0660
     31 H          -5.5370   -1.6472   -0.6455 H       1  UNL1        0.0654
     32 H          -3.1447   -1.7759   -0.1959 H       1  UNL1        0.0625
     33 H          -1.2242   -1.3365   -0.9163 H       1  UNL1        0.0837
     34 H           3.2854   -2.0190    2.4180 H       1  UNL1        0.0624
     35 H           5.2005   -3.3680    1.6225 H       1  UNL1        0.0618
     36 H           6.4554   -2.6337   -0.3096 H       1  UNL1        0.0639
     37 H           6.3628    0.9235   -3.3150 H       1  UNL1        0.0830
     38 H           4.4772    2.3009   -2.5745 H       1  UNL1        0.0633
     39 H           3.1093    1.6107   -0.5643 H       1  UNL1        0.0625
     40 H           3.2889    1.7044    2.7828 H       1  UNL1        0.0855
     41 H          -1.5842    1.8878    1.8310 H       1  UNL1        0.0837
     42 H          -3.1007    2.4993    0.4804 H       1  UNL1        0.0625
     43 H          -5.5120    2.5585    0.0165 H       1  UNL1        0.0654
@<TRIPOS>BOND
     1     1     2    1
     2     2     3    1
     3     3     4   ar
     4     4     5   ar
     5     5     6   ar
     6     6     7    1
     7     7     8   ar
     8     8     9   ar
     9     9    10   ar
    10    10    11   ar
    11    11    12    1
    12    12    13   ar
    13    13    14   ar
    14    14    15   ar
    15    15    16   ar
    16    16    17   ar
    17    17    18   ar
    18    18    19   ar
    19    19    20   ar
    20    20    21   ar
    21    11    22   ar
    22    22    23   ar
    23    23    24   ar
    24    24    25   ar
    25     6    26   ar
    26    26    27   ar
    27    27     3   ar
    28    25     7   ar
    29    24    10   ar
    30    21    12   ar
    31    21    16   ar
    32     1    28    1
    33     1    29    1
    34     1    30    1
    35     4    31    1
    36     5    32    1
    37     8    33    1
    38    13    34    1
    39    14    35    1
    40    15    36    1
    41    18    37    1
    42    19    38    1
    43    20    39    1
    44    22    40    1
    45    25    41    1
    46    26    42    1
    47    27    43    1
