@<TRIPOS>MOLECULE
*****
 47 51 0 0 0
SMALL
GASTEIGER

@<TRIPOS>ATOM
      1 O          -9.1133   -2.1762   -0.0214 O.2     1  UNL1       -0.2489
      2 C          -8.9578   -0.9188   -0.0130 C.2     1  UNL1        0.3282
      3 O          -9.1920   -0.2436    1.1704 O.3     1  UNL1       -0.4793
      4 C          -8.5277   -0.2044   -1.2632 C.3     1  UNL1        0.1593
      5 N          -7.1517    0.2280   -1.0809 N.ar    1  UNL1       -0.1518
      6 N          -6.7889    1.4066   -0.6035 N.ar    1  UNL1       -0.0452
      7 N          -5.4721    1.4359   -0.5425 N.ar    1  UNL1       -0.1045
      8 C          -4.9930    0.2776   -0.9811 C.ar    1  UNL1        0.2420
      9 C          -3.6064   -0.1594   -1.0796 C.ar    1  UNL1        0.2094
     10 C          -2.5814    0.3435   -0.2886 C.ar    1  UNL1        0.0303
     11 C          -1.4159   -0.3102   -0.6677 C.ar    1  UNL1        0.1648
     12 N          -0.1278   -0.1069   -0.1100 N.pl3   1  UNL1       -0.3119
     13 C           0.4143   -0.8450    0.9980 C.3     1  UNL1        0.0182
     14 C           1.7702   -0.2778    1.2539 C.3     1  UNL1       -0.0039
     15 C           2.8604   -0.9338    0.4094 C.3     1  UNL1        0.0168
     16 N           3.8431    0.1270    0.3347 N.pl3   1  UNL1       -0.3280
     17 C           5.2588    0.0693    0.3315 C.ar    1  UNL1        0.0510
     18 C           6.0384    0.7058    1.3001 C.ar    1  UNL1       -0.0040
     19 C           7.4102    0.6323    1.2733 C.ar    1  UNL1        0.1252
     20 F           8.1295    1.2738    2.2247 F       1  UNL1       -0.2054
     21 C           8.0831   -0.0656    0.3009 C.ar    1  UNL1       -0.0250
     22 C           7.3362   -0.7044   -0.6678 C.ar    1  UNL1       -0.0389
     23 C           5.9466   -0.6255   -0.6360 C.ar    1  UNL1        0.0621
     24 CL          5.0130   -1.4387   -1.8813 Cl      1  UNL1       -0.0816
     25 C           3.1184    1.4005    0.2583 C.3     1  UNL1        0.0168
     26 C           1.7137    1.1031    0.6605 C.3     1  UNL1       -0.0039
     27 C           0.8380    0.8782   -0.5637 C.3     1  UNL1        0.0182
     28 N          -1.7919   -1.1573   -1.6504 N.ar    1  UNL1       -0.0624
     29 O          -3.0880   -1.0427   -1.8677 O.2     1  UNL1       -0.3495
     30 N          -6.0716   -0.4804   -1.3216 N.ar    1  UNL1       -0.1266
     31 H          -8.7631   -0.6291    2.0210 H       1  UNL1        0.2951
     32 H          -9.1937    0.6713   -1.4487 H       1  UNL1        0.0644
     33 H          -8.6367   -0.8902   -2.1145 H       1  UNL1        0.0644
     34 H          -2.6723    1.1036    0.4771 H       1  UNL1        0.0692
     35 H          -0.2139   -0.5865    1.8823 H       1  UNL1        0.0467
     36 H           0.4394   -1.9428    0.8107 H       1  UNL1        0.0467
     37 H           2.0431   -0.2862    2.3344 H       1  UNL1        0.0335
     38 H           2.4138   -1.1954   -0.5530 H       1  UNL1        0.0467
     39 H           3.2340   -1.8522    0.9045 H       1  UNL1        0.0467
     40 H           5.4892    1.2519    2.0584 H       1  UNL1        0.0665
     41 H           9.1831   -0.1265    0.2765 H       1  UNL1        0.0647
     42 H           7.8749   -1.2618   -1.4379 H       1  UNL1        0.0634
     43 H           3.5494    2.0687    1.0573 H       1  UNL1        0.0467
     44 H           3.2223    1.8502   -0.7289 H       1  UNL1        0.0467
     45 H           1.2704    1.8111    1.3623 H       1  UNL1        0.0335
     46 H           1.4940    0.4756   -1.3697 H       1  UNL1        0.0467
     47 H           0.3717    1.8475   -0.8076 H       1  UNL1        0.0467
@<TRIPOS>BOND
     1     1     2    2
     2     2     3    1
     3     2     4    1
     4     4     5    1
     5     5     6   ar
     6     6     7   ar
     7     7     8   ar
     8     8     9    1
     9     9    10   ar
    10    10    11   ar
    11    11    12    1
    12    12    13    1
    13    13    14    1
    14    14    15    1
    15    15    16    1
    16    16    17    1
    17    17    18   ar
    18    18    19   ar
    19    19    20    1
    20    19    21   ar
    21    21    22   ar
    22    22    23   ar
    23    23    24    1
    24    16    25    1
    25    25    26    1
    26    26    27    1
    27    11    28   ar
    28    28    29   ar
    29     8    30   ar
    30    30     5   ar
    31    29     9   ar
    32    27    12    1
    33    26    14    1
    34    23    17   ar
    35     3    31    1
    36     4    32    1
    37     4    33    1
    38    10    34    1
    39    13    35    1
    40    13    36    1
    41    14    37    1
    42    15    38    1
    43    15    39    1
    44    18    40    1
    45    21    41    1
    46    22    42    1
    47    25    43    1
    48    25    44    1
    49    26    45    1
    50    27    46    1
    51    27    47    1
