@<TRIPOS>MOLECULE
*****
 39 40 0 0 0
SMALL
GASTEIGER

@<TRIPOS>ATOM
      1 C          -3.7971    1.9377    1.5131 C.2     1  UNL1       -0.1012
      2 C          -3.4755    0.9407    0.7211 C.2     1  UNL1       -0.0739
      3 C          -2.5455   -0.0887    1.1881 C.3     1  UNL1        0.0329
      4 N          -1.3460   -0.2822    0.4422 N.am    1  UNL1       -0.2932
      5 C          -1.3992   -1.2166   -0.6686 C.3     1  UNL1        0.0329
      6 C          -2.0423   -0.5377   -1.8656 C.2     1  UNL1       -0.0739
      7 C          -3.1326   -1.0310   -2.4353 C.2     1  UNL1       -0.1012
      8 C          -0.1591    0.5033    0.6676 C.2     1  UNL1        0.2274
      9 O          -0.2559    1.5602    1.3379 O.2     1  UNL1       -0.2746
     10 C           1.1624    0.1205    0.1496 C.3     1  UNL1        0.0824
     11 C           1.6395   -1.2375    0.6000 C.ar    1  UNL1        0.0050
     12 C           2.9286   -1.6920    0.7256 C.ar    1  UNL1       -0.0505
     13 C           3.1444   -2.9065    1.2412 C.ar    1  UNL1       -0.0544
     14 C           2.0856   -3.6764    1.6349 C.ar    1  UNL1       -0.0240
     15 S           0.6888   -2.5701    1.2348 S.2     1  UNL1       -0.1006
     16 C           1.4224    0.3916   -1.2957 C.3     1  UNL1       -0.0289
     17 C           2.1997    1.0932   -0.1949 C.3     1  UNL1       -0.0089
     18 C           2.0074    2.5850   -0.1931 C.3     1  UNL1       -0.0028
     19 N           3.2590    3.2096   -0.5589 N.3     1  UNL1       -0.3297
     20 H          -3.3766    1.9967    2.5044 H       1  UNL1        0.0532
     21 H          -4.4914    2.6902    1.1787 H       1  UNL1        0.0532
     22 H          -3.9281    0.9140   -0.2630 H       1  UNL1        0.0582
     23 H          -3.1365   -1.0775    1.0971 H       1  UNL1        0.0508
     24 H          -2.2877    0.0459    2.2651 H       1  UNL1        0.0508
     25 H          -0.3981   -1.5695   -1.0032 H       1  UNL1        0.0508
     26 H          -2.0098   -2.0835   -0.4136 H       1  UNL1        0.0508
     27 H          -1.5845    0.3558   -2.2216 H       1  UNL1        0.0582
     28 H          -3.5973   -1.9455   -2.0652 H       1  UNL1        0.0532
     29 H          -3.5885   -0.5209   -3.2913 H       1  UNL1        0.0532
     30 H           3.8078   -1.0560    0.3958 H       1  UNL1        0.0626
     31 H           4.1964   -3.3377    1.3713 H       1  UNL1        0.0623
     32 H           1.9733   -4.6371    2.0559 H       1  UNL1        0.0693
     33 H           1.8783   -0.4179   -1.8833 H       1  UNL1        0.0282
     34 H           0.6919    0.9917   -1.8627 H       1  UNL1        0.0282
     35 H           3.2605    0.7810   -0.1496 H       1  UNL1        0.0327
     36 H           1.7115    2.9331    0.7964 H       1  UNL1        0.0425
     37 H           1.1936    2.8933   -0.8979 H       1  UNL1        0.0425
     38 H           4.0285    2.5786   -0.2766 H       1  UNL1        0.1182
     39 H           3.2720    3.3621   -1.5807 H       1  UNL1        0.1182
@<TRIPOS>BOND
     1     1     2    2
     2     2     3    1
     3     3     4    1
     4     4     5    1
     5     5     6    1
     6     6     7    2
     7     4     8   am
     8     8     9    2
     9    10     8    1
    10    10    11    1
    11    11    12   ar
    12    12    13   ar
    13    13    14   ar
    14    14    15   ar
    15    10    16    1
    16    16    17    1
    17    17    18    1
    18    18    19    1
    19    17    10    1
    20    15    11   ar
    21     1    20    1
    22     1    21    1
    23     2    22    1
    24     3    23    1
    25     3    24    1
    26     5    25    1
    27     5    26    1
    28     6    27    1
    29     7    28    1
    30     7    29    1
    31    12    30    1
    32    13    31    1
    33    14    32    1
    34    16    33    1
    35    16    34    1
    36    17    35    1
    37    18    36    1
    38    18    37    1
    39    19    38    1
    40    19    39    1
