
     RDKit          3D

 39 40  0  0  0  0  0  0  0  0999 V2000
   -3.7971    1.9377    1.5131 C   0  0  0  0  0  0  0  0  0  0  0  0
   -3.4755    0.9407    0.7211 C   0  0  0  0  0  0  0  0  0  0  0  0
   -2.5455   -0.0887    1.1881 C   0  0  0  0  0  0  0  0  0  0  0  0
   -1.3460   -0.2822    0.4422 N   0  0  0  0  0  0  0  0  0  0  0  0
   -1.3992   -1.2166   -0.6686 C   0  0  0  0  0  0  0  0  0  0  0  0
   -2.0423   -0.5377   -1.8656 C   0  0  0  0  0  0  0  0  0  0  0  0
   -3.1326   -1.0310   -2.4353 C   0  0  0  0  0  0  0  0  0  0  0  0
   -0.1591    0.5033    0.6676 C   0  0  0  0  0  0  0  0  0  0  0  0
   -0.2559    1.5602    1.3379 O   0  0  0  0  0  0  0  0  0  0  0  0
    1.1624    0.1205    0.1496 C   0  0  1  0  0  0  0  0  0  0  0  0
    1.6395   -1.2375    0.6000 C   0  0  0  0  0  0  0  0  0  0  0  0
    2.9286   -1.6920    0.7256 C   0  0  0  0  0  0  0  0  0  0  0  0
    3.1444   -2.9065    1.2412 C   0  0  0  0  0  0  0  0  0  0  0  0
    2.0856   -3.6764    1.6349 C   0  0  0  0  0  0  0  0  0  0  0  0
    0.6888   -2.5701    1.2348 S   0  0  0  0  0  0  0  0  0  0  0  0
    1.4224    0.3916   -1.2957 C   0  0  0  0  0  0  0  0  0  0  0  0
    2.1997    1.0932   -0.1949 C   0  0  1  0  0  0  0  0  0  0  0  0
    2.0074    2.5850   -0.1931 C   0  0  0  0  0  0  0  0  0  0  0  0
    3.2590    3.2096   -0.5589 N   0  0  0  0  0  0  0  0  0  0  0  0
   -3.3766    1.9967    2.5044 H   0  0  0  0  0  0  0  0  0  0  0  0
   -4.4914    2.6902    1.1787 H   0  0  0  0  0  0  0  0  0  0  0  0
   -3.9281    0.9140   -0.2630 H   0  0  0  0  0  0  0  0  0  0  0  0
   -3.1365   -1.0775    1.0971 H   0  0  0  0  0  0  0  0  0  0  0  0
   -2.2877    0.0459    2.2651 H   0  0  0  0  0  0  0  0  0  0  0  0
   -0.3981   -1.5695   -1.0032 H   0  0  0  0  0  0  0  0  0  0  0  0
   -2.0098   -2.0835   -0.4136 H   0  0  0  0  0  0  0  0  0  0  0  0
   -1.5845    0.3558   -2.2216 H   0  0  0  0  0  0  0  0  0  0  0  0
   -3.5973   -1.9455   -2.0652 H   0  0  0  0  0  0  0  0  0  0  0  0
   -3.5885   -0.5209   -3.2913 H   0  0  0  0  0  0  0  0  0  0  0  0
    3.8078   -1.0560    0.3958 H   0  0  0  0  0  0  0  0  0  0  0  0
    4.1964   -3.3377    1.3713 H   0  0  0  0  0  0  0  0  0  0  0  0
    1.9733   -4.6371    2.0559 H   0  0  0  0  0  0  0  0  0  0  0  0
    1.8783   -0.4179   -1.8833 H   0  0  0  0  0  0  0  0  0  0  0  0
    0.6919    0.9917   -1.8627 H   0  0  0  0  0  0  0  0  0  0  0  0
    3.2605    0.7810   -0.1496 H   0  0  0  0  0  0  0  0  0  0  0  0
    1.7115    2.9331    0.7964 H   0  0  0  0  0  0  0  0  0  0  0  0
    1.1936    2.8933   -0.8979 H   0  0  0  0  0  0  0  0  0  0  0  0
    4.0285    2.5786   -0.2766 H   0  0  0  0  0  0  0  0  0  0  0  0
    3.2720    3.3621   -1.5807 H   0  0  0  0  0  0  0  0  0  0  0  0
  1  2  2  3
  2  3  1  0
  3  4  1  0
  4  5  1  0
  5  6  1  0
  6  7  2  3
  4  8  1  0
  8  9  2  0
 10  8  1  1
 10 11  1  0
 11 12  2  0
 12 13  1  0
 13 14  2  0
 14 15  1  0
 10 16  1  0
 16 17  1  0
 17 18  1  0
 18 19  1  0
 17 10  1  0
 15 11  1  0
  1 20  1  0
  1 21  1  0
  2 22  1  0
  3 23  1  0
  3 24  1  0
  5 25  1  0
  5 26  1  0
  6 27  1  0
  7 28  1  0
  7 29  1  0
 12 30  1  0
 13 31  1  0
 14 32  1  0
 16 33  1  0
 16 34  1  0
 17 35  1  6
 18 36  1  0
 18 37  1  0
 19 38  1  0
 19 39  1  0
M  END
$$$$
