@<TRIPOS>MOLECULE
*****
 43 46 0 0 0
SMALL
GASTEIGER

@<TRIPOS>ATOM
      1 N           5.0210    2.7141   -0.5481 N.am    1  UNL1       -0.3253
      2 C           5.9716    1.6856   -0.3720 C.2     1  UNL1        0.2441
      3 O           7.1902    1.9758   -0.4213 O.2     1  UNL1       -0.2703
      4 C           5.6020    0.3020   -0.1355 C.ar    1  UNL1        0.0689
      5 C           6.5371   -0.6983    0.0359 C.ar    1  UNL1        0.0429
      6 N           6.0198   -1.9273    0.2459 N.ar    1  UNL1       -0.2393
      7 C           4.7353   -2.2338    0.2980 C.ar    1  UNL1        0.1245
      8 N           4.4008   -3.5928    0.5303 N.pl3   1  UNL1       -0.3426
      9 C           3.7422   -1.2331    0.1266 C.ar    1  UNL1        0.0300
     10 C           2.4008   -1.3880    0.1528 C.ar    1  UNL1       -0.0359
     11 C           1.6208   -0.3139   -0.0312 C.ar    1  UNL1        0.0206
     12 C           0.1995   -0.0937   -0.0692 C.ar    1  UNL1       -0.0112
     13 C          -0.3692    1.1477   -0.2817 C.ar    1  UNL1       -0.0518
     14 C          -1.7468    1.3083   -0.3095 C.ar    1  UNL1       -0.0401
     15 C          -2.5791    0.2311   -0.1255 C.ar    1  UNL1        0.0298
     16 N          -3.9915    0.3649   -0.1503 N.pl3   1  UNL1       -0.3255
     17 C          -4.8727   -0.7615    0.0814 C.3     1  UNL1        0.0357
     18 C          -6.1506   -0.1691    0.6925 C.3     1  UNL1        0.0634
     19 O          -6.8029    0.6614   -0.1847 O.3     1  UNL1       -0.3767
     20 C          -5.9953    1.4247   -0.9859 C.3     1  UNL1        0.0634
     21 C          -4.6040    1.6506   -0.4135 C.3     1  UNL1        0.0357
     22 C          -2.0045   -1.0105    0.0871 C.ar    1  UNL1       -0.0401
     23 C          -0.6333   -1.1654    0.1140 C.ar    1  UNL1       -0.0518
     24 S           2.8422    1.0577   -0.2654 S.2     1  UNL1       -0.0873
     25 C           4.2513    0.0026   -0.0846 C.ar    1  UNL1        0.0367
     26 H           4.8441    3.1174   -1.4895 H       1  UNL1        0.1453
     27 H           4.4750    3.0947    0.2508 H       1  UNL1        0.1453
     28 H           7.5883   -0.4822   -0.0008 H       1  UNL1        0.0838
     29 H           3.6049   -3.8357    1.1665 H       1  UNL1        0.1437
     30 H           4.9081   -4.3915    0.0982 H       1  UNL1        0.1437
     31 H           1.8985   -2.3854    0.3232 H       1  UNL1        0.0636
     32 H           0.2712    1.9848   -0.4248 H       1  UNL1        0.0624
     33 H          -2.1656    2.3057   -0.4797 H       1  UNL1        0.0636
     34 H          -5.1434   -1.2920   -0.8409 H       1  UNL1        0.0486
     35 H          -4.4749   -1.4561    0.8611 H       1  UNL1        0.0486
     36 H          -5.7991    0.4445    1.5542 H       1  UNL1        0.0575
     37 H          -6.8257   -0.9854    1.0106 H       1  UNL1        0.0575
     38 H          -5.9471    1.0809   -2.0395 H       1  UNL1        0.0575
     39 H          -6.4603    2.4501   -1.0372 H       1  UNL1        0.0575
     40 H          -4.7018    2.2736    0.4926 H       1  UNL1        0.0486
     41 H          -4.0516    2.1970   -1.2309 H       1  UNL1        0.0486
     42 H          -2.5942   -1.9145    0.2411 H       1  UNL1        0.0636
     43 H          -0.2109   -2.1451    0.2817 H       1  UNL1        0.0624
@<TRIPOS>BOND
     1     1     2   am
     2     2     3    2
     3     2     4    1
     4     4     5   ar
     5     5     6   ar
     6     6     7   ar
     7     7     8    1
     8     7     9   ar
     9     9    10   ar
    10    10    11   ar
    11    11    12    1
    12    12    13   ar
    13    13    14   ar
    14    14    15   ar
    15    15    16    1
    16    16    17    1
    17    17    18    1
    18    18    19    1
    19    19    20    1
    20    20    21    1
    21    15    22   ar
    22    22    23   ar
    23    11    24   ar
    24    24    25   ar
    25    25     4   ar
    26    25     9   ar
    27    23    12   ar
    28    21    16    1
    29     1    26    1
    30     1    27    1
    31     5    28    1
    32     8    29    1
    33     8    30    1
    34    10    31    1
    35    13    32    1
    36    14    33    1
    37    17    34    1
    38    17    35    1
    39    18    36    1
    40    18    37    1
    41    20    38    1
    42    20    39    1
    43    21    40    1
    44    21    41    1
    45    22    42    1
    46    23    43    1
