
     RDKit          3D

 43 46  0  0  0  0  0  0  0  0999 V2000
    5.0210    2.7141   -0.5481 N   0  0  0  0  0  0  0  0  0  0  0  0
    5.9716    1.6856   -0.3720 C   0  0  0  0  0  0  0  0  0  0  0  0
    7.1902    1.9758   -0.4213 O   0  0  0  0  0  0  0  0  0  0  0  0
    5.6020    0.3020   -0.1355 C   0  0  0  0  0  0  0  0  0  0  0  0
    6.5371   -0.6983    0.0359 C   0  0  0  0  0  0  0  0  0  0  0  0
    6.0198   -1.9273    0.2459 N   0  0  0  0  0  0  0  0  0  0  0  0
    4.7353   -2.2338    0.2980 C   0  0  0  0  0  0  0  0  0  0  0  0
    4.4008   -3.5928    0.5303 N   0  0  0  0  0  0  0  0  0  0  0  0
    3.7422   -1.2331    0.1266 C   0  0  0  0  0  0  0  0  0  0  0  0
    2.4008   -1.3880    0.1528 C   0  0  0  0  0  0  0  0  0  0  0  0
    1.6208   -0.3139   -0.0312 C   0  0  0  0  0  0  0  0  0  0  0  0
    0.1995   -0.0937   -0.0692 C   0  0  0  0  0  0  0  0  0  0  0  0
   -0.3692    1.1477   -0.2817 C   0  0  0  0  0  0  0  0  0  0  0  0
   -1.7468    1.3083   -0.3095 C   0  0  0  0  0  0  0  0  0  0  0  0
   -2.5791    0.2311   -0.1255 C   0  0  0  0  0  0  0  0  0  0  0  0
   -3.9915    0.3649   -0.1503 N   0  0  0  0  0  0  0  0  0  0  0  0
   -4.8727   -0.7615    0.0814 C   0  0  0  0  0  0  0  0  0  0  0  0
   -6.1506   -0.1691    0.6925 C   0  0  0  0  0  0  0  0  0  0  0  0
   -6.8029    0.6614   -0.1847 O   0  0  0  0  0  0  0  0  0  0  0  0
   -5.9953    1.4247   -0.9859 C   0  0  0  0  0  0  0  0  0  0  0  0
   -4.6040    1.6506   -0.4135 C   0  0  0  0  0  0  0  0  0  0  0  0
   -2.0045   -1.0105    0.0871 C   0  0  0  0  0  0  0  0  0  0  0  0
   -0.6333   -1.1654    0.1140 C   0  0  0  0  0  0  0  0  0  0  0  0
    2.8422    1.0577   -0.2654 S   0  0  0  0  0  0  0  0  0  0  0  0
    4.2513    0.0026   -0.0846 C   0  0  0  0  0  0  0  0  0  0  0  0
    4.8441    3.1174   -1.4895 H   0  0  0  0  0  0  0  0  0  0  0  0
    4.4750    3.0947    0.2508 H   0  0  0  0  0  0  0  0  0  0  0  0
    7.5883   -0.4822   -0.0008 H   0  0  0  0  0  0  0  0  0  0  0  0
    3.6049   -3.8357    1.1665 H   0  0  0  0  0  0  0  0  0  0  0  0
    4.9081   -4.3915    0.0982 H   0  0  0  0  0  0  0  0  0  0  0  0
    1.8985   -2.3854    0.3232 H   0  0  0  0  0  0  0  0  0  0  0  0
    0.2712    1.9848   -0.4248 H   0  0  0  0  0  0  0  0  0  0  0  0
   -2.1656    2.3057   -0.4797 H   0  0  0  0  0  0  0  0  0  0  0  0
   -5.1434   -1.2920   -0.8409 H   0  0  0  0  0  0  0  0  0  0  0  0
   -4.4749   -1.4561    0.8611 H   0  0  0  0  0  0  0  0  0  0  0  0
   -5.7991    0.4445    1.5542 H   0  0  0  0  0  0  0  0  0  0  0  0
   -6.8257   -0.9854    1.0106 H   0  0  0  0  0  0  0  0  0  0  0  0
   -5.9471    1.0809   -2.0395 H   0  0  0  0  0  0  0  0  0  0  0  0
   -6.4603    2.4501   -1.0372 H   0  0  0  0  0  0  0  0  0  0  0  0
   -4.7018    2.2736    0.4926 H   0  0  0  0  0  0  0  0  0  0  0  0
   -4.0516    2.1970   -1.2309 H   0  0  0  0  0  0  0  0  0  0  0  0
   -2.5942   -1.9145    0.2411 H   0  0  0  0  0  0  0  0  0  0  0  0
   -0.2109   -2.1451    0.2817 H   0  0  0  0  0  0  0  0  0  0  0  0
  1  2  1  0
  2  3  2  0
  2  4  1  0
  4  5  2  0
  5  6  1  0
  6  7  2  0
  7  8  1  0
  7  9  1  0
  9 10  1  0
 10 11  2  0
 11 12  1  0
 12 13  2  0
 13 14  1  0
 14 15  2  0
 15 16  1  0
 16 17  1  0
 17 18  1  0
 18 19  1  0
 19 20  1  0
 20 21  1  0
 15 22  1  0
 22 23  2  0
 11 24  1  0
 24 25  1  0
 25  4  1  0
 25  9  2  0
 23 12  1  0
 21 16  1  0
  1 26  1  0
  1 27  1  0
  5 28  1  0
  8 29  1  0
  8 30  1  0
 10 31  1  0
 13 32  1  0
 14 33  1  0
 17 34  1  0
 17 35  1  0
 18 36  1  0
 18 37  1  0
 20 38  1  0
 20 39  1  0
 21 40  1  0
 21 41  1  0
 22 42  1  0
 23 43  1  0
M  END
$$$$
