
     RDKit          3D

 16 17  0  0  0  0  0  0  0  0999 V2000
   -1.1312    2.1882   -0.0321 N   0  0  0  0  0  0  0  0  0  0  0  0
   -0.9895    0.8899    0.0037 C   0  0  0  0  0  0  0  0  0  0  0  0
   -2.1610    0.2063    0.0621 N   0  0  0  0  0  0  0  0  0  0  0  0
   -2.0190   -1.1442    0.0995 C   0  0  0  0  0  0  0  0  0  0  0  0
   -0.8173   -1.7502    0.0803 N   0  0  0  0  0  0  0  0  0  0  0  0
    0.3291   -1.0870    0.0233 C   0  0  0  0  0  0  0  0  0  0  0  0
    0.2575    0.2963   -0.0174 C   0  0  0  0  0  0  0  0  0  0  0  0
    1.4882    0.8516   -0.0736 N   0  0  0  0  0  0  0  0  0  0  0  0
    2.3754   -0.1880   -0.0695 C   0  0  0  0  0  0  0  0  0  0  0  0
    1.6947   -1.3901   -0.0105 C   0  0  0  0  0  0  0  0  0  0  0  0
   -0.2825    2.7940   -0.0778 H   0  0  0  0  0  0  0  0  0  0  0  0
   -3.0842    0.6940    0.0762 H   0  0  0  0  0  0  0  0  0  0  0  0
   -2.8890   -1.7506    0.1459 H   0  0  0  0  0  0  0  0  0  0  0  0
    1.7033    1.8726   -0.1122 H   0  0  0  0  0  0  0  0  0  0  0  0
    3.4395   -0.0835   -0.1064 H   0  0  0  0  0  0  0  0  0  0  0  0
    2.0859   -2.3992    0.0084 H   0  0  0  0  0  0  0  0  0  0  0  0
  1  2  2  3
  2  3  1  0
  3  4  1  0
  4  5  2  0
  5  6  1  0
  6  7  2  0
  7  8  1  0
  8  9  1  0
  9 10  2  0
  7  2  1  0
 10  6  1  0
  1 11  1  0
  3 12  1  0
  4 13  1  0
  8 14  1  0
  9 15  1  0
 10 16  1  0
M  END
$$$$
