@<TRIPOS>MOLECULE
*****
 16 17 0 0 0
SMALL
GASTEIGER

@<TRIPOS>ATOM
      1 N          -1.1312    2.1882   -0.0321 N.2     1  UNL1       -0.2818
      2 C          -0.9895    0.8899    0.0037 C.ar    1  UNL1        0.1503
      3 N          -2.1610    0.2063    0.0621 N.ar    1  UNL1       -0.3297
      4 C          -2.0190   -1.1442    0.0995 C.ar    1  UNL1        0.0955
      5 N          -0.8173   -1.7502    0.0803 N.ar    1  UNL1       -0.2357
      6 C           0.3291   -1.0870    0.0233 C.ar    1  UNL1        0.0937
      7 C           0.2575    0.2963   -0.0174 C.ar    1  UNL1        0.1073
      8 N           1.4882    0.8516   -0.0736 N.ar    1  UNL1       -0.3566
      9 C           2.3754   -0.1880   -0.0695 C.ar    1  UNL1        0.0043
     10 C           1.6947   -1.3901   -0.0105 C.ar    1  UNL1       -0.0182
     11 H          -0.2825    2.7940   -0.0778 H       1  UNL1        0.1884
     12 H          -3.0842    0.6940    0.0762 H       1  UNL1        0.1682
     13 H          -2.8890   -1.7506    0.1459 H       1  UNL1        0.1027
     14 H           1.7033    1.8726   -0.1122 H       1  UNL1        0.1655
     15 H           3.4395   -0.0835   -0.1064 H       1  UNL1        0.0807
     16 H           2.0859   -2.3992    0.0084 H       1  UNL1        0.0654
@<TRIPOS>BOND
     1     1     2    2
     2     2     3   ar
     3     3     4   ar
     4     4     5   ar
     5     5     6   ar
     6     6     7   ar
     7     7     8   ar
     8     8     9   ar
     9     9    10   ar
    10     7     2   ar
    11    10     6   ar
    12     1    11    1
    13     3    12    1
    14     4    13    1
    15     8    14    1
    16     9    15    1
    17    10    16    1
