@<TRIPOS>MOLECULE
*****
 26 25 0 0 0
SMALL
GASTEIGER

@<TRIPOS>ATOM
      1 C           4.1754   -0.0035   -0.0890 C.3     1  UNL1       -0.0586
      2 C           2.8477   -0.6774   -0.2673 C.3     1  UNL1        0.0030
      3 C           1.7115    0.2703   -0.0092 C.2     1  UNL1        0.1332
      4 O           1.9208    1.4328    0.3034 O.2     1  UNL1       -0.2974
      5 C           0.3381   -0.2911   -0.1570 C.3     1  UNL1        0.0084
      6 C          -0.7161    0.7414    0.1236 C.3     1  UNL1       -0.0179
      7 C          -2.0714    0.0636   -0.0556 C.3     1  UNL1        0.0609
      8 C          -3.1248    1.0859    0.2223 C.3     1  UNL1       -0.0363
      9 C          -2.1944   -1.1517    0.8336 C.3     1  UNL1       -0.0363
     10 O          -2.0956   -0.4044   -1.3653 O.3     1  UNL1       -0.3891
     11 H           4.7754   -0.0069   -1.0427 H       1  UNL1        0.0234
     12 H           4.7515   -0.5654    0.6645 H       1  UNL1        0.0234
     13 H           4.0645    1.0661    0.1913 H       1  UNL1        0.0234
     14 H           2.8092   -1.1274   -1.2672 H       1  UNL1        0.0339
     15 H           2.7052   -1.4967    0.4938 H       1  UNL1        0.0339
     16 H           0.2454   -0.5659   -1.2393 H       1  UNL1        0.0342
     17 H           0.2392   -1.1540    0.5100 H       1  UNL1        0.0342
     18 H          -0.6275    1.1715    1.1381 H       1  UNL1        0.0297
     19 H          -0.6343    1.5466   -0.6089 H       1  UNL1        0.0297
     20 H          -4.0694    0.6529    0.6176 H       1  UNL1        0.0257
     21 H          -2.7897    1.8086    1.0223 H       1  UNL1        0.0257
     22 H          -3.2946    1.6874   -0.6993 H       1  UNL1        0.0257
     23 H          -3.2923   -1.2654    1.0328 H       1  UNL1        0.0257
     24 H          -1.5939   -1.0610    1.7662 H       1  UNL1        0.0257
     25 H          -1.8280   -2.0833    0.3129 H       1  UNL1        0.0257
     26 H          -2.2519    0.3272   -2.0248 H       1  UNL1        0.2101
@<TRIPOS>BOND
     1     1     2    1
     2     2     3    1
     3     3     4    2
     4     3     5    1
     5     5     6    1
     6     6     7    1
     7     7     8    1
     8     7     9    1
     9     7    10    1
    10     1    11    1
    11     1    12    1
    12     1    13    1
    13     2    14    1
    14     2    15    1
    15     5    16    1
    16     5    17    1
    17     6    18    1
    18     6    19    1
    19     8    20    1
    20     8    21    1
    21     8    22    1
    22     9    23    1
    23     9    24    1
    24     9    25    1
    25    10    26    1
