@<TRIPOS>MOLECULE
*****
 56 60 0 0 0
SMALL
GASTEIGER

@<TRIPOS>ATOM
      1 C           8.1832   -1.1918    0.8137 C.3     1  UNL1       -0.0126
      2 N           6.8162   -0.8388    0.5216 N.3     1  UNL1       -0.3024
      3 C           5.8366   -1.7759    0.9808 C.3     1  UNL1        0.0144
      4 C           4.5849   -1.8514    0.1827 C.3     1  UNL1        0.0251
      5 N           4.3044   -0.6063   -0.4456 N.pl3   1  UNL1       -0.3252
      6 C           3.0279    0.0356   -0.4956 C.ar    1  UNL1        0.0656
      7 C           2.5152    0.3713   -1.7284 C.ar    1  UNL1       -0.0361
      8 C           1.2912    1.0078   -1.7965 C.ar    1  UNL1       -0.0386
      9 C           0.5439    1.3296   -0.6582 C.ar    1  UNL1        0.0338
     10 N          -0.6906    1.9785   -0.8610 N.pl3   1  UNL1       -0.3197
     11 C          -1.9679    1.3713   -0.6898 C.2     1  UNL1        0.0065
     12 C          -2.7652    1.8126    0.2620 C.2     1  UNL1        0.0587
     13 C          -2.2954    2.9076    1.0993 C.2     1  UNL1        0.2523
     14 O          -1.1618    3.4441    0.9685 O.2     1  UNL1       -0.2697
     15 N          -3.1890    3.3816    2.1229 N.am    1  UNL1       -0.2483
     16 C          -4.4585    2.7951    2.2874 C.2     1  UNL1        0.2511
     17 O          -5.2601    3.1845    3.1659 O.2     1  UNL1       -0.2698
     18 C          -4.9074    1.6895    1.4284 C.ar    1  UNL1        0.0450
     19 C          -6.1461    1.1134    1.6039 C.ar    1  UNL1       -0.0485
     20 C          -6.5705    0.0718    0.8127 C.ar    1  UNL1       -0.0532
     21 C          -5.7754   -0.4441   -0.1939 C.ar    1  UNL1       -0.0143
     22 C          -6.2722   -1.5593   -0.9850 C.ar    1  UNL1        0.0198
     23 C          -5.5911   -2.5876   -1.5944 C.ar    1  UNL1       -0.0162
     24 C          -6.5116   -3.4150   -2.2127 C.ar    1  UNL1        0.0923
     25 O          -7.7167   -2.9020   -1.9846 O.2     1  UNL1       -0.4704
     26 C          -7.6169   -1.8043   -1.2624 C.ar    1  UNL1        0.0994
     27 C          -4.5350    0.1419   -0.3618 C.ar    1  UNL1       -0.0453
     28 C          -4.0866    1.1861    0.4179 C.ar    1  UNL1        0.0010
     29 C           1.0753    0.9822    0.5710 C.ar    1  UNL1       -0.0034
     30 C           2.2890    0.3522    0.6333 C.ar    1  UNL1        0.1461
     31 F           2.8258    0.0020    1.8158 F       1  UNL1       -0.2035
     32 C           5.3751    0.1079   -1.1209 C.3     1  UNL1        0.0251
     33 C           6.7077   -0.5356   -0.8758 C.3     1  UNL1        0.0144
     34 H           8.3165   -1.7859    1.7325 H       1  UNL1        0.0391
     35 H           8.5746   -1.7792   -0.0595 H       1  UNL1        0.0391
     36 H           8.7541   -0.2328    0.8367 H       1  UNL1        0.0391
     37 H           5.5904   -1.5545    2.0572 H       1  UNL1        0.0442
     38 H           6.3422   -2.7807    1.0322 H       1  UNL1        0.0442
     39 H           4.7437   -2.6108   -0.6407 H       1  UNL1        0.0476
     40 H           3.7805   -2.1906    0.8706 H       1  UNL1        0.0476
     41 H           3.0779    0.1328   -2.6427 H       1  UNL1        0.0637
     42 H           0.8996    1.2682   -2.7797 H       1  UNL1        0.0637
     43 H          -0.6231    2.9870   -1.1754 H       1  UNL1        0.1516
     44 H          -2.2056    0.5599   -1.3785 H       1  UNL1        0.0789
     45 H          -2.8775    4.1571    2.7325 H       1  UNL1        0.1581
     46 H          -6.7650    1.5280    2.3978 H       1  UNL1        0.0625
     47 H          -7.5434   -0.3685    0.9637 H       1  UNL1        0.0624
     48 H          -4.5234   -2.7233   -1.5890 H       1  UNL1        0.0655
     49 H          -6.3802   -4.3218   -2.7893 H       1  UNL1        0.1029
     50 H          -8.4307   -1.1819   -0.9299 H       1  UNL1        0.1035
     51 H          -3.9077   -0.2444   -1.1375 H       1  UNL1        0.0630
     52 H           0.5364    1.2094    1.4662 H       1  UNL1        0.0665
     53 H           5.3862    1.1296   -0.6356 H       1  UNL1        0.0476
     54 H           5.1191    0.2462   -2.1771 H       1  UNL1        0.0476
     55 H           6.7829   -1.4219   -1.5372 H       1  UNL1        0.0442
     56 H           7.4944    0.2237   -1.1300 H       1  UNL1        0.0442
@<TRIPOS>BOND
     1     1     2    1
     2     2     3    1
     3     3     4    1
     4     4     5    1
     5     5     6    1
     6     6     7   ar
     7     7     8   ar
     8     8     9   ar
     9     9    10    1
    10    10    11    1
    11    11    12    2
    12    12    13    1
    13    13    14    2
    14    13    15   am
    15    15    16   am
    16    16    17    2
    17    16    18    1
    18    18    19   ar
    19    19    20   ar
    20    20    21   ar
    21    21    22    1
    22    22    23   ar
    23    23    24   ar
    24    24    25   ar
    25    25    26   ar
    26    21    27   ar
    27    27    28   ar
    28     9    29   ar
    29    29    30   ar
    30    30    31    1
    31     5    32    1
    32    32    33    1
    33    33     2    1
    34    30     6   ar
    35    28    12    1
    36    28    18   ar
    37    26    22   ar
    38     1    34    1
    39     1    35    1
    40     1    36    1
    41     3    37    1
    42     3    38    1
    43     4    39    1
    44     4    40    1
    45     7    41    1
    46     8    42    1
    47    10    43    1
    48    11    44    1
    49    15    45    1
    50    19    46    1
    51    20    47    1
    52    23    48    1
    53    24    49    1
    54    26    50    1
    55    27    51    1
    56    29    52    1
    57    32    53    1
    58    32    54    1
    59    33    55    1
    60    33    56    1
