
     RDKit          3D

 56 60  0  0  0  0  0  0  0  0999 V2000
    8.1832   -1.1918    0.8137 C   0  0  0  0  0  0  0  0  0  0  0  0
    6.8162   -0.8388    0.5216 N   0  0  0  0  0  0  0  0  0  0  0  0
    5.8366   -1.7759    0.9808 C   0  0  0  0  0  0  0  0  0  0  0  0
    4.5849   -1.8514    0.1827 C   0  0  0  0  0  0  0  0  0  0  0  0
    4.3044   -0.6063   -0.4456 N   0  0  0  0  0  0  0  0  0  0  0  0
    3.0279    0.0356   -0.4956 C   0  0  0  0  0  0  0  0  0  0  0  0
    2.5152    0.3713   -1.7284 C   0  0  0  0  0  0  0  0  0  0  0  0
    1.2912    1.0078   -1.7965 C   0  0  0  0  0  0  0  0  0  0  0  0
    0.5439    1.3296   -0.6582 C   0  0  0  0  0  0  0  0  0  0  0  0
   -0.6906    1.9785   -0.8610 N   0  0  0  0  0  0  0  0  0  0  0  0
   -1.9679    1.3713   -0.6898 C   0  0  0  0  0  0  0  0  0  0  0  0
   -2.7652    1.8126    0.2620 C   0  0  0  0  0  0  0  0  0  0  0  0
   -2.2954    2.9076    1.0993 C   0  0  0  0  0  0  0  0  0  0  0  0
   -1.1618    3.4441    0.9685 O   0  0  0  0  0  0  0  0  0  0  0  0
   -3.1890    3.3816    2.1229 N   0  0  0  0  0  0  0  0  0  0  0  0
   -4.4585    2.7951    2.2874 C   0  0  0  0  0  0  0  0  0  0  0  0
   -5.2601    3.1845    3.1659 O   0  0  0  0  0  0  0  0  0  0  0  0
   -4.9074    1.6895    1.4284 C   0  0  0  0  0  0  0  0  0  0  0  0
   -6.1461    1.1134    1.6039 C   0  0  0  0  0  0  0  0  0  0  0  0
   -6.5705    0.0718    0.8127 C   0  0  0  0  0  0  0  0  0  0  0  0
   -5.7754   -0.4441   -0.1939 C   0  0  0  0  0  0  0  0  0  0  0  0
   -6.2722   -1.5593   -0.9850 C   0  0  0  0  0  0  0  0  0  0  0  0
   -5.5911   -2.5876   -1.5944 C   0  0  0  0  0  0  0  0  0  0  0  0
   -6.5116   -3.4150   -2.2127 C   0  0  0  0  0  0  0  0  0  0  0  0
   -7.7167   -2.9020   -1.9846 O   0  0  0  0  0  0  0  0  0  0  0  0
   -7.6169   -1.8043   -1.2624 C   0  0  0  0  0  0  0  0  0  0  0  0
   -4.5350    0.1419   -0.3618 C   0  0  0  0  0  0  0  0  0  0  0  0
   -4.0866    1.1861    0.4179 C   0  0  0  0  0  0  0  0  0  0  0  0
    1.0753    0.9822    0.5710 C   0  0  0  0  0  0  0  0  0  0  0  0
    2.2890    0.3522    0.6333 C   0  0  0  0  0  0  0  0  0  0  0  0
    2.8258    0.0020    1.8158 F   0  0  0  0  0  0  0  0  0  0  0  0
    5.3751    0.1079   -1.1209 C   0  0  0  0  0  0  0  0  0  0  0  0
    6.7077   -0.5356   -0.8758 C   0  0  0  0  0  0  0  0  0  0  0  0
    8.3165   -1.7859    1.7325 H   0  0  0  0  0  0  0  0  0  0  0  0
    8.5746   -1.7792   -0.0595 H   0  0  0  0  0  0  0  0  0  0  0  0
    8.7541   -0.2328    0.8367 H   0  0  0  0  0  0  0  0  0  0  0  0
    5.5904   -1.5545    2.0572 H   0  0  0  0  0  0  0  0  0  0  0  0
    6.3422   -2.7807    1.0322 H   0  0  0  0  0  0  0  0  0  0  0  0
    4.7437   -2.6108   -0.6407 H   0  0  0  0  0  0  0  0  0  0  0  0
    3.7805   -2.1906    0.8706 H   0  0  0  0  0  0  0  0  0  0  0  0
    3.0779    0.1328   -2.6427 H   0  0  0  0  0  0  0  0  0  0  0  0
    0.8996    1.2682   -2.7797 H   0  0  0  0  0  0  0  0  0  0  0  0
   -0.6231    2.9870   -1.1754 H   0  0  0  0  0  0  0  0  0  0  0  0
   -2.2056    0.5599   -1.3785 H   0  0  0  0  0  0  0  0  0  0  0  0
   -2.8775    4.1571    2.7325 H   0  0  0  0  0  0  0  0  0  0  0  0
   -6.7650    1.5280    2.3978 H   0  0  0  0  0  0  0  0  0  0  0  0
   -7.5434   -0.3685    0.9637 H   0  0  0  0  0  0  0  0  0  0  0  0
   -4.5234   -2.7233   -1.5890 H   0  0  0  0  0  0  0  0  0  0  0  0
   -6.3802   -4.3218   -2.7893 H   0  0  0  0  0  0  0  0  0  0  0  0
   -8.4307   -1.1819   -0.9299 H   0  0  0  0  0  0  0  0  0  0  0  0
   -3.9077   -0.2444   -1.1375 H   0  0  0  0  0  0  0  0  0  0  0  0
    0.5364    1.2094    1.4662 H   0  0  0  0  0  0  0  0  0  0  0  0
    5.3862    1.1296   -0.6356 H   0  0  0  0  0  0  0  0  0  0  0  0
    5.1191    0.2462   -2.1771 H   0  0  0  0  0  0  0  0  0  0  0  0
    6.7829   -1.4219   -1.5372 H   0  0  0  0  0  0  0  0  0  0  0  0
    7.4944    0.2237   -1.1300 H   0  0  0  0  0  0  0  0  0  0  0  0
  1  2  1  0
  2  3  1  0
  3  4  1  0
  4  5  1  0
  5  6  1  0
  6  7  2  0
  7  8  1  0
  8  9  2  0
  9 10  1  0
 10 11  1  0
 11 12  2  3
 12 13  1  0
 13 14  2  0
 13 15  1  0
 15 16  1  0
 16 17  2  0
 16 18  1  0
 18 19  2  0
 19 20  1  0
 20 21  2  0
 21 22  1  0
 22 23  1  0
 23 24  2  0
 24 25  1  0
 25 26  1  0
 21 27  1  0
 27 28  2  0
  9 29  1  0
 29 30  2  0
 30 31  1  0
  5 32  1  0
 32 33  1  0
 33  2  1  0
 30  6  1  0
 28 12  1  0
 28 18  1  0
 26 22  2  0
  1 34  1  0
  1 35  1  0
  1 36  1  0
  3 37  1  0
  3 38  1  0
  4 39  1  0
  4 40  1  0
  7 41  1  0
  8 42  1  0
 10 43  1  0
 11 44  1  0
 15 45  1  0
 19 46  1  0
 20 47  1  0
 23 48  1  0
 24 49  1  0
 26 50  1  0
 27 51  1  0
 29 52  1  0
 32 53  1  0
 32 54  1  0
 33 55  1  0
 33 56  1  0
M  END
$$$$
