@<TRIPOS>MOLECULE
*****
 44 46 0 0 0
SMALL
GASTEIGER

@<TRIPOS>ATOM
      1 C           7.0472    1.8141   -0.4516 C.3     1  UNL1        0.0791
      2 O           6.4219    0.9898    0.5098 O.3     1  UNL1       -0.4885
      3 C           5.1383    0.4919    0.3681 C.ar    1  UNL1        0.2031
      4 C           4.9171   -0.7303   -0.2505 C.ar    1  UNL1        0.1628
      5 O           6.0423   -1.4007   -0.7052 O.3     1  UNL1       -0.5032
      6 C           3.6489   -1.2456   -0.4027 C.ar    1  UNL1       -0.0065
      7 C           2.5503   -0.5514    0.0619 C.ar    1  UNL1        0.0161
      8 C           1.2177   -1.1275   -0.1161 C.ar    1  UNL1        0.1321
      9 N           0.6398   -2.0826   -0.5621 N.ar    1  UNL1       -0.1620
     10 N          -0.6029   -2.3387   -0.5811 N.ar    1  UNL1       -0.2435
     11 C          -1.1397   -3.5877   -1.1842 C.3     1  UNL1        0.0329
     12 C          -1.4363   -1.4456   -0.0370 C.ar    1  UNL1        0.1869
     13 N          -2.6750   -1.3497    0.1277 N.2     1  UNL1       -0.2564
     14 C          -3.3216   -0.2274    0.7744 C.3     1  UNL1        0.0536
     15 C          -3.0420    1.0821    0.1015 C.3     1  UNL1       -0.0305
     16 C          -4.2180    2.0013    0.3802 C.3     1  UNL1       -0.0511
     17 C          -5.4525    1.5706   -0.3777 C.3     1  UNL1       -0.0529
     18 C          -5.3609    0.0681   -0.5731 C.3     1  UNL1       -0.0511
     19 C          -4.8158   -0.4961    0.7420 C.3     1  UNL1       -0.0305
     20 S          -0.2674   -0.1619    0.5262 S.2     1  UNL1       -0.0286
     21 C           2.7625    0.6588    0.6751 C.ar    1  UNL1       -0.0065
     22 C           4.0315    1.1738    0.8271 C.ar    1  UNL1        0.1628
     23 O           4.2150    2.4029    1.4528 O.3     1  UNL1       -0.5032
     24 H           7.4787    2.7375    0.0164 H       1  UNL1        0.0660
     25 H           7.8727    1.2606   -0.9337 H       1  UNL1        0.0660
     26 H           6.2589    2.1003   -1.1927 H       1  UNL1        0.0660
     27 H           6.8715   -0.9257   -1.0106 H       1  UNL1        0.2923
     28 H           3.4817   -2.2154   -0.8944 H       1  UNL1        0.0662
     29 H          -0.4983   -3.9752   -1.9731 H       1  UNL1        0.0473
     30 H          -2.1327   -3.3873   -1.6334 H       1  UNL1        0.0473
     31 H          -1.2279   -4.3535   -0.3936 H       1  UNL1        0.0473
     32 H          -3.0394   -0.1432    1.8413 H       1  UNL1        0.0545
     33 H          -2.8098    0.9998   -0.9625 H       1  UNL1        0.0286
     34 H          -2.1552    1.5585    0.5888 H       1  UNL1        0.0286
     35 H          -3.9734    3.0596    0.1847 H       1  UNL1        0.0266
     36 H          -4.4575    1.9002    1.4634 H       1  UNL1        0.0266
     37 H          -5.5528    2.0926   -1.3582 H       1  UNL1        0.0265
     38 H          -6.3749    1.7575    0.2332 H       1  UNL1        0.0265
     39 H          -6.3464   -0.3533   -0.8006 H       1  UNL1        0.0266
     40 H          -4.6913   -0.1354   -1.4114 H       1  UNL1        0.0266
     41 H          -5.3354    0.0606    1.5528 H       1  UNL1        0.0286
     42 H          -5.0736   -1.5470    0.8537 H       1  UNL1        0.0286
     43 H           1.9135    1.2256    1.0501 H       1  UNL1        0.0662
     44 H           3.4910    2.7749    2.0479 H       1  UNL1        0.2923
@<TRIPOS>BOND
     1     1     2    1
     2     2     3    1
     3     3     4   ar
     4     4     5    1
     5     4     6   ar
     6     6     7   ar
     7     7     8    1
     8     8     9   ar
     9     9    10   ar
    10    10    11    1
    11    10    12   ar
    12    12    13    2
    13    13    14    1
    14    14    15    1
    15    15    16    1
    16    16    17    1
    17    17    18    1
    18    18    19    1
    19    12    20   ar
    20     7    21   ar
    21    21    22   ar
    22    22    23    1
    23    22     3   ar
    24    20     8   ar
    25    19    14    1
    26     1    24    1
    27     1    25    1
    28     1    26    1
    29     5    27    1
    30     6    28    1
    31    11    29    1
    32    11    30    1
    33    11    31    1
    34    14    32    1
    35    15    33    1
    36    15    34    1
    37    16    35    1
    38    16    36    1
    39    17    37    1
    40    17    38    1
    41    18    39    1
    42    18    40    1
    43    19    41    1
    44    19    42    1
    45    21    43    1
    46    23    44    1
