@<TRIPOS>MOLECULE
*****
 26 25 0 0 0
SMALL
GASTEIGER

@<TRIPOS>ATOM
      1 O           2.7457    2.1431    0.8147 O.co2   1  UNL1       -1.0000
      2 V           3.5304    1.4224    0.7670 V       1  UNL1        0.0000
      3 O           5.4994    1.7243    2.2030 O.2     1  UNL1        0.0000
      4 O           4.4385   -0.3691    0.2122 O.3     1  UNL1        1.0000
      5 V           3.0666   -1.4588    0.6342 V       1  UNL1        0.0000
      6 O           3.0629   -1.2268    2.7944 O.2     1  UNL1        0.0000
      7 O           1.8199   -2.0714    0.0877 O.3     1  UNL1        0.0000
      8 V           0.2357   -1.1730   -0.6613 V       1  UNL1        0.0000
      9 O           0.2759   -1.4726   -2.4119 O.2     1  UNL1        0.0000
     10 O           0.3696    0.5557   -0.4025 O.2     1  UNL1        0.0000
     11 O          -1.4278   -1.9173    0.0185 O.3     1  UNL1        0.0000
     12 V          -2.4721   -0.7058    1.1150 V       1  UNL1        0.0000
     13 O          -3.4822   -1.7114    2.1674 O.2     1  UNL1        0.0000
     14 O          -1.4536    0.2416    2.2077 O.2     1  UNL1        0.0000
     15 O          -3.6817    0.4395    0.1068 O.3     1  UNL1        1.0000
     16 V          -3.6817    0.2944   -1.5249 V       1  UNL1        0.0000
     17 O          -5.3622    0.7303   -2.4204 O.co2   1  UNL1       -1.0000
     18 O          -2.3674    0.1132   -2.7400 O.2     1  UNL1        0.0000
     19 V          -4.8828    1.2376    0.9366 V       1  UNL1        0.0000
     20 O          -5.3959    0.0984    2.7265 O.2     1  UNL1        0.0000
     21 O          -6.0752    2.3969    0.7716 O.2     1  UNL1        0.0000
     22 O          -6.6681   -0.5176   -0.0465 O.2     1  UNL1        0.0000
     23 V           4.7338   -0.2016   -1.4080 V       1  UNL1        0.0000
     24 O           5.1583    1.6128   -2.1202 O.2     1  UNL1        0.0000
     25 O           4.7814   -1.3778   -2.7098 O.2     1  UNL1        0.0000
     26 O           7.2326   -0.4380   -1.1177 O.2     1  UNL1        0.0000
@<TRIPOS>UNITY_ATOM_ATTR
1 1
charge -1
4 1
charge 1
15 1
charge 1
17 1
charge -1
@<TRIPOS>BOND
     1     1     2    1
     2     2     3    2
     3     2     4    1
     4     4     5    1
     5     5     6    2
     6     5     7    1
     7     7     8    1
     8     8     9    2
     9     8    10    2
    10     8    11    1
    11    11    12    1
    12    12    13    2
    13    12    14    2
    14    12    15    1
    15    15    16    1
    16    16    17    1
    17    16    18    2
    18    15    19    1
    19    19    20    2
    20    19    21    2
    21    19    22    2
    22     4    23    1
    23    23    24    2
    24    23    25    2
    25    23    26    2
