
     RDKit          3D

 26 25  0  0  0  0  0  0  0  0999 V2000
    2.7457    2.1431    0.8147 O   0  0  0  0  0  1  0  0  0  0  0  0
    3.5304    1.4224    0.7670 V   0  0  0  0  0  4  0  0  0  0  0  0
    5.4994    1.7243    2.2030 O   0  0  0  0  0  0  0  0  0  0  0  0
    4.4385   -0.3691    0.2122 O   0  0  0  0  0  3  0  0  0  0  0  0
    3.0666   -1.4588    0.6342 V   0  0  0  0  0  4  0  0  0  0  0  0
    3.0629   -1.2268    2.7944 O   0  0  0  0  0  0  0  0  0  0  0  0
    1.8199   -2.0714    0.0877 O   0  0  0  0  0  0  0  0  0  0  0  0
    0.2357   -1.1730   -0.6613 V   0  0  0  0  0  6  0  0  0  0  0  0
    0.2759   -1.4726   -2.4119 O   0  0  0  0  0  0  0  0  0  0  0  0
    0.3696    0.5557   -0.4025 O   0  0  0  0  0  0  0  0  0  0  0  0
   -1.4278   -1.9173    0.0185 O   0  0  0  0  0  0  0  0  0  0  0  0
   -2.4721   -0.7058    1.1150 V   0  0  0  0  0  6  0  0  0  0  0  0
   -3.4822   -1.7114    2.1674 O   0  0  0  0  0  0  0  0  0  0  0  0
   -1.4536    0.2416    2.2077 O   0  0  0  0  0  0  0  0  0  0  0  0
   -3.6817    0.4395    0.1068 O   0  0  0  0  0  3  0  0  0  0  0  0
   -3.6817    0.2944   -1.5249 V   0  0  0  0  0  4  0  0  0  0  0  0
   -5.3622    0.7303   -2.4204 O   0  0  0  0  0  1  0  0  0  0  0  0
   -2.3674    0.1132   -2.7400 O   0  0  0  0  0  0  0  0  0  0  0  0
   -4.8828    1.2376    0.9366 V   0  0  0  0  0  7  0  0  0  0  0  0
   -5.3959    0.0984    2.7265 O   0  0  0  0  0  0  0  0  0  0  0  0
   -6.0752    2.3969    0.7716 O   0  0  0  0  0  0  0  0  0  0  0  0
   -6.6681   -0.5176   -0.0465 O   0  0  0  0  0  0  0  0  0  0  0  0
    4.7338   -0.2016   -1.4080 V   0  0  0  0  0  7  0  0  0  0  0  0
    5.1583    1.6128   -2.1202 O   0  0  0  0  0  0  0  0  0  0  0  0
    4.7814   -1.3778   -2.7098 O   0  0  0  0  0  0  0  0  0  0  0  0
    7.2326   -0.4380   -1.1177 O   0  0  0  0  0  0  0  0  0  0  0  0
  1  2  1  0
  2  3  2  0
  2  4  1  0
  4  5  1  0
  5  6  2  0
  5  7  1  0
  7  8  1  0
  8  9  2  0
  8 10  2  0
  8 11  1  0
 11 12  1  0
 12 13  2  0
 12 14  2  0
 12 15  1  0
 15 16  1  0
 16 17  1  0
 16 18  2  0
 15 19  1  0
 19 20  2  0
 19 21  2  0
 19 22  2  0
  4 23  1  0
 23 24  2  0
 23 25  2  0
 23 26  2  0
M  CHG  4   1  -1   4   1  15   1  17  -1
M  END
$$$$
