
     RDKit          3D

 70 72  0  0  0  0  0  0  0  0999 V2000
   -1.2314    4.6816    2.3631 C   0  0  0  0  0  0  0  0  0  0  0  0
   -0.1557    3.7898    1.7380 C   0  0  0  0  0  0  0  0  0  0  0  0
   -0.4327    2.3343    2.0714 C   0  0  0  0  0  0  0  0  0  0  0  0
    0.6393    1.4702    1.4887 C   0  0  0  0  0  0  0  0  0  0  0  0
    0.6710    1.5720   -0.0020 C   0  0  2  0  0  0  0  0  0  0  0  0
   -0.5370    1.1529   -0.6432 N   0  0  0  0  0  0  0  0  0  0  0  0
   -1.4715    0.2210   -0.1864 C   0  0  0  0  0  0  0  0  0  0  0  0
   -1.3107   -0.3699    0.8857 O   0  0  0  0  0  0  0  0  0  0  0  0
   -2.6389   -0.1082   -0.8946 O   0  0  0  0  0  0  0  0  0  0  0  0
   -3.5403   -1.0615   -0.3672 C   0  0  0  0  0  0  0  0  0  0  0  0
   -3.5733   -2.2206   -1.3474 C   0  0  0  0  0  0  0  0  0  0  0  0
   -2.6033   -3.2815   -1.0967 C   0  0  0  0  0  0  0  0  0  0  0  0
   -3.5952   -1.6389   -2.7284 C   0  0  0  0  0  0  0  0  0  0  0  0
   -4.9410   -0.8959   -2.7321 C   0  0  0  0  0  0  0  0  0  0  0  0
   -5.6261   -1.2585   -1.4474 C   0  0  0  0  0  0  0  0  0  0  0  0
   -5.0397   -2.6606   -1.2034 C   0  0  0  0  0  0  0  0  0  0  0  0
   -4.9597   -0.5153   -0.3144 C   0  0  0  0  0  0  0  0  0  0  0  0
   -5.5705   -0.9561    0.9830 C   0  0  0  0  0  0  0  0  0  0  0  0
   -4.9945    0.9745   -0.5062 C   0  0  0  0  0  0  0  0  0  0  0  0
    1.8002    0.7711   -0.5212 C   0  0  0  0  0  0  0  0  0  0  0  0
    1.6258   -0.1917   -1.3328 O   0  0  0  0  0  0  0  0  0  0  0  0
    3.1590    1.0814   -0.1033 C   0  0  0  0  0  0  0  0  0  0  0  0
    3.4660    2.0193    0.6732 O   0  0  0  0  0  0  0  0  0  0  0  0
    4.2597    0.2810   -0.5912 N   0  0  0  0  0  0  0  0  0  0  0  0
    5.5938    0.6215   -0.1548 C   0  0  2  0  0  0  0  0  0  0  0  0
    6.4858    0.9148   -1.3682 C   0  0  0  0  0  0  0  0  0  0  0  0
    6.1831   -0.5879    0.4870 C   0  0  0  0  0  0  0  0  0  0  0  0
    6.0381   -1.7901   -0.1529 C   0  0  0  0  0  0  0  0  0  0  0  0
    6.5835   -2.9372    0.4302 C   0  0  0  0  0  0  0  0  0  0  0  0
    7.2484   -2.8457    1.6206 C   0  0  0  0  0  0  0  0  0  0  0  0
    7.3778   -1.6140    2.2429 C   0  0  0  0  0  0  0  0  0  0  0  0
    6.8532   -0.4866    1.6896 C   0  0  0  0  0  0  0  0  0  0  0  0
   -0.7994    5.6366    2.7262 H   0  0  0  0  0  0  0  0  0  0  0  0
   -1.7069    4.1725    3.2154 H   0  0  0  0  0  0  0  0  0  0  0  0
   -1.9504    4.9423    1.5596 H   0  0  0  0  0  0  0  0  0  0  0  0
    0.8118    4.1477    2.1377 H   0  0  0  0  0  0  0  0  0  0  0  0
   -0.1389    3.9619    0.6416 H   0  0  0  0  0  0  0  0  0  0  0  0
   -0.4148    2.2843    3.2001 H   0  0  0  0  0  0  0  0  0  0  0  0
   -1.4513    2.1126    1.6924 H   0  0  0  0  0  0  0  0  0  0  0  0
    0.6141    0.4256    1.8577 H   0  0  0  0  0  0  0  0  0  0  0  0
    1.5961    1.8747    1.9447 H   0  0  0  0  0  0  0  0  0  0  0  0
    0.8592    2.6449   -0.3127 H   0  0  0  0  0  0  0  0  0  0  0  0
   -0.7601    1.5993   -1.5873 H   0  0  0  0  0  0  0  0  0  0  0  0
   -3.2099   -1.4695    0.6085 H   0  0  0  0  0  0  0  0  0  0  0  0
   -2.0281   -3.5779   -2.0031 H   0  0  0  0  0  0  0  0  0  0  0  0
   -3.1437   -4.2186   -0.7795 H   0  0  0  0  0  0  0  0  0  0  0  0
   -1.8960   -3.0700   -0.2676 H   0  0  0  0  0  0  0  0  0  0  0  0
   -2.7647   -0.9533   -2.9295 H   0  0  0  0  0  0  0  0  0  0  0  0
   -3.6768   -2.4538   -3.4875 H   0  0  0  0  0  0  0  0  0  0  0  0
   -4.7184    0.1881   -2.7159 H   0  0  0  0  0  0  0  0  0  0  0  0
   -5.5227   -1.1531   -3.6325 H   0  0  0  0  0  0  0  0  0  0  0  0
   -6.6978   -1.2386   -1.4538 H   0  0  0  0  0  0  0  0  0  0  0  0
   -5.2596   -2.9998   -0.1874 H   0  0  0  0  0  0  0  0  0  0  0  0
   -5.3083   -3.3574   -2.0010 H   0  0  0  0  0  0  0  0  0  0  0  0
   -5.8453   -0.1052    1.6382 H   0  0  0  0  0  0  0  0  0  0  0  0
   -4.9271   -1.6582    1.5550 H   0  0  0  0  0  0  0  0  0  0  0  0
   -6.5258   -1.5222    0.7834 H   0  0  0  0  0  0  0  0  0  0  0  0
   -5.2081    1.4680    0.4638 H   0  0  0  0  0  0  0  0  0  0  0  0
   -4.1056    1.3669   -1.0204 H   0  0  0  0  0  0  0  0  0  0  0  0
   -5.8681    1.2002   -1.1581 H   0  0  0  0  0  0  0  0  0  0  0  0
    4.0510   -0.5100   -1.2390 H   0  0  0  0  0  0  0  0  0  0  0  0
    5.5938    1.4879    0.5072 H   0  0  0  0  0  0  0  0  0  0  0  0
    6.5190    1.9892   -1.5874 H   0  0  0  0  0  0  0  0  0  0  0  0
    6.0673    0.3661   -2.2338 H   0  0  0  0  0  0  0  0  0  0  0  0
    7.5144    0.5431   -1.2102 H   0  0  0  0  0  0  0  0  0  0  0  0
    5.5208   -1.9004   -1.0937 H   0  0  0  0  0  0  0  0  0  0  0  0
    6.4845   -3.8993   -0.0518 H   0  0  0  0  0  0  0  0  0  0  0  0
    7.6870   -3.7062    2.1092 H   0  0  0  0  0  0  0  0  0  0  0  0
    7.9145   -1.5759    3.1912 H   0  0  0  0  0  0  0  0  0  0  0  0
    6.9312    0.4923    2.1410 H   0  0  0  0  0  0  0  0  0  0  0  0
  1  2  1  0
  2  3  1  0
  3  4  1  0
  4  5  1  0
  5  6  1  0
  6  7  1  0
  7  8  2  0
  7  9  1  0
  9 10  1  0
 10 11  1  0
 11 12  1  0
 11 13  1  0
 13 14  1  0
 14 15  1  0
 15 16  1  0
 15 17  1  0
 17 18  1  0
 17 19  1  0
  5 20  1  0
 20 21  2  0
 20 22  1  0
 22 23  2  0
 22 24  1  0
 24 25  1  0
 25 26  1  0
 25 27  1  0
 27 28  2  0
 28 29  1  0
 29 30  2  0
 30 31  1  0
 31 32  2  0
 17 10  1  0
 32 27  1  0
 16 11  1  0
  1 33  1  0
  1 34  1  0
  1 35  1  0
  2 36  1  0
  2 37  1  0
  3 38  1  0
  3 39  1  0
  4 40  1  0
  4 41  1  0
  5 42  1  1
  6 43  1  0
 10 44  1  0
 12 45  1  0
 12 46  1  0
 12 47  1  0
 13 48  1  0
 13 49  1  0
 14 50  1  0
 14 51  1  0
 15 52  1  0
 16 53  1  0
 16 54  1  0
 18 55  1  0
 18 56  1  0
 18 57  1  0
 19 58  1  0
 19 59  1  0
 19 60  1  0
 24 61  1  0
 25 62  1  1
 26 63  1  0
 26 64  1  0
 26 65  1  0
 28 66  1  0
 29 67  1  0
 30 68  1  0
 31 69  1  0
 32 70  1  0
M  END
$$$$
