@<TRIPOS>MOLECULE
*****
 70 72 0 0 0
SMALL
GASTEIGER

@<TRIPOS>ATOM
      1 C          -1.2314    4.6816    2.3631 C.3     1  UNL1       -0.0653
      2 C          -0.1557    3.7898    1.7380 C.3     1  UNL1       -0.0558
      3 C          -0.4327    2.3343    2.0714 C.3     1  UNL1       -0.0512
      4 C           0.6393    1.4702    1.4887 C.3     1  UNL1       -0.0270
      5 C           0.6710    1.5720   -0.0020 C.3     1  UNL1        0.0937
      6 N          -0.5370    1.1529   -0.6432 N.am    1  UNL1       -0.2710
      7 C          -1.4715    0.2210   -0.1864 C.2     1  UNL1        0.4011
      8 O          -1.3107   -0.3699    0.8857 O.2     1  UNL1       -0.2265
      9 O          -2.6389   -0.1082   -0.8946 O.3     1  UNL1       -0.4460
     10 C          -3.5403   -1.0615   -0.3672 C.3     1  UNL1        0.1153
     11 C          -3.5733   -2.2206   -1.3474 C.3     1  UNL1        0.0058
     12 C          -2.6033   -3.2815   -1.0967 C.3     1  UNL1       -0.0562
     13 C          -3.5952   -1.6389   -2.7284 C.3     1  UNL1       -0.0440
     14 C          -4.9410   -0.8959   -2.7321 C.3     1  UNL1       -0.0490
     15 C          -5.6261   -1.2585   -1.4474 C.3     1  UNL1       -0.0319
     16 C          -5.0397   -2.6606   -1.2034 C.3     1  UNL1       -0.0408
     17 C          -4.9597   -0.5153   -0.3144 C.3     1  UNL1        0.0056
     18 C          -5.5705   -0.9561    0.9830 C.3     1  UNL1       -0.0562
     19 C          -4.9945    0.9745   -0.5062 C.3     1  UNL1       -0.0562
     20 C           1.8002    0.7711   -0.5212 C.2     1  UNL1        0.2372
     21 O           1.6258   -0.1917   -1.3328 O.2     1  UNL1       -0.2852
     22 C           3.1590    1.0814   -0.1033 C.2     1  UNL1        0.2819
     23 O           3.4660    2.0193    0.6732 O.2     1  UNL1       -0.2670
     24 N           4.2597    0.2810   -0.5912 N.am    1  UNL1       -0.3024
     25 C           5.5938    0.6215   -0.1548 C.3     1  UNL1        0.0459
     26 C           6.4858    0.9148   -1.3682 C.3     1  UNL1       -0.0424
     27 C           6.1831   -0.5879    0.4870 C.ar    1  UNL1       -0.0275
     28 C           6.0381   -1.7901   -0.1529 C.ar    1  UNL1       -0.0568
     29 C           6.5835   -2.9372    0.4302 C.ar    1  UNL1       -0.0614
     30 C           7.2484   -2.8457    1.6206 C.ar    1  UNL1       -0.0617
     31 C           7.3778   -1.6140    2.2429 C.ar    1  UNL1       -0.0614
     32 C           6.8532   -0.4866    1.6896 C.ar    1  UNL1       -0.0568
     33 H          -0.7994    5.6366    2.7262 H       1  UNL1        0.0230
     34 H          -1.7069    4.1725    3.2154 H       1  UNL1        0.0230
     35 H          -1.9504    4.9423    1.5596 H       1  UNL1        0.0230
     36 H           0.8118    4.1477    2.1377 H       1  UNL1        0.0263
     37 H          -0.1389    3.9619    0.6416 H       1  UNL1        0.0263
     38 H          -0.4148    2.2843    3.2001 H       1  UNL1        0.0266
     39 H          -1.4513    2.1126    1.6924 H       1  UNL1        0.0266
     40 H           0.6141    0.4256    1.8577 H       1  UNL1        0.0287
     41 H           1.5961    1.8747    1.9447 H       1  UNL1        0.0287
     42 H           0.8592    2.6449   -0.3127 H       1  UNL1        0.0583
     43 H          -0.7601    1.5993   -1.5873 H       1  UNL1        0.1527
     44 H          -3.2099   -1.4695    0.6085 H       1  UNL1        0.0745
     45 H          -2.0281   -3.5779   -2.0031 H       1  UNL1        0.0236
     46 H          -3.1437   -4.2186   -0.7795 H       1  UNL1        0.0236
     47 H          -1.8960   -3.0700   -0.2676 H       1  UNL1        0.0236
     48 H          -2.7647   -0.9533   -2.9295 H       1  UNL1        0.0272
     49 H          -3.6768   -2.4538   -3.4875 H       1  UNL1        0.0272
     50 H          -4.7184    0.1881   -2.7159 H       1  UNL1        0.0268
     51 H          -5.5227   -1.1531   -3.6325 H       1  UNL1        0.0268
     52 H          -6.6978   -1.2386   -1.4538 H       1  UNL1        0.0307
     53 H          -5.2596   -2.9998   -0.1874 H       1  UNL1        0.0275
     54 H          -5.3083   -3.3574   -2.0010 H       1  UNL1        0.0275
     55 H          -5.8453   -0.1052    1.6382 H       1  UNL1        0.0236
     56 H          -4.9271   -1.6582    1.5550 H       1  UNL1        0.0236
     57 H          -6.5258   -1.5222    0.7834 H       1  UNL1        0.0236
     58 H          -5.2081    1.4680    0.4638 H       1  UNL1        0.0236
     59 H          -4.1056    1.3669   -1.0204 H       1  UNL1        0.0236
     60 H          -5.8681    1.2002   -1.1581 H       1  UNL1        0.0236
     61 H           4.0510   -0.5100   -1.2390 H       1  UNL1        0.1497
     62 H           5.5938    1.4879    0.5072 H       1  UNL1        0.0545
     63 H           6.5190    1.9892   -1.5874 H       1  UNL1        0.0251
     64 H           6.0673    0.3661   -2.2338 H       1  UNL1        0.0251
     65 H           7.5144    0.5431   -1.2102 H       1  UNL1        0.0251
     66 H           5.5208   -1.9004   -1.0937 H       1  UNL1        0.0621
     67 H           6.4845   -3.8993   -0.0518 H       1  UNL1        0.0618
     68 H           7.6870   -3.7062    2.1092 H       1  UNL1        0.0618
     69 H           7.9145   -1.5759    3.1912 H       1  UNL1        0.0618
     70 H           6.9312    0.4923    2.1410 H       1  UNL1        0.0621
@<TRIPOS>BOND
     1     1     2    1
     2     2     3    1
     3     3     4    1
     4     4     5    1
     5     5     6    1
     6     6     7   am
     7     7     8    2
     8     7     9    1
     9     9    10    1
    10    10    11    1
    11    11    12    1
    12    11    13    1
    13    13    14    1
    14    14    15    1
    15    15    16    1
    16    15    17    1
    17    17    18    1
    18    17    19    1
    19     5    20    1
    20    20    21    2
    21    20    22    1
    22    22    23    2
    23    22    24   am
    24    24    25    1
    25    25    26    1
    26    25    27    1
    27    27    28   ar
    28    28    29   ar
    29    29    30   ar
    30    30    31   ar
    31    31    32   ar
    32    17    10    1
    33    32    27   ar
    34    16    11    1
    35     1    33    1
    36     1    34    1
    37     1    35    1
    38     2    36    1
    39     2    37    1
    40     3    38    1
    41     3    39    1
    42     4    40    1
    43     4    41    1
    44     5    42    1
    45     6    43    1
    46    10    44    1
    47    12    45    1
    48    12    46    1
    49    12    47    1
    50    13    48    1
    51    13    49    1
    52    14    50    1
    53    14    51    1
    54    15    52    1
    55    16    53    1
    56    16    54    1
    57    18    55    1
    58    18    56    1
    59    18    57    1
    60    19    58    1
    61    19    59    1
    62    19    60    1
    63    24    61    1
    64    25    62    1
    65    26    63    1
    66    26    64    1
    67    26    65    1
    68    28    66    1
    69    29    67    1
    70    30    68    1
    71    31    69    1
    72    32    70    1
