@<TRIPOS>MOLECULE
*****
 41 44 0 0 0
SMALL
GASTEIGER

@<TRIPOS>ATOM
      1 N           6.2039   -0.8355   -2.4562 N.1     1  UNL1       -0.1908
      2 C           5.5549   -0.3968   -1.5814 C.1     1  UNL1        0.1005
      3 C           4.7585    0.1666   -0.4711 C.ar    1  UNL1        0.0713
      4 C           5.2362    0.0024    0.8030 C.ar    1  UNL1       -0.0044
      5 S           3.9313    0.7615    1.7938 S.2     1  UNL1       -0.0799
      6 C           2.9134    1.2060    0.4630 C.ar    1  UNL1        0.0838
      7 N           1.6059    1.8359    0.6614 N.am    1  UNL1       -0.2781
      8 C           0.4953    0.9930    0.9261 C.2     1  UNL1        0.2354
      9 O           0.7397   -0.2402    0.9628 O.2     1  UNL1       -0.2737
     10 C          -0.9088    1.4267    1.1706 C.3     1  UNL1        0.0964
     11 N          -1.7075    0.2382    1.4858 N.am    1  UNL1       -0.2623
     12 C          -1.8168   -0.2006    2.8217 C.2     1  UNL1        0.2205
     13 O          -0.9811    0.1101    3.6931 O.2     1  UNL1       -0.2752
     14 C          -2.9971   -1.0766    3.1878 C.3     1  UNL1        0.0285
     15 C          -2.9182   -2.2215    2.2004 C.3     1  UNL1       -0.0177
     16 C          -3.0266   -1.6667    0.8328 C.ar    1  UNL1       -0.0255
     17 C          -3.7756   -2.3383   -0.1373 C.ar    1  UNL1       -0.0568
     18 C          -3.8064   -1.8585   -1.3903 C.ar    1  UNL1       -0.0614
     19 C          -3.1472   -0.7480   -1.7877 C.ar    1  UNL1       -0.0600
     20 C          -2.3846   -0.0494   -0.8288 C.ar    1  UNL1       -0.0400
     21 C          -2.3526   -0.5333    0.4558 C.ar    1  UNL1        0.0400
     22 C           3.5631    0.7904   -0.6232 C.ar    1  UNL1        0.0648
     23 C           3.0112    1.0727   -1.9851 C.ar    1  UNL1        0.1650
     24 N           3.5598    0.6988   -3.1733 N.ar    1  UNL1       -0.1295
     25 N           2.8361    1.1668   -4.1854 N.ar    1  UNL1       -0.1377
     26 C           1.8073    1.8473   -3.6475 C.ar    1  UNL1        0.1175
     27 N           1.9362    1.7759   -2.3326 N.ar    1  UNL1       -0.3276
     28 H           6.1548   -0.4523    1.2045 H       1  UNL1        0.0707
     29 H           1.5004    2.8214    0.6181 H       1  UNL1        0.1554
     30 H          -1.2656    1.8902    0.2661 H       1  UNL1        0.0564
     31 H          -0.9819    2.0980    2.0644 H       1  UNL1        0.0564
     32 H          -2.8974   -1.5172    4.1773 H       1  UNL1        0.0362
     33 H          -3.9372   -0.5192    3.0398 H       1  UNL1        0.0362
     34 H          -1.8448   -2.5860    2.2926 H       1  UNL1        0.0318
     35 H          -3.6025   -3.0458    2.4045 H       1  UNL1        0.0318
     36 H          -4.2960   -3.2399    0.2147 H       1  UNL1        0.0621
     37 H          -4.4159   -2.3972   -2.1194 H       1  UNL1        0.0618
     38 H          -3.1826   -0.3981   -2.7800 H       1  UNL1        0.0618
     39 H          -1.8488    0.8416   -1.1471 H       1  UNL1        0.0636
     40 H           1.0065    2.3666   -4.1666 H       1  UNL1        0.1046
     41 H           1.2809    2.2110   -1.6354 H       1  UNL1        0.1683
@<TRIPOS>BOND
     1     1     2    3
     2     2     3    1
     3     3     4   ar
     4     4     5   ar
     5     5     6   ar
     6     6     7    1
     7     7     8   am
     8     8     9    2
     9     8    10    1
    10    10    11    1
    11    11    12   am
    12    12    13    2
    13    12    14    1
    14    14    15    1
    15    15    16    1
    16    16    17   ar
    17    17    18   ar
    18    18    19   ar
    19    19    20   ar
    20    20    21   ar
    21     6    22   ar
    22    22    23    1
    23    23    24   ar
    24    24    25   ar
    25    25    26   ar
    26    26    27   ar
    27    22     3   ar
    28    27    23   ar
    29    21    11    1
    30    21    16   ar
    31     4    28    1
    32     7    29    1
    33    10    30    1
    34    10    31    1
    35    14    32    1
    36    14    33    1
    37    15    34    1
    38    15    35    1
    39    17    36    1
    40    18    37    1
    41    19    38    1
    42    20    39    1
    43    26    40    1
    44    27    41    1
