
     RDKit          3D

 41 44  0  0  0  0  0  0  0  0999 V2000
    6.2039   -0.8355   -2.4562 N   0  0  0  0  0  0  0  0  0  0  0  0
    5.5549   -0.3968   -1.5814 C   0  0  0  0  0  0  0  0  0  0  0  0
    4.7585    0.1666   -0.4711 C   0  0  0  0  0  0  0  0  0  0  0  0
    5.2362    0.0024    0.8030 C   0  0  0  0  0  0  0  0  0  0  0  0
    3.9313    0.7615    1.7938 S   0  0  0  0  0  0  0  0  0  0  0  0
    2.9134    1.2060    0.4630 C   0  0  0  0  0  0  0  0  0  0  0  0
    1.6059    1.8359    0.6614 N   0  0  0  0  0  0  0  0  0  0  0  0
    0.4953    0.9930    0.9261 C   0  0  0  0  0  0  0  0  0  0  0  0
    0.7397   -0.2402    0.9628 O   0  0  0  0  0  0  0  0  0  0  0  0
   -0.9088    1.4267    1.1706 C   0  0  0  0  0  0  0  0  0  0  0  0
   -1.7075    0.2382    1.4858 N   0  0  0  0  0  0  0  0  0  0  0  0
   -1.8168   -0.2006    2.8217 C   0  0  0  0  0  0  0  0  0  0  0  0
   -0.9811    0.1101    3.6931 O   0  0  0  0  0  0  0  0  0  0  0  0
   -2.9971   -1.0766    3.1878 C   0  0  0  0  0  0  0  0  0  0  0  0
   -2.9182   -2.2215    2.2004 C   0  0  0  0  0  0  0  0  0  0  0  0
   -3.0266   -1.6667    0.8328 C   0  0  0  0  0  0  0  0  0  0  0  0
   -3.7756   -2.3383   -0.1373 C   0  0  0  0  0  0  0  0  0  0  0  0
   -3.8064   -1.8585   -1.3903 C   0  0  0  0  0  0  0  0  0  0  0  0
   -3.1472   -0.7480   -1.7877 C   0  0  0  0  0  0  0  0  0  0  0  0
   -2.3846   -0.0494   -0.8288 C   0  0  0  0  0  0  0  0  0  0  0  0
   -2.3526   -0.5333    0.4558 C   0  0  0  0  0  0  0  0  0  0  0  0
    3.5631    0.7904   -0.6232 C   0  0  0  0  0  0  0  0  0  0  0  0
    3.0112    1.0727   -1.9851 C   0  0  0  0  0  0  0  0  0  0  0  0
    3.5598    0.6988   -3.1733 N   0  0  0  0  0  0  0  0  0  0  0  0
    2.8361    1.1668   -4.1854 N   0  0  0  0  0  0  0  0  0  0  0  0
    1.8073    1.8473   -3.6475 C   0  0  0  0  0  0  0  0  0  0  0  0
    1.9362    1.7759   -2.3326 N   0  0  0  0  0  0  0  0  0  0  0  0
    6.1548   -0.4523    1.2045 H   0  0  0  0  0  0  0  0  0  0  0  0
    1.5004    2.8214    0.6181 H   0  0  0  0  0  0  0  0  0  0  0  0
   -1.2656    1.8902    0.2661 H   0  0  0  0  0  0  0  0  0  0  0  0
   -0.9819    2.0980    2.0644 H   0  0  0  0  0  0  0  0  0  0  0  0
   -2.8974   -1.5172    4.1773 H   0  0  0  0  0  0  0  0  0  0  0  0
   -3.9372   -0.5192    3.0398 H   0  0  0  0  0  0  0  0  0  0  0  0
   -1.8448   -2.5860    2.2926 H   0  0  0  0  0  0  0  0  0  0  0  0
   -3.6025   -3.0458    2.4045 H   0  0  0  0  0  0  0  0  0  0  0  0
   -4.2960   -3.2399    0.2147 H   0  0  0  0  0  0  0  0  0  0  0  0
   -4.4159   -2.3972   -2.1194 H   0  0  0  0  0  0  0  0  0  0  0  0
   -3.1826   -0.3981   -2.7800 H   0  0  0  0  0  0  0  0  0  0  0  0
   -1.8488    0.8416   -1.1471 H   0  0  0  0  0  0  0  0  0  0  0  0
    1.0065    2.3666   -4.1666 H   0  0  0  0  0  0  0  0  0  0  0  0
    1.2809    2.2110   -1.6354 H   0  0  0  0  0  0  0  0  0  0  0  0
  1  2  3  0
  2  3  1  0
  3  4  2  0
  4  5  1  0
  5  6  1  0
  6  7  1  0
  7  8  1  0
  8  9  2  0
  8 10  1  0
 10 11  1  0
 11 12  1  0
 12 13  2  0
 12 14  1  0
 14 15  1  0
 15 16  1  0
 16 17  2  0
 17 18  1  0
 18 19  2  0
 19 20  1  0
 20 21  2  0
  6 22  2  0
 22 23  1  0
 23 24  2  0
 24 25  1  0
 25 26  2  0
 26 27  1  0
 22  3  1  0
 27 23  1  0
 21 11  1  0
 21 16  1  0
  4 28  1  0
  7 29  1  0
 10 30  1  0
 10 31  1  0
 14 32  1  0
 14 33  1  0
 15 34  1  0
 15 35  1  0
 17 36  1  0
 18 37  1  0
 19 38  1  0
 20 39  1  0
 26 40  1  0
 27 41  1  0
M  END
$$$$
