@<TRIPOS>MOLECULE
*****
 69 71 0 0 0
SMALL
GASTEIGER

@<TRIPOS>ATOM
      1 C           7.7830    0.3151   -0.0723 C.3     1  UNL1       -0.0130
      2 N           6.8921    0.7664   -1.1181 N.3     1  UNL1       -0.3069
      3 C           7.3371    2.0461   -1.6311 C.3     1  UNL1       -0.0130
      4 C           5.5397    0.9155   -0.6375 C.3     1  UNL1        0.0141
      5 C           4.9282   -0.4283   -0.3117 C.3     1  UNL1        0.0275
      6 N           3.5567   -0.2316    0.1727 N.am    1  UNL1       -0.2987
      7 C           2.5303   -0.2300   -0.8293 C.3     1  UNL1        0.0305
      8 C           1.2509   -0.8451   -0.2187 C.3     1  UNL1        0.0308
      9 N           0.6349    0.0341    0.7035 N.am    1  UNL1       -0.2955
     10 C          -0.6738   -0.0862    1.1037 C.2     1  UNL1        0.2490
     11 O          -1.0880    0.8452    1.9268 O.2     1  UNL1       -0.2699
     12 C          -1.7073   -1.0811    0.7690 C.ar    1  UNL1        0.0657
     13 C          -1.4574   -2.2865    0.2422 C.ar    1  UNL1       -0.0370
     14 C          -2.5046   -3.1507    0.0138 C.ar    1  UNL1       -0.0023
     15 C          -2.5010   -4.5420   -0.5611 C.3     1  UNL1       -0.0064
     16 C          -3.9117   -5.0856   -0.5957 C.3     1  UNL1       -0.0556
     17 C          -2.0007   -4.5296   -1.9887 C.3     1  UNL1       -0.0556
     18 C          -1.6639   -5.4885    0.2625 C.3     1  UNL1       -0.0556
     19 S          -3.9119   -2.2300    0.5666 S.2     1  UNL1       -0.0771
     20 C          -3.0395   -0.7852    1.0550 C.ar    1  UNL1        0.0853
     21 N          -3.6172    0.3913    1.6009 N.am    1  UNL1       -0.2629
     22 C          -4.0317    1.4651    0.7680 C.2     1  UNL1        0.3085
     23 O          -3.8772    1.3585   -0.4789 O.2     1  UNL1       -0.2521
     24 N          -4.6112    2.6535    1.2610 N.am    1  UNL1       -0.2678
     25 C          -5.0313    3.7423    0.4603 C.ar    1  UNL1        0.0546
     26 C          -4.1686    4.7639    0.1666 C.ar    1  UNL1       -0.0389
     27 C          -4.5766    5.8444   -0.6239 C.ar    1  UNL1       -0.0585
     28 C          -5.8580    5.9001   -1.1228 C.ar    1  UNL1       -0.0419
     29 C          -6.7221    4.8741   -0.8275 C.ar    1  UNL1        0.0610
     30 CL         -8.3604    4.9168   -1.4484 Cl      1  UNL1       -0.0820
     31 C          -6.3094    3.7940   -0.0354 C.ar    1  UNL1        0.0804
     32 CL         -7.3957    2.4883    0.3450 Cl      1  UNL1       -0.0801
     33 C           1.3475    1.1680    1.3408 C.3     1  UNL1        0.0233
     34 C           2.3811    0.6367    2.3139 C.3     1  UNL1        0.0399
     35 C           3.4750   -0.0665    1.5796 C.2     1  UNL1        0.2171
     36 O           4.4018   -0.5538    2.2583 O.2     1  UNL1       -0.2755
     37 H           7.2561    0.0629    0.8621 H       1  UNL1        0.0391
     38 H           8.3915   -0.5392   -0.4479 H       1  UNL1        0.0391
     39 H           8.4870    1.1441    0.1651 H       1  UNL1        0.0391
     40 H           6.6266    2.3149   -2.4656 H       1  UNL1        0.0391
     41 H           7.2020    2.7981   -0.8368 H       1  UNL1        0.0391
     42 H           8.3848    2.0131   -2.0035 H       1  UNL1        0.0391
     43 H           4.9143    1.4337   -1.3975 H       1  UNL1        0.0442
     44 H           5.5795    1.5628    0.2610 H       1  UNL1        0.0442
     45 H           4.9453   -1.0708   -1.2011 H       1  UNL1        0.0477
     46 H           5.5287   -0.9080    0.4713 H       1  UNL1        0.0477
     47 H           2.8121   -0.9266   -1.6502 H       1  UNL1        0.0480
     48 H           2.3461    0.7955   -1.1825 H       1  UNL1        0.0480
     49 H           1.6000   -1.7928    0.2081 H       1  UNL1        0.0480
     50 H           0.5479   -1.0259   -1.0610 H       1  UNL1        0.0480
     51 H          -0.4457   -2.6999   -0.0234 H       1  UNL1        0.0634
     52 H          -4.4398   -4.8492   -1.5425 H       1  UNL1        0.0238
     53 H          -4.4581   -4.7395    0.3072 H       1  UNL1        0.0238
     54 H          -3.8359   -6.1909   -0.5396 H       1  UNL1        0.0238
     55 H          -2.3141   -3.6154   -2.5255 H       1  UNL1        0.0238
     56 H          -2.4444   -5.4274   -2.4899 H       1  UNL1        0.0238
     57 H          -0.8983   -4.6970   -2.0372 H       1  UNL1        0.0238
     58 H          -0.7150   -5.7332   -0.2643 H       1  UNL1        0.0238
     59 H          -1.5030   -5.1040    1.2883 H       1  UNL1        0.0238
     60 H          -2.2053   -6.4687    0.4070 H       1  UNL1        0.0238
     61 H          -3.7477    0.4883    2.6323 H       1  UNL1        0.1569
     62 H          -4.7313    2.7168    2.3028 H       1  UNL1        0.1564
     63 H          -3.1618    4.7134    0.5630 H       1  UNL1        0.0637
     64 H          -3.8840    6.6410   -0.8458 H       1  UNL1        0.0619
     65 H          -6.1930    6.7313   -1.7385 H       1  UNL1        0.0633
     66 H           1.8838    1.7330    0.5601 H       1  UNL1        0.0469
     67 H           0.6796    1.8288    1.8866 H       1  UNL1        0.0469
     68 H           2.8176    1.5161    2.8265 H       1  UNL1        0.0374
     69 H           1.9356   -0.0038    3.1021 H       1  UNL1        0.0374
@<TRIPOS>BOND
     1     1     2    1
     2     2     3    1
     3     2     4    1
     4     4     5    1
     5     5     6    1
     6     6     7    1
     7     7     8    1
     8     8     9    1
     9     9    10   am
    10    10    11    2
    11    10    12    1
    12    12    13   ar
    13    13    14   ar
    14    14    15    1
    15    15    16    1
    16    15    17    1
    17    15    18    1
    18    14    19   ar
    19    19    20   ar
    20    20    21    1
    21    21    22   am
    22    22    23    2
    23    22    24   am
    24    24    25    1
    25    25    26   ar
    26    26    27   ar
    27    27    28   ar
    28    28    29   ar
    29    29    30    1
    30    29    31   ar
    31    31    32    1
    32     9    33    1
    33    33    34    1
    34    34    35    1
    35    35    36    2
    36    35     6   am
    37    20    12   ar
    38    31    25   ar
    39     1    37    1
    40     1    38    1
    41     1    39    1
    42     3    40    1
    43     3    41    1
    44     3    42    1
    45     4    43    1
    46     4    44    1
    47     5    45    1
    48     5    46    1
    49     7    47    1
    50     7    48    1
    51     8    49    1
    52     8    50    1
    53    13    51    1
    54    16    52    1
    55    16    53    1
    56    16    54    1
    57    17    55    1
    58    17    56    1
    59    17    57    1
    60    18    58    1
    61    18    59    1
    62    18    60    1
    63    21    61    1
    64    24    62    1
    65    26    63    1
    66    27    64    1
    67    28    65    1
    68    33    66    1
    69    33    67    1
    70    34    68    1
    71    34    69    1
