
     RDKit          3D

 65 70  0  0  0  0  0  0  0  0999 V2000
   -5.1652   -1.6387   -1.4499 C   0  0  0  0  0  0  0  0  0  0  0  0
   -3.8647   -1.8676   -2.1250 C   0  0  0  0  0  0  0  0  0  0  0  0
   -2.6211   -1.5741   -1.5655 C   0  0  0  0  0  0  0  0  0  0  0  0
   -2.2397   -1.0375   -0.3427 C   0  0  0  0  0  0  0  0  0  0  0  0
   -3.2260   -0.6990    0.5572 O   0  0  0  0  0  0  0  0  0  0  0  0
   -3.0989   -0.1580    1.8209 C   0  0  2  0  0  0  0  0  0  0  0  0
   -3.6640   -1.0637    2.9118 C   0  0  0  0  0  0  0  0  0  0  0  0
   -3.7899    1.1758    1.9855 C   0  0  1  0  0  0  0  0  0  0  0  0
   -3.2550    2.2180    1.0431 C   0  0  0  0  0  0  0  0  0  0  0  0
   -4.2775    3.2363    1.0883 N   0  0  0  0  0  0  0  0  0  0  0  0
   -5.5112    2.5813    1.3186 C   0  0  0  0  0  0  0  0  0  0  0  0
   -6.6172    3.1647    1.2766 O   0  0  0  0  0  0  0  0  0  0  0  0
   -5.2538    1.1249    1.6084 C   0  0  0  0  0  0  0  0  0  0  0  0
   -0.8919   -0.8813   -0.1166 C   0  0  0  0  0  0  0  0  0  0  0  0
    0.0592   -1.2401   -1.0605 C   0  0  0  0  0  0  0  0  0  0  0  0
    1.4913   -1.0670   -0.8051 C   0  0  0  0  0  0  0  0  0  0  0  0
    2.5101   -1.8573   -1.2988 C   0  0  0  0  0  0  0  0  0  0  0  0
    3.6832   -1.3728   -0.8371 N   0  0  0  0  0  0  0  0  0  0  0  0
    3.4563   -0.3291   -0.0860 N   0  0  0  0  0  0  0  0  0  0  0  0
    4.4395    0.4662    0.5887 C   0  0  1  0  0  0  0  0  0  0  0  0
    4.2325    0.5157    2.0837 C   0  0  0  0  0  0  0  0  0  0  0  0
    5.4102    0.1435    2.6859 O   0  0  0  0  0  0  0  0  0  0  0  0
    6.4409    0.3923    1.7725 C   0  0  2  0  0  0  0  0  0  0  0  0
    6.6203    1.8654    1.6688 C   0  0  0  0  0  0  0  0  0  0  0  0
    7.0841    2.3623    0.3499 C   0  0  0  0  0  0  0  0  0  0  0  0
    6.6401    1.5656   -0.8268 C   0  0  0  0  0  0  0  0  0  0  0  0
    6.5169    0.2217   -0.6152 O   0  0  0  0  0  0  0  0  0  0  0  0
    5.8118   -0.1492    0.4915 C   0  0  2  0  0  0  0  0  0  0  0  0
    2.1258   -0.1060   -0.0390 C   0  0  0  0  0  0  0  0  0  0  0  0
   -0.3687   -1.7686   -2.2594 C   0  0  0  0  0  0  0  0  0  0  0  0
   -1.7135   -1.9402   -2.5219 C   0  0  0  0  0  0  0  0  0  0  0  0
   -2.4068   -2.4228   -3.5844 N   0  0  0  0  0  0  0  0  0  0  0  0
   -3.7052   -2.3825   -3.3531 N   0  0  0  0  0  0  0  0  0  0  0  0
   -4.7497   -2.8255   -4.2849 C   0  0  0  0  0  0  0  0  0  0  0  0
   -5.1826   -2.0169   -0.4077 H   0  0  0  0  0  0  0  0  0  0  0  0
   -5.4095   -0.5467   -1.4432 H   0  0  0  0  0  0  0  0  0  0  0  0
   -5.9916   -2.1061   -2.0491 H   0  0  0  0  0  0  0  0  0  0  0  0
   -2.0369   -0.0063    2.0878 H   0  0  0  0  0  0  0  0  0  0  0  0
   -3.7080   -0.4218    3.8406 H   0  0  0  0  0  0  0  0  0  0  0  0
   -2.9954   -1.9016    3.1504 H   0  0  0  0  0  0  0  0  0  0  0  0
   -4.6989   -1.3631    2.7035 H   0  0  0  0  0  0  0  0  0  0  0  0
   -3.7284    1.5556    3.0068 H   0  0  0  0  0  0  0  0  0  0  0  0
   -3.2759    1.7852    0.0213 H   0  0  0  0  0  0  0  0  0  0  0  0
   -2.2523    2.5928    1.3226 H   0  0  0  0  0  0  0  0  0  0  0  0
   -4.1074    4.2498    0.9706 H   0  0  0  0  0  0  0  0  0  0  0  0
   -5.4435    0.5940    0.6662 H   0  0  0  0  0  0  0  0  0  0  0  0
   -5.8895    0.7667    2.4332 H   0  0  0  0  0  0  0  0  0  0  0  0
   -0.5523   -0.4666    0.8240 H   0  0  0  0  0  0  0  0  0  0  0  0
    2.4530   -2.7213   -1.9424 H   0  0  0  0  0  0  0  0  0  0  0  0
    4.4184    1.5182    0.2314 H   0  0  0  0  0  0  0  0  0  0  0  0
    3.8494    1.4953    2.4302 H   0  0  0  0  0  0  0  0  0  0  0  0
    3.4705   -0.2588    2.3351 H   0  0  0  0  0  0  0  0  0  0  0  0
    7.3368   -0.1643    2.0694 H   0  0  0  0  0  0  0  0  0  0  0  0
    7.3916    2.1628    2.4333 H   0  0  0  0  0  0  0  0  0  0  0  0
    5.6812    2.3963    1.9962 H   0  0  0  0  0  0  0  0  0  0  0  0
    8.2044    2.4936    0.3295 H   0  0  0  0  0  0  0  0  0  0  0  0
    6.6912    3.4088    0.2177 H   0  0  0  0  0  0  0  0  0  0  0  0
    7.4208    1.7046   -1.6321 H   0  0  0  0  0  0  0  0  0  0  0  0
    5.6967    1.9449   -1.2992 H   0  0  0  0  0  0  0  0  0  0  0  0
    5.7200   -1.2437    0.5168 H   0  0  0  0  0  0  0  0  0  0  0  0
    1.6051    0.6775    0.4938 H   0  0  0  0  0  0  0  0  0  0  0  0
    0.3258   -2.0682   -3.0371 H   0  0  0  0  0  0  0  0  0  0  0  0
   -5.4752   -1.9964   -4.4297 H   0  0  0  0  0  0  0  0  0  0  0  0
   -5.3216   -3.6621   -3.8385 H   0  0  0  0  0  0  0  0  0  0  0  0
   -4.2982   -3.0552   -5.2499 H   0  0  0  0  0  0  0  0  0  0  0  0
  1  2  1  0
  2  3  2  0
  3  4  1  0
  4  5  1  0
  5  6  1  0
  6  7  1  0
  6  8  1  0
  8  9  1  0
  9 10  1  0
 10 11  1  0
 11 12  2  0
 11 13  1  0
  4 14  2  0
 14 15  1  0
 15 16  1  0
 16 17  1  0
 17 18  2  0
 18 19  1  0
 19 20  1  0
 20 21  1  0
 21 22  1  0
 22 23  1  0
 23 24  1  0
 24 25  1  0
 25 26  1  0
 26 27  1  0
 27 28  1  0
 19 29  1  0
 15 30  2  0
 30 31  1  0
 31 32  2  0
 32 33  1  0
 33 34  1  0
 33  2  1  0
 31  3  1  0
 13  8  1  0
 29 16  2  0
 28 20  1  0
 28 23  1  0
  1 35  1  0
  1 36  1  0
  1 37  1  0
  6 38  1  1
  7 39  1  0
  7 40  1  0
  7 41  1  0
  8 42  1  1
  9 43  1  0
  9 44  1  0
 10 45  1  0
 13 46  1  0
 13 47  1  0
 14 48  1  0
 17 49  1  0
 20 50  1  6
 21 51  1  0
 21 52  1  0
 23 53  1  1
 24 54  1  0
 24 55  1  0
 25 56  1  0
 25 57  1  0
 26 58  1  0
 26 59  1  0
 28 60  1  1
 29 61  1  0
 30 62  1  0
 34 63  1  0
 34 64  1  0
 34 65  1  0
M  END
$$$$
