@<TRIPOS>MOLECULE
*****
 65 70 0 0 0
SMALL
GASTEIGER

@<TRIPOS>ATOM
      1 C          -5.1652   -1.6387   -1.4499 C.3     1  UNL1       -0.0220
      2 C          -3.8647   -1.8676   -2.1250 C.ar    1  UNL1        0.0471
      3 C          -2.6211   -1.5741   -1.5655 C.ar    1  UNL1        0.0643
      4 C          -2.2397   -1.0375   -0.3427 C.ar    1  UNL1        0.1324
      5 O          -3.2260   -0.6990    0.5572 O.3     1  UNL1       -0.4880
      6 C          -3.0989   -0.1580    1.8209 C.3     1  UNL1        0.1021
      7 C          -3.6640   -1.0637    2.9118 C.3     1  UNL1       -0.0275
      8 C          -3.7899    1.1758    1.9855 C.3     1  UNL1        0.0195
      9 C          -3.2550    2.2180    1.0431 C.3     1  UNL1        0.0182
     10 N          -4.2775    3.2363    1.0883 N.am    1  UNL1       -0.3149
     11 C          -5.5112    2.5813    1.3186 C.2     1  UNL1        0.2135
     12 O          -6.6172    3.1647    1.2766 O.2     1  UNL1       -0.2758
     13 C          -5.2538    1.1249    1.6084 C.3     1  UNL1        0.0315
     14 C          -0.8919   -0.8813   -0.1166 C.ar    1  UNL1       -0.0113
     15 C           0.0592   -1.2401   -1.0605 C.ar    1  UNL1       -0.0094
     16 C           1.4913   -1.0670   -0.8051 C.ar    1  UNL1        0.0198
     17 C           2.5101   -1.8573   -1.2988 C.ar    1  UNL1        0.0571
     18 N           3.6832   -1.3728   -0.8371 N.ar    1  UNL1       -0.1786
     19 N           3.4563   -0.3291   -0.0860 N.ar    1  UNL1       -0.2630
     20 C           4.4395    0.4662    0.5887 C.3     1  UNL1        0.1044
     21 C           4.2325    0.5157    2.0837 C.3     1  UNL1        0.0730
     22 O           5.4102    0.1435    2.6859 O.3     1  UNL1       -0.3717
     23 C           6.4409    0.3923    1.7725 C.3     1  UNL1        0.0870
     24 C           6.6203    1.8654    1.6688 C.3     1  UNL1       -0.0220
     25 C           7.0841    2.3623    0.3499 C.3     1  UNL1       -0.0270
     26 C           6.6401    1.5656   -0.8268 C.3     1  UNL1        0.0483
     27 O           6.5169    0.2217   -0.6152 O.3     1  UNL1       -0.3718
     28 C           5.8118   -0.1492    0.4915 C.3     1  UNL1        0.1091
     29 C           2.1258   -0.1060   -0.0390 C.ar    1  UNL1        0.0337
     30 C          -0.3687   -1.7686   -2.2594 C.ar    1  UNL1       -0.0259
     31 C          -1.7135   -1.9402   -2.5219 C.ar    1  UNL1        0.0971
     32 N          -2.4068   -2.4228   -3.5844 N.ar    1  UNL1       -0.1711
     33 N          -3.7052   -2.3825   -3.3531 N.ar    1  UNL1       -0.2704
     34 C          -4.7497   -2.8255   -4.2849 C.3     1  UNL1        0.0305
     35 H          -5.1826   -2.0169   -0.4077 H       1  UNL1        0.0293
     36 H          -5.4095   -0.5467   -1.4432 H       1  UNL1        0.0293
     37 H          -5.9916   -2.1061   -2.0491 H       1  UNL1        0.0293
     38 H          -2.0369   -0.0063    2.0878 H       1  UNL1        0.0733
     39 H          -3.7080   -0.4218    3.8406 H       1  UNL1        0.0265
     40 H          -2.9954   -1.9016    3.1504 H       1  UNL1        0.0265
     41 H          -4.6989   -1.3631    2.7035 H       1  UNL1        0.0265
     42 H          -3.7284    1.5556    3.0068 H       1  UNL1        0.0356
     43 H          -3.2759    1.7852    0.0213 H       1  UNL1        0.0466
     44 H          -2.2523    2.5928    1.3226 H       1  UNL1        0.0466
     45 H          -4.1074    4.2498    0.9706 H       1  UNL1        0.1487
     46 H          -5.4435    0.5940    0.6662 H       1  UNL1        0.0363
     47 H          -5.8895    0.7667    2.4332 H       1  UNL1        0.0363
     48 H          -0.5523   -0.4666    0.8240 H       1  UNL1        0.0660
     49 H           2.4530   -2.7213   -1.9424 H       1  UNL1        0.0854
     50 H           4.4184    1.5182    0.2314 H       1  UNL1        0.0594
     51 H           3.8494    1.4953    2.4302 H       1  UNL1        0.0582
     52 H           3.4705   -0.2588    2.3351 H       1  UNL1        0.0582
     53 H           7.3368   -0.1643    2.0694 H       1  UNL1        0.0622
     54 H           7.3916    2.1628    2.4333 H       1  UNL1        0.0292
     55 H           5.6812    2.3963    1.9962 H       1  UNL1        0.0292
     56 H           8.2044    2.4936    0.3295 H       1  UNL1        0.0288
     57 H           6.6912    3.4088    0.2177 H       1  UNL1        0.0288
     58 H           7.4208    1.7046   -1.6321 H       1  UNL1        0.0560
     59 H           5.6967    1.9449   -1.2992 H       1  UNL1        0.0560
     60 H           5.7200   -1.2437    0.5168 H       1  UNL1        0.0644
     61 H           1.6051    0.6775    0.4938 H       1  UNL1        0.0832
     62 H           0.3258   -2.0682   -3.0371 H       1  UNL1        0.0646
     63 H          -5.4752   -1.9964   -4.4297 H       1  UNL1        0.0473
     64 H          -5.3216   -3.6621   -3.8385 H       1  UNL1        0.0473
     65 H          -4.2982   -3.0552   -5.2499 H       1  UNL1        0.0473
@<TRIPOS>BOND
     1     1     2    1
     2     2     3   ar
     3     3     4   ar
     4     4     5    1
     5     5     6    1
     6     6     7    1
     7     6     8    1
     8     8     9    1
     9     9    10    1
    10    10    11   am
    11    11    12    2
    12    11    13    1
    13     4    14   ar
    14    14    15   ar
    15    15    16    1
    16    16    17   ar
    17    17    18   ar
    18    18    19   ar
    19    19    20    1
    20    20    21    1
    21    21    22    1
    22    22    23    1
    23    23    24    1
    24    24    25    1
    25    25    26    1
    26    26    27    1
    27    27    28    1
    28    19    29   ar
    29    15    30   ar
    30    30    31   ar
    31    31    32   ar
    32    32    33   ar
    33    33    34    1
    34    33     2   ar
    35    31     3   ar
    36    13     8    1
    37    29    16   ar
    38    28    20    1
    39    28    23    1
    40     1    35    1
    41     1    36    1
    42     1    37    1
    43     6    38    1
    44     7    39    1
    45     7    40    1
    46     7    41    1
    47     8    42    1
    48     9    43    1
    49     9    44    1
    50    10    45    1
    51    13    46    1
    52    13    47    1
    53    14    48    1
    54    17    49    1
    55    20    50    1
    56    21    51    1
    57    21    52    1
    58    23    53    1
    59    24    54    1
    60    24    55    1
    61    25    56    1
    62    25    57    1
    63    26    58    1
    64    26    59    1
    65    28    60    1
    66    29    61    1
    67    30    62    1
    68    34    63    1
    69    34    64    1
    70    34    65    1
