@<TRIPOS>MOLECULE
*****
 29 28 0 0 0
SMALL
GASTEIGER

@<TRIPOS>ATOM
      1 C           4.7010    0.6542   -0.2320 C.3     1  UNL1       -0.0653
      2 C           3.3460    0.6415   -0.9444 C.3     1  UNL1       -0.0554
      3 C           2.3771    0.0382    0.0529 C.3     1  UNL1       -0.0446
      4 C           0.9960   -0.0213   -0.5551 C.3     1  UNL1        0.0243
      5 P          -0.0988   -0.7529    0.6983 P.3     1  UNL1        0.2023
      6 O           0.4779   -0.2858    2.2259 O.3     1  UNL1       -0.3436
      7 O          -0.0316   -2.2493    0.5503 O.2     1  UNL1       -0.2910
      8 C          -1.7739   -0.1099    0.5197 C.3     1  UNL1        0.0255
      9 C          -2.7727   -1.2329    0.2525 C.3     1  UNL1       -0.0319
     10 C          -4.1339   -0.5822    0.1211 C.3     1  UNL1       -0.0064
     11 N          -4.1183    0.3355   -0.9450 N.3     1  UNL1       -0.3300
     12 H           5.0547   -0.3976   -0.1802 H       1  UNL1        0.0230
     13 H           4.4721    1.0057    0.8156 H       1  UNL1        0.0230
     14 H           5.3957    1.3549   -0.6968 H       1  UNL1        0.0230
     15 H           3.0776    1.6402   -1.2929 H       1  UNL1        0.0263
     16 H           3.3701   -0.0553   -1.8140 H       1  UNL1        0.0263
     17 H           2.3004    0.6970    0.9411 H       1  UNL1        0.0270
     18 H           2.7173   -0.9717    0.2892 H       1  UNL1        0.0270
     19 H           0.9820   -0.5711   -1.5101 H       1  UNL1        0.0364
     20 H           0.6152    1.0072   -0.7514 H       1  UNL1        0.0364
     21 H           0.0264    0.5453    2.5406 H       1  UNL1        0.2176
     22 H          -1.8001    0.5781   -0.3586 H       1  UNL1        0.0364
     23 H          -2.1066    0.4834    1.3930 H       1  UNL1        0.0364
     24 H          -2.7273   -2.0138    1.0130 H       1  UNL1        0.0282
     25 H          -2.5265   -1.6107   -0.7754 H       1  UNL1        0.0282
     26 H          -4.3225   -0.0791    1.1119 H       1  UNL1        0.0422
     27 H          -4.9382   -1.3297   -0.0481 H       1  UNL1        0.0422
     28 H          -3.6794    1.2467   -0.7935 H       1  UNL1        0.1182
     29 H          -4.8798    0.2936   -1.6277 H       1  UNL1        0.1182
@<TRIPOS>BOND
     1     1     2    1
     2     2     3    1
     3     3     4    1
     4     4     5    1
     5     5     6    1
     6     5     7    2
     7     5     8    1
     8     8     9    1
     9     9    10    1
    10    10    11    1
    11     1    12    1
    12     1    13    1
    13     1    14    1
    14     2    15    1
    15     2    16    1
    16     3    17    1
    17     3    18    1
    18     4    19    1
    19     4    20    1
    20     6    21    1
    21     8    22    1
    22     8    23    1
    23     9    24    1
    24     9    25    1
    25    10    26    1
    26    10    27    1
    27    11    28    1
    28    11    29    1
