@<TRIPOS>MOLECULE
*****
 54 58 0 0 0
SMALL
GASTEIGER

@<TRIPOS>ATOM
      1 C          -8.5005   -0.7970    0.5095 C.3     1  UNL1       -0.0542
      2 C          -7.8058   -0.1990   -0.6857 C.3     1  UNL1        0.0299
      3 C          -8.4274    1.1268   -1.0975 C.3     1  UNL1       -0.0542
      4 C          -6.3726    0.0639   -0.4145 C.ar    1  UNL1        0.1985
      5 N          -5.2895   -0.4407   -1.0411 N.ar    1  UNL1       -0.2099
      6 C          -4.1609    0.0634   -0.4792 C.ar    1  UNL1        0.1462
      7 C          -2.7880   -0.2388   -0.8689 C.ar    1  UNL1        0.1858
      8 N          -2.4095   -0.5408   -2.1502 N.ar    1  UNL1       -0.1274
      9 N          -1.1129   -0.7557   -2.1488 N.ar    1  UNL1       -0.1320
     10 C          -0.6330   -0.6014   -0.8999 C.ar    1  UNL1        0.1542
     11 N          -1.6800   -0.2852   -0.1328 N.ar    1  UNL1       -0.3066
     12 C          -1.4767   -0.0691    1.2929 C.3     1  UNL1        0.0423
     13 C          -0.4122   -1.0790    1.7524 C.3     1  UNL1        0.0338
     14 N           0.8211   -0.8438    1.0204 N.am    1  UNL1       -0.2860
     15 C           2.0316   -0.7324    1.7322 C.2     1  UNL1        0.2472
     16 O           2.0321   -0.8386    2.9968 O.2     1  UNL1       -0.2700
     17 C           3.3470   -0.4958    1.1433 C.ar    1  UNL1        0.0370
     18 C           4.1068   -1.4674    0.5309 C.ar    1  UNL1       -0.0490
     19 C           5.3539   -1.2256    0.0003 C.ar    1  UNL1       -0.0528
     20 C           5.8571    0.0488    0.0906 C.ar    1  UNL1       -0.0113
     21 C           7.1901    0.3030   -0.4604 C.ar    1  UNL1        0.0193
     22 C           7.9682    1.4062   -0.5569 C.ar    1  UNL1       -0.0469
     23 C           9.1829    1.3102   -1.1286 C.ar    1  UNL1       -0.0541
     24 C           9.6149    0.1329   -1.5973 C.ar    1  UNL1       -0.0237
     25 S           8.2434   -0.9872   -1.2369 S.2     1  UNL1       -0.0967
     26 C           5.1250    1.0225    0.6894 C.ar    1  UNL1       -0.0528
     27 C           3.8929    0.7859    1.2131 C.ar    1  UNL1       -0.0490
     28 C           0.7754   -0.7301   -0.4052 C.3     1  UNL1        0.0834
     29 C           1.5152    0.4686   -0.9548 C.3     1  UNL1       -0.0393
     30 C          -4.6024    0.9041    0.5246 C.ar    1  UNL1        0.1231
     31 O          -5.9148    0.8653    0.5166 O.2     1  UNL1       -0.4469
     32 H          -8.0441   -1.7897    0.6863 H       1  UNL1        0.0237
     33 H          -9.5506   -0.9806    0.2234 H       1  UNL1        0.0237
     34 H          -8.4841   -0.1629    1.4022 H       1  UNL1        0.0237
     35 H          -7.9195   -0.9286   -1.5176 H       1  UNL1        0.0390
     36 H          -8.2932    1.8433   -0.2573 H       1  UNL1        0.0237
     37 H          -7.8341    1.4926   -1.9585 H       1  UNL1        0.0237
     38 H          -9.4695    1.0195   -1.4358 H       1  UNL1        0.0237
     39 H          -2.4047   -0.1599    1.8620 H       1  UNL1        0.0508
     40 H          -1.0275    0.9228    1.5008 H       1  UNL1        0.0508
     41 H          -0.2417   -0.8741    2.8237 H       1  UNL1        0.0482
     42 H          -0.7869   -2.0813    1.5511 H       1  UNL1        0.0482
     43 H           3.7012   -2.4827    0.4622 H       1  UNL1        0.0625
     44 H           5.9134   -2.0096   -0.4663 H       1  UNL1        0.0624
     45 H           7.5537    2.3769   -0.1432 H       1  UNL1        0.0629
     46 H           9.8429    2.2183   -1.2177 H       1  UNL1        0.0623
     47 H          10.5240   -0.1842   -2.0814 H       1  UNL1        0.0693
     48 H           5.5685    2.0164    0.7360 H       1  UNL1        0.0624
     49 H           3.2892    1.5651    1.7003 H       1  UNL1        0.0625
     50 H           1.2160   -1.6735   -0.8381 H       1  UNL1        0.0579
     51 H           1.0122    0.7436   -1.9242 H       1  UNL1        0.0252
     52 H           1.4333    1.2804   -0.2148 H       1  UNL1        0.0252
     53 H           2.5333    0.1829   -1.2440 H       1  UNL1        0.0252
     54 H          -4.0032    1.4910    1.1980 H       1  UNL1        0.1053
@<TRIPOS>BOND
     1     1     2    1
     2     2     3    1
     3     2     4    1
     4     4     5   ar
     5     5     6   ar
     6     6     7    1
     7     7     8   ar
     8     8     9   ar
     9     9    10   ar
    10    10    11   ar
    11    11    12    1
    12    12    13    1
    13    13    14    1
    14    14    15   am
    15    15    16    2
    16    15    17    1
    17    17    18   ar
    18    18    19   ar
    19    19    20   ar
    20    20    21    1
    21    21    22   ar
    22    22    23   ar
    23    23    24   ar
    24    24    25   ar
    25    20    26   ar
    26    26    27   ar
    27    14    28    1
    28    28    29    1
    29     6    30   ar
    30    30    31   ar
    31    31     4   ar
    32    11     7   ar
    33    27    17   ar
    34    28    10    1
    35    25    21   ar
    36     1    32    1
    37     1    33    1
    38     1    34    1
    39     2    35    1
    40     3    36    1
    41     3    37    1
    42     3    38    1
    43    12    39    1
    44    12    40    1
    45    13    41    1
    46    13    42    1
    47    18    43    1
    48    19    44    1
    49    22    45    1
    50    23    46    1
    51    24    47    1
    52    26    48    1
    53    27    49    1
    54    28    50    1
    55    29    51    1
    56    29    52    1
    57    29    53    1
    58    30    54    1
