
     RDKit          3D

 54 58  0  0  0  0  0  0  0  0999 V2000
   -8.5005   -0.7970    0.5095 C   0  0  0  0  0  0  0  0  0  0  0  0
   -7.8058   -0.1990   -0.6857 C   0  0  0  0  0  0  0  0  0  0  0  0
   -8.4274    1.1268   -1.0975 C   0  0  0  0  0  0  0  0  0  0  0  0
   -6.3726    0.0639   -0.4145 C   0  0  0  0  0  0  0  0  0  0  0  0
   -5.2895   -0.4407   -1.0411 N   0  0  0  0  0  0  0  0  0  0  0  0
   -4.1609    0.0634   -0.4792 C   0  0  0  0  0  0  0  0  0  0  0  0
   -2.7880   -0.2388   -0.8689 C   0  0  0  0  0  0  0  0  0  0  0  0
   -2.4095   -0.5408   -2.1502 N   0  0  0  0  0  0  0  0  0  0  0  0
   -1.1129   -0.7557   -2.1488 N   0  0  0  0  0  0  0  0  0  0  0  0
   -0.6330   -0.6014   -0.8999 C   0  0  0  0  0  0  0  0  0  0  0  0
   -1.6800   -0.2852   -0.1328 N   0  0  0  0  0  0  0  0  0  0  0  0
   -1.4767   -0.0691    1.2929 C   0  0  0  0  0  0  0  0  0  0  0  0
   -0.4122   -1.0790    1.7524 C   0  0  0  0  0  0  0  0  0  0  0  0
    0.8211   -0.8438    1.0204 N   0  0  0  0  0  0  0  0  0  0  0  0
    2.0316   -0.7324    1.7322 C   0  0  0  0  0  0  0  0  0  0  0  0
    2.0321   -0.8386    2.9968 O   0  0  0  0  0  0  0  0  0  0  0  0
    3.3470   -0.4958    1.1433 C   0  0  0  0  0  0  0  0  0  0  0  0
    4.1068   -1.4674    0.5309 C   0  0  0  0  0  0  0  0  0  0  0  0
    5.3539   -1.2256    0.0003 C   0  0  0  0  0  0  0  0  0  0  0  0
    5.8571    0.0488    0.0906 C   0  0  0  0  0  0  0  0  0  0  0  0
    7.1901    0.3030   -0.4604 C   0  0  0  0  0  0  0  0  0  0  0  0
    7.9682    1.4062   -0.5569 C   0  0  0  0  0  0  0  0  0  0  0  0
    9.1829    1.3102   -1.1286 C   0  0  0  0  0  0  0  0  0  0  0  0
    9.6149    0.1329   -1.5973 C   0  0  0  0  0  0  0  0  0  0  0  0
    8.2434   -0.9872   -1.2369 S   0  0  0  0  0  0  0  0  0  0  0  0
    5.1250    1.0225    0.6894 C   0  0  0  0  0  0  0  0  0  0  0  0
    3.8929    0.7859    1.2131 C   0  0  0  0  0  0  0  0  0  0  0  0
    0.7754   -0.7301   -0.4052 C   0  0  2  0  0  0  0  0  0  0  0  0
    1.5152    0.4686   -0.9548 C   0  0  0  0  0  0  0  0  0  0  0  0
   -4.6024    0.9041    0.5246 C   0  0  0  0  0  0  0  0  0  0  0  0
   -5.9148    0.8653    0.5166 O   0  0  0  0  0  0  0  0  0  0  0  0
   -8.0441   -1.7897    0.6863 H   0  0  0  0  0  0  0  0  0  0  0  0
   -9.5506   -0.9806    0.2234 H   0  0  0  0  0  0  0  0  0  0  0  0
   -8.4841   -0.1629    1.4022 H   0  0  0  0  0  0  0  0  0  0  0  0
   -7.9195   -0.9286   -1.5176 H   0  0  0  0  0  0  0  0  0  0  0  0
   -8.2932    1.8433   -0.2573 H   0  0  0  0  0  0  0  0  0  0  0  0
   -7.8341    1.4926   -1.9585 H   0  0  0  0  0  0  0  0  0  0  0  0
   -9.4695    1.0195   -1.4358 H   0  0  0  0  0  0  0  0  0  0  0  0
   -2.4047   -0.1599    1.8620 H   0  0  0  0  0  0  0  0  0  0  0  0
   -1.0275    0.9228    1.5008 H   0  0  0  0  0  0  0  0  0  0  0  0
   -0.2417   -0.8741    2.8237 H   0  0  0  0  0  0  0  0  0  0  0  0
   -0.7869   -2.0813    1.5511 H   0  0  0  0  0  0  0  0  0  0  0  0
    3.7012   -2.4827    0.4622 H   0  0  0  0  0  0  0  0  0  0  0  0
    5.9134   -2.0096   -0.4663 H   0  0  0  0  0  0  0  0  0  0  0  0
    7.5537    2.3769   -0.1432 H   0  0  0  0  0  0  0  0  0  0  0  0
    9.8429    2.2183   -1.2177 H   0  0  0  0  0  0  0  0  0  0  0  0
   10.5240   -0.1842   -2.0814 H   0  0  0  0  0  0  0  0  0  0  0  0
    5.5685    2.0164    0.7360 H   0  0  0  0  0  0  0  0  0  0  0  0
    3.2892    1.5651    1.7003 H   0  0  0  0  0  0  0  0  0  0  0  0
    1.2160   -1.6735   -0.8381 H   0  0  0  0  0  0  0  0  0  0  0  0
    1.0122    0.7436   -1.9242 H   0  0  0  0  0  0  0  0  0  0  0  0
    1.4333    1.2804   -0.2148 H   0  0  0  0  0  0  0  0  0  0  0  0
    2.5333    0.1829   -1.2440 H   0  0  0  0  0  0  0  0  0  0  0  0
   -4.0032    1.4910    1.1980 H   0  0  0  0  0  0  0  0  0  0  0  0
  1  2  1  0
  2  3  1  0
  2  4  1  0
  4  5  2  0
  5  6  1  0
  6  7  1  0
  7  8  2  0
  8  9  1  0
  9 10  2  0
 10 11  1  0
 11 12  1  0
 12 13  1  0
 13 14  1  0
 14 15  1  0
 15 16  2  0
 15 17  1  0
 17 18  2  0
 18 19  1  0
 19 20  2  0
 20 21  1  0
 21 22  2  0
 22 23  1  0
 23 24  2  0
 24 25  1  0
 20 26  1  0
 26 27  2  0
 14 28  1  0
 28 29  1  0
  6 30  2  0
 30 31  1  0
 31  4  1  0
 11  7  1  0
 27 17  1  0
 28 10  1  0
 25 21  1  0
  1 32  1  0
  1 33  1  0
  1 34  1  0
  2 35  1  0
  3 36  1  0
  3 37  1  0
  3 38  1  0
 12 39  1  0
 12 40  1  0
 13 41  1  0
 13 42  1  0
 18 43  1  0
 19 44  1  0
 22 45  1  0
 23 46  1  0
 24 47  1  0
 26 48  1  0
 27 49  1  0
 28 50  1  6
 29 51  1  0
 29 52  1  0
 29 53  1  0
 30 54  1  0
M  END
$$$$
