
     RDKit          3D

 30 31  0  0  0  0  0  0  0  0999 V2000
   -2.6698    1.5156   -0.6092 O   0  0  0  0  0  0  0  0  0  0  0  0
   -2.6659    1.7372    0.6157 C   0  0  0  0  0  0  0  0  0  0  0  0
   -3.1232    2.9478    1.0848 O   0  0  0  0  0  0  0  0  0  0  0  0
   -2.1809    0.7286    1.5779 C   0  0  0  0  0  0  0  0  0  0  0  0
   -1.7264   -0.5078    0.9461 C   0  0  0  0  0  0  0  0  0  0  0  0
   -2.5553   -1.6247    1.0332 C   0  0  0  0  0  0  0  0  0  0  0  0
   -2.1314   -2.7910    0.4449 C   0  0  0  0  0  0  0  0  0  0  0  0
   -0.9168   -2.8834   -0.2237 C   0  0  0  0  0  0  0  0  0  0  0  0
   -0.1384   -1.7459   -0.2778 C   0  0  0  0  0  0  0  0  0  0  0  0
   -0.5189   -0.5440    0.2987 C   0  0  0  0  0  0  0  0  0  0  0  0
    0.3186    0.5929    0.2097 N   0  0  0  0  0  0  0  0  0  0  0  0
    1.5693    0.5940   -0.4504 C   0  0  0  0  0  0  0  0  0  0  0  0
    1.6189    0.9255   -1.7841 C   0  0  0  0  0  0  0  0  0  0  0  0
    0.1673    1.3363   -2.6389 Cl  0  0  0  0  0  0  0  0  0  0  0  0
    2.8246    0.9426   -2.4853 C   0  0  0  0  0  0  0  0  0  0  0  0
    3.9883    0.6225   -1.8348 C   0  0  0  0  0  0  0  0  0  0  0  0
    3.9619    0.2917   -0.5166 C   0  0  0  0  0  0  0  0  0  0  0  0
    2.7531    0.2766    0.1789 C   0  0  0  0  0  0  0  0  0  0  0  0
    2.7907   -0.1590    1.8753 Cl  0  0  0  0  0  0  0  0  0  0  0  0
   -3.8097    3.5156    0.5775 H   0  0  0  0  0  0  0  0  0  0  0  0
   -2.9398    0.5359    2.3729 H   0  0  0  0  0  0  0  0  0  0  0  0
   -1.3114    1.1836    2.1210 H   0  0  0  0  0  0  0  0  0  0  0  0
   -3.4946   -1.5411    1.5539 H   0  0  0  0  0  0  0  0  0  0  0  0
   -2.7421   -3.6856    0.4866 H   0  0  0  0  0  0  0  0  0  0  0  0
   -0.5976   -3.8132   -0.6828 H   0  0  0  0  0  0  0  0  0  0  0  0
    0.8017   -1.8224   -0.7974 H   0  0  0  0  0  0  0  0  0  0  0  0
    0.0222    1.4918    0.6436 H   0  0  0  0  0  0  0  0  0  0  0  0
    2.8809    1.2008   -3.5326 H   0  0  0  0  0  0  0  0  0  0  0  0
    4.9244    0.6395   -2.3935 H   0  0  0  0  0  0  0  0  0  0  0  0
    4.9004    0.0396   -0.0166 H   0  0  0  0  0  0  0  0  0  0  0  0
  1  2  2  0
  2  3  1  0
  2  4  1  0
  4  5  1  0
  5  6  2  0
  6  7  1  0
  7  8  2  0
  8  9  1  0
  9 10  2  0
 10 11  1  0
 11 12  1  0
 12 13  2  0
 13 14  1  0
 13 15  1  0
 15 16  2  0
 16 17  1  0
 17 18  2  0
 18 19  1  0
 10  5  1  0
 18 12  1  0
  3 20  1  0
  4 21  1  0
  4 22  1  0
  6 23  1  0
  7 24  1  0
  8 25  1  0
  9 26  1  0
 11 27  1  0
 15 28  1  0
 16 29  1  0
 17 30  1  0
M  END
$$$$
