@<TRIPOS>MOLECULE
*****
 30 31 0 0 0
SMALL
GASTEIGER

@<TRIPOS>ATOM
      1 O          -2.6698    1.5156   -0.6092 O.2     1  UNL1       -0.2507
      2 C          -2.6659    1.7372    0.6157 C.2     1  UNL1        0.3091
      3 O          -3.1232    2.9478    1.0848 O.3     1  UNL1       -0.4804
      4 C          -2.1809    0.7286    1.5779 C.3     1  UNL1        0.0716
      5 C          -1.7264   -0.5078    0.9461 C.ar    1  UNL1       -0.0156
      6 C          -2.5553   -1.6247    1.0332 C.ar    1  UNL1       -0.0563
      7 C          -2.1314   -2.7910    0.4449 C.ar    1  UNL1       -0.0614
      8 C          -0.9168   -2.8834   -0.2237 C.ar    1  UNL1       -0.0600
      9 C          -0.1384   -1.7459   -0.2778 C.ar    1  UNL1       -0.0403
     10 C          -0.5189   -0.5440    0.2987 C.ar    1  UNL1        0.0351
     11 N           0.3186    0.5929    0.2097 N.pl3   1  UNL1       -0.3120
     12 C           1.5693    0.5940   -0.4504 C.ar    1  UNL1        0.0684
     13 C           1.6189    0.9255   -1.7841 C.ar    1  UNL1        0.0635
     14 CL          0.1673    1.3363   -2.6389 Cl      1  UNL1       -0.0816
     15 C           2.8246    0.9426   -2.4853 C.ar    1  UNL1       -0.0415
     16 C           3.9883    0.6225   -1.8348 C.ar    1  UNL1       -0.0589
     17 C           3.9619    0.2917   -0.5166 C.ar    1  UNL1       -0.0415
     18 C           2.7531    0.2766    0.1789 C.ar    1  UNL1        0.0635
     19 CL          2.7907   -0.1590    1.8753 Cl      1  UNL1       -0.0816
     20 H          -3.8097    3.5156    0.5775 H       1  UNL1        0.2951
     21 H          -2.9398    0.5359    2.3729 H       1  UNL1        0.0427
     22 H          -1.3114    1.1836    2.1210 H       1  UNL1        0.0427
     23 H          -3.4946   -1.5411    1.5539 H       1  UNL1        0.0621
     24 H          -2.7421   -3.6856    0.4866 H       1  UNL1        0.0618
     25 H          -0.5976   -3.8132   -0.6828 H       1  UNL1        0.0618
     26 H           0.8017   -1.8224   -0.7974 H       1  UNL1        0.0636
     27 H           0.0222    1.4918    0.6436 H       1  UNL1        0.1522
     28 H           2.8809    1.2008   -3.5326 H       1  UNL1        0.0633
     29 H           4.9244    0.6395   -2.3935 H       1  UNL1        0.0618
     30 H           4.9004    0.0396   -0.0166 H       1  UNL1        0.0633
@<TRIPOS>BOND
     1     1     2    2
     2     2     3    1
     3     2     4    1
     4     4     5    1
     5     5     6   ar
     6     6     7   ar
     7     7     8   ar
     8     8     9   ar
     9     9    10   ar
    10    10    11    1
    11    11    12    1
    12    12    13   ar
    13    13    14    1
    14    13    15   ar
    15    15    16   ar
    16    16    17   ar
    17    17    18   ar
    18    18    19    1
    19    10     5   ar
    20    18    12   ar
    21     3    20    1
    22     4    21    1
    23     4    22    1
    24     6    23    1
    25     7    24    1
    26     8    25    1
    27     9    26    1
    28    11    27    1
    29    15    28    1
    30    16    29    1
    31    17    30    1
