@<TRIPOS>MOLECULE
*****
 50 51 0 0 0
SMALL
GASTEIGER

@<TRIPOS>ATOM
      1 C          -3.1933    1.8265    3.0964 C.3     1  UNL1        0.0790
      2 O          -3.1920    2.0857    1.7466 O.3     1  UNL1       -0.4913
      3 C          -2.6661    1.3825    0.7108 C.ar    1  UNL1        0.1655
      4 C          -1.9696    0.1765    0.9848 C.ar    1  UNL1       -0.0115
      5 C          -1.4122   -0.5860   -0.0011 C.ar    1  UNL1       -0.0228
      6 C          -0.7335   -1.8540    0.3649 C.3     1  UNL1        0.0517
      7 C          -1.2094   -2.3634    1.6972 C.3     1  UNL1       -0.0448
      8 C          -0.9283   -2.9128   -0.6865 C.3     1  UNL1       -0.0448
      9 C           0.7026   -1.4588    0.4752 C.1     1  UNL1       -0.0859
     10 C           1.8614   -1.1269    0.5472 C.1     1  UNL1       -0.0602
     11 C           3.3530   -0.7177    0.6550 C.ar    1  UNL1        0.0855
     12 C           4.0156   -0.7832   -0.5487 C.ar    1  UNL1        0.0605
     13 C           3.6692   -1.4522   -1.7401 C.3     1  UNL1       -0.0209
     14 N           5.2611   -0.0347   -0.5194 N.ar    1  UNL1       -0.2186
     15 C           5.5168    0.5778    0.6900 C.ar    1  UNL1        0.2145
     16 N           6.7925    1.3506    0.6381 N.pl3   1  UNL1       -0.3274
     17 N           4.8934    0.6167    1.7954 N.ar    1  UNL1       -0.1989
     18 C           3.6463   -0.1315    1.7680 C.ar    1  UNL1        0.1370
     19 N           2.9722   -0.1301    3.0195 N.pl3   1  UNL1       -0.3420
     20 C          -1.5412   -0.1584   -1.2958 C.ar    1  UNL1       -0.0115
     21 C          -2.2436    1.0511   -1.6011 C.ar    1  UNL1        0.1655
     22 O          -2.2874    1.3298   -2.9436 O.3     1  UNL1       -0.4913
     23 C          -1.6008    0.5916   -3.8875 C.3     1  UNL1        0.0790
     24 C          -2.7789    1.7751   -0.5850 C.ar    1  UNL1        0.2035
     25 O          -3.4753    2.9652   -0.9068 O.3     1  UNL1       -0.4885
     26 C          -4.9037    2.8613   -1.0790 C.3     1  UNL1        0.0791
     27 H          -3.7884    2.5918    3.6218 H       1  UNL1        0.0660
     28 H          -2.1264    1.9058    3.4908 H       1  UNL1        0.0660
     29 H          -3.5607    0.8039    3.2979 H       1  UNL1        0.0660
     30 H          -1.9309   -0.0824    2.0214 H       1  UNL1        0.0658
     31 H          -1.0561   -3.4638    1.7274 H       1  UNL1        0.0247
     32 H          -2.2934   -2.1553    1.7390 H       1  UNL1        0.0247
     33 H          -0.6398   -1.8965    2.5400 H       1  UNL1        0.0247
     34 H          -2.0222   -3.1042   -0.7304 H       1  UNL1        0.0247
     35 H          -0.3462   -3.8385   -0.3878 H       1  UNL1        0.0247
     36 H          -0.4603   -2.6218   -1.6548 H       1  UNL1        0.0247
     37 H           3.9453   -2.5451   -1.7555 H       1  UNL1        0.0293
     38 H           4.2390   -1.0288   -2.6630 H       1  UNL1        0.0293
     39 H           2.5979   -1.4384   -2.0293 H       1  UNL1        0.0293
     40 H           7.5736    1.0301    0.0774 H       1  UNL1        0.1452
     41 H           6.8291    2.2230    1.1936 H       1  UNL1        0.1452
     42 H           2.0475    0.3534    3.0688 H       1  UNL1        0.1437
     43 H           3.3632   -0.5790    3.8543 H       1  UNL1        0.1437
     44 H          -1.1032   -0.7702   -2.0479 H       1  UNL1        0.0658
     45 H          -2.2260   -0.2409   -4.2834 H       1  UNL1        0.0660
     46 H          -0.5896    0.2547   -3.5135 H       1  UNL1        0.0660
     47 H          -1.3642    1.3044   -4.7383 H       1  UNL1        0.0660
     48 H          -5.0610    1.8985   -1.5584 H       1  UNL1        0.0660
     49 H          -5.2398    3.6805   -1.6827 H       1  UNL1        0.0660
     50 H          -5.3361    2.8382   -0.0389 H       1  UNL1        0.0660
@<TRIPOS>BOND
     1     1     2    1
     2     2     3    1
     3     3     4   ar
     4     4     5   ar
     5     5     6    1
     6     6     7    1
     7     6     8    1
     8     6     9    1
     9     9    10    3
    10    10    11    1
    11    11    12   ar
    12    12    13    1
    13    12    14   ar
    14    14    15   ar
    15    15    16    1
    16    15    17   ar
    17    17    18   ar
    18    18    19    1
    19     5    20   ar
    20    20    21   ar
    21    21    22    1
    22    22    23    1
    23    21    24   ar
    24    24    25    1
    25    25    26    1
    26    24     3   ar
    27    18    11   ar
    28     1    27    1
    29     1    28    1
    30     1    29    1
    31     4    30    1
    32     7    31    1
    33     7    32    1
    34     7    33    1
    35     8    34    1
    36     8    35    1
    37     8    36    1
    38    13    37    1
    39    13    38    1
    40    13    39    1
    41    16    40    1
    42    16    41    1
    43    19    42    1
    44    19    43    1
    45    20    44    1
    46    23    45    1
    47    23    46    1
    48    23    47    1
    49    26    48    1
    50    26    49    1
    51    26    50    1
