
     RDKit          3D

 50 51  0  0  0  0  0  0  0  0999 V2000
   -3.1933    1.8265    3.0964 C   0  0  0  0  0  0  0  0  0  0  0  0
   -3.1920    2.0857    1.7466 O   0  0  0  0  0  0  0  0  0  0  0  0
   -2.6661    1.3825    0.7108 C   0  0  0  0  0  0  0  0  0  0  0  0
   -1.9696    0.1765    0.9848 C   0  0  0  0  0  0  0  0  0  0  0  0
   -1.4122   -0.5860   -0.0011 C   0  0  0  0  0  0  0  0  0  0  0  0
   -0.7335   -1.8540    0.3649 C   0  0  0  0  0  0  0  0  0  0  0  0
   -1.2094   -2.3634    1.6972 C   0  0  0  0  0  0  0  0  0  0  0  0
   -0.9283   -2.9128   -0.6865 C   0  0  0  0  0  0  0  0  0  0  0  0
    0.7026   -1.4588    0.4752 C   0  0  0  0  0  0  0  0  0  0  0  0
    1.8614   -1.1269    0.5472 C   0  0  0  0  0  0  0  0  0  0  0  0
    3.3530   -0.7177    0.6550 C   0  0  0  0  0  0  0  0  0  0  0  0
    4.0156   -0.7832   -0.5487 C   0  0  0  0  0  0  0  0  0  0  0  0
    3.6692   -1.4522   -1.7401 C   0  0  0  0  0  0  0  0  0  0  0  0
    5.2611   -0.0347   -0.5194 N   0  0  0  0  0  0  0  0  0  0  0  0
    5.5168    0.5778    0.6900 C   0  0  0  0  0  0  0  0  0  0  0  0
    6.7925    1.3506    0.6381 N   0  0  0  0  0  0  0  0  0  0  0  0
    4.8934    0.6167    1.7954 N   0  0  0  0  0  0  0  0  0  0  0  0
    3.6463   -0.1315    1.7680 C   0  0  0  0  0  0  0  0  0  0  0  0
    2.9722   -0.1301    3.0195 N   0  0  0  0  0  0  0  0  0  0  0  0
   -1.5412   -0.1584   -1.2958 C   0  0  0  0  0  0  0  0  0  0  0  0
   -2.2436    1.0511   -1.6011 C   0  0  0  0  0  0  0  0  0  0  0  0
   -2.2874    1.3298   -2.9436 O   0  0  0  0  0  0  0  0  0  0  0  0
   -1.6008    0.5916   -3.8875 C   0  0  0  0  0  0  0  0  0  0  0  0
   -2.7789    1.7751   -0.5850 C   0  0  0  0  0  0  0  0  0  0  0  0
   -3.4753    2.9652   -0.9068 O   0  0  0  0  0  0  0  0  0  0  0  0
   -4.9037    2.8613   -1.0790 C   0  0  0  0  0  0  0  0  0  0  0  0
   -3.7884    2.5918    3.6218 H   0  0  0  0  0  0  0  0  0  0  0  0
   -2.1264    1.9058    3.4908 H   0  0  0  0  0  0  0  0  0  0  0  0
   -3.5607    0.8039    3.2979 H   0  0  0  0  0  0  0  0  0  0  0  0
   -1.9309   -0.0824    2.0214 H   0  0  0  0  0  0  0  0  0  0  0  0
   -1.0561   -3.4638    1.7274 H   0  0  0  0  0  0  0  0  0  0  0  0
   -2.2934   -2.1553    1.7390 H   0  0  0  0  0  0  0  0  0  0  0  0
   -0.6398   -1.8965    2.5400 H   0  0  0  0  0  0  0  0  0  0  0  0
   -2.0222   -3.1042   -0.7304 H   0  0  0  0  0  0  0  0  0  0  0  0
   -0.3462   -3.8385   -0.3878 H   0  0  0  0  0  0  0  0  0  0  0  0
   -0.4603   -2.6218   -1.6548 H   0  0  0  0  0  0  0  0  0  0  0  0
    3.9453   -2.5451   -1.7555 H   0  0  0  0  0  0  0  0  0  0  0  0
    4.2390   -1.0288   -2.6630 H   0  0  0  0  0  0  0  0  0  0  0  0
    2.5979   -1.4384   -2.0293 H   0  0  0  0  0  0  0  0  0  0  0  0
    7.5736    1.0301    0.0774 H   0  0  0  0  0  0  0  0  0  0  0  0
    6.8291    2.2230    1.1936 H   0  0  0  0  0  0  0  0  0  0  0  0
    2.0475    0.3534    3.0688 H   0  0  0  0  0  0  0  0  0  0  0  0
    3.3632   -0.5790    3.8543 H   0  0  0  0  0  0  0  0  0  0  0  0
   -1.1032   -0.7702   -2.0479 H   0  0  0  0  0  0  0  0  0  0  0  0
   -2.2260   -0.2409   -4.2834 H   0  0  0  0  0  0  0  0  0  0  0  0
   -0.5896    0.2547   -3.5135 H   0  0  0  0  0  0  0  0  0  0  0  0
   -1.3642    1.3044   -4.7383 H   0  0  0  0  0  0  0  0  0  0  0  0
   -5.0610    1.8985   -1.5584 H   0  0  0  0  0  0  0  0  0  0  0  0
   -5.2398    3.6805   -1.6827 H   0  0  0  0  0  0  0  0  0  0  0  0
   -5.3361    2.8382   -0.0389 H   0  0  0  0  0  0  0  0  0  0  0  0
  1  2  1  0
  2  3  1  0
  3  4  2  0
  4  5  1  0
  5  6  1  0
  6  7  1  0
  6  8  1  0
  6  9  1  0
  9 10  3  0
 10 11  1  0
 11 12  2  0
 12 13  1  0
 12 14  1  0
 14 15  2  0
 15 16  1  0
 15 17  1  0
 17 18  2  0
 18 19  1  0
  5 20  2  0
 20 21  1  0
 21 22  1  0
 22 23  1  0
 21 24  2  0
 24 25  1  0
 25 26  1  0
 24  3  1  0
 18 11  1  0
  1 27  1  0
  1 28  1  0
  1 29  1  0
  4 30  1  0
  7 31  1  0
  7 32  1  0
  7 33  1  0
  8 34  1  0
  8 35  1  0
  8 36  1  0
 13 37  1  0
 13 38  1  0
 13 39  1  0
 16 40  1  0
 16 41  1  0
 19 42  1  0
 19 43  1  0
 20 44  1  0
 23 45  1  0
 23 46  1  0
 23 47  1  0
 26 48  1  0
 26 49  1  0
 26 50  1  0
M  END
$$$$
