@<TRIPOS>MOLECULE
*****
 50 52 0 0 0
SMALL
GASTEIGER

@<TRIPOS>ATOM
      1 O          -5.4976   -1.1136   -0.1191 O.2     1  UNL1       -0.2510
      2 C          -4.7467   -0.6546   -1.0070 C.2     1  UNL1        0.3047
      3 O          -4.9909    0.6165   -1.4899 O.3     1  UNL1       -0.4806
      4 C          -3.6322   -1.4649   -1.5156 C.3     1  UNL1        0.0456
      5 C          -2.2971   -0.8775   -1.5133 C.3     1  UNL1       -0.0319
      6 C          -1.6394   -0.4477   -0.2566 C.3     1  UNL1        0.0121
      7 C          -2.4315    0.6110    0.4173 C.ar    1  UNL1       -0.0397
      8 C          -3.2074    0.3332    1.5048 C.ar    1  UNL1       -0.0580
      9 C          -3.9615    1.3376    2.1329 C.ar    1  UNL1       -0.0615
     10 C          -3.9209    2.6249    1.6478 C.ar    1  UNL1       -0.0617
     11 C          -3.1299    2.8762    0.5499 C.ar    1  UNL1       -0.0615
     12 C          -2.3715    1.8895   -0.0900 C.ar    1  UNL1       -0.0580
     13 C          -1.4955   -1.5587    0.7513 C.3     1  UNL1       -0.0405
     14 C          -0.4303   -2.5094    0.2514 C.3     1  UNL1       -0.0362
     15 C           0.8875   -1.8302    0.5647 C.3     1  UNL1        0.0162
     16 N           0.8533   -0.5272   -0.0390 N.am    1  UNL1       -0.2845
     17 C           2.1205    0.1661   -0.1602 C.2     1  UNL1        0.3065
     18 O           2.1463    1.2964   -0.6857 O.2     1  UNL1       -0.2523
     19 N           3.3221   -0.3882    0.2918 N.am    1  UNL1       -0.2693
     20 C           4.6140    0.1481    0.2431 C.ar    1  UNL1        0.0349
     21 C           4.9203    1.3661   -0.3006 C.ar    1  UNL1       -0.0391
     22 C           6.2545    1.7939   -0.2918 C.ar    1  UNL1       -0.0416
     23 C           7.2619    1.0267    0.2466 C.ar    1  UNL1        0.0411
     24 CL          8.9248    1.6195    0.2279 Cl      1  UNL1       -0.0835
     25 C           6.9664   -0.2019    0.7973 C.ar    1  UNL1       -0.0416
     26 C           5.6607   -0.5995    0.7782 C.ar    1  UNL1       -0.0391
     27 C          -0.2850    0.1500   -0.5277 C.3     1  UNL1        0.0258
     28 H          -5.7797    1.1241   -1.1130 H       1  UNL1        0.2951
     29 H          -3.7079   -2.4777   -1.0502 H       1  UNL1        0.0378
     30 H          -3.9283   -1.6925   -2.5975 H       1  UNL1        0.0378
     31 H          -2.3309    0.0158   -2.2228 H       1  UNL1        0.0279
     32 H          -1.5925   -1.5666   -2.0674 H       1  UNL1        0.0279
     33 H          -3.3079   -0.6329    1.9632 H       1  UNL1        0.0620
     34 H          -4.5800    1.1461    2.9885 H       1  UNL1        0.0618
     35 H          -4.5042    3.4198    2.1261 H       1  UNL1        0.0618
     36 H          -3.0917    3.8742    0.1647 H       1  UNL1        0.0618
     37 H          -1.7812    2.1812   -0.9533 H       1  UNL1        0.0620
     38 H          -1.1948   -1.1019    1.7116 H       1  UNL1        0.0275
     39 H          -2.4536   -2.0883    0.9408 H       1  UNL1        0.0275
     40 H          -0.5033   -3.5007    0.7557 H       1  UNL1        0.0281
     41 H          -0.4339   -2.6502   -0.8478 H       1  UNL1        0.0281
     42 H           0.9551   -1.7768    1.6724 H       1  UNL1        0.0465
     43 H           1.6669   -2.4978    0.1336 H       1  UNL1        0.0465
     44 H           3.2176   -1.3591    0.7354 H       1  UNL1        0.1564
     45 H           4.1798    2.0233   -0.7426 H       1  UNL1        0.0636
     46 H           6.5302    2.7549   -0.7163 H       1  UNL1        0.0633
     47 H           7.7310   -0.8184    1.2222 H       1  UNL1        0.0633
     48 H           5.4476   -1.5875    1.2238 H       1  UNL1        0.0636
     49 H          -0.2248    1.2193   -0.1324 H       1  UNL1        0.0474
     50 H          -0.2083    0.3094   -1.6413 H       1  UNL1        0.0474
@<TRIPOS>BOND
     1     1     2    2
     2     2     3    1
     3     2     4    1
     4     4     5    1
     5     5     6    1
     6     6     7    1
     7     7     8   ar
     8     8     9   ar
     9     9    10   ar
    10    10    11   ar
    11    11    12   ar
    12     6    13    1
    13    13    14    1
    14    14    15    1
    15    15    16    1
    16    16    17   am
    17    17    18    2
    18    17    19   am
    19    19    20    1
    20    20    21   ar
    21    21    22   ar
    22    22    23   ar
    23    23    24    1
    24    23    25   ar
    25    25    26   ar
    26    16    27    1
    27    27     6    1
    28    12     7   ar
    29    26    20   ar
    30     3    28    1
    31     4    29    1
    32     4    30    1
    33     5    31    1
    34     5    32    1
    35     8    33    1
    36     9    34    1
    37    10    35    1
    38    11    36    1
    39    12    37    1
    40    13    38    1
    41    13    39    1
    42    14    40    1
    43    14    41    1
    44    15    42    1
    45    15    43    1
    46    19    44    1
    47    21    45    1
    48    22    46    1
    49    25    47    1
    50    26    48    1
    51    27    49    1
    52    27    50    1
