
     RDKit          3D

 50 52  0  0  0  0  0  0  0  0999 V2000
   -5.4976   -1.1136   -0.1191 O   0  0  0  0  0  0  0  0  0  0  0  0
   -4.7467   -0.6546   -1.0070 C   0  0  0  0  0  0  0  0  0  0  0  0
   -4.9909    0.6165   -1.4899 O   0  0  0  0  0  0  0  0  0  0  0  0
   -3.6322   -1.4649   -1.5156 C   0  0  0  0  0  0  0  0  0  0  0  0
   -2.2971   -0.8775   -1.5133 C   0  0  0  0  0  0  0  0  0  0  0  0
   -1.6394   -0.4477   -0.2566 C   0  0  0  0  0  0  0  0  0  0  0  0
   -2.4315    0.6110    0.4173 C   0  0  0  0  0  0  0  0  0  0  0  0
   -3.2074    0.3332    1.5048 C   0  0  0  0  0  0  0  0  0  0  0  0
   -3.9615    1.3376    2.1329 C   0  0  0  0  0  0  0  0  0  0  0  0
   -3.9209    2.6249    1.6478 C   0  0  0  0  0  0  0  0  0  0  0  0
   -3.1299    2.8762    0.5499 C   0  0  0  0  0  0  0  0  0  0  0  0
   -2.3715    1.8895   -0.0900 C   0  0  0  0  0  0  0  0  0  0  0  0
   -1.4955   -1.5587    0.7513 C   0  0  0  0  0  0  0  0  0  0  0  0
   -0.4303   -2.5094    0.2514 C   0  0  0  0  0  0  0  0  0  0  0  0
    0.8875   -1.8302    0.5647 C   0  0  0  0  0  0  0  0  0  0  0  0
    0.8533   -0.5272   -0.0390 N   0  0  0  0  0  0  0  0  0  0  0  0
    2.1205    0.1661   -0.1602 C   0  0  0  0  0  0  0  0  0  0  0  0
    2.1463    1.2964   -0.6857 O   0  0  0  0  0  0  0  0  0  0  0  0
    3.3221   -0.3882    0.2918 N   0  0  0  0  0  0  0  0  0  0  0  0
    4.6140    0.1481    0.2431 C   0  0  0  0  0  0  0  0  0  0  0  0
    4.9203    1.3661   -0.3006 C   0  0  0  0  0  0  0  0  0  0  0  0
    6.2545    1.7939   -0.2918 C   0  0  0  0  0  0  0  0  0  0  0  0
    7.2619    1.0267    0.2466 C   0  0  0  0  0  0  0  0  0  0  0  0
    8.9248    1.6195    0.2279 Cl  0  0  0  0  0  0  0  0  0  0  0  0
    6.9664   -0.2019    0.7973 C   0  0  0  0  0  0  0  0  0  0  0  0
    5.6607   -0.5995    0.7782 C   0  0  0  0  0  0  0  0  0  0  0  0
   -0.2850    0.1500   -0.5277 C   0  0  0  0  0  0  0  0  0  0  0  0
   -5.7797    1.1241   -1.1130 H   0  0  0  0  0  0  0  0  0  0  0  0
   -3.7079   -2.4777   -1.0502 H   0  0  0  0  0  0  0  0  0  0  0  0
   -3.9283   -1.6925   -2.5975 H   0  0  0  0  0  0  0  0  0  0  0  0
   -2.3309    0.0158   -2.2228 H   0  0  0  0  0  0  0  0  0  0  0  0
   -1.5925   -1.5666   -2.0674 H   0  0  0  0  0  0  0  0  0  0  0  0
   -3.3079   -0.6329    1.9632 H   0  0  0  0  0  0  0  0  0  0  0  0
   -4.5800    1.1461    2.9885 H   0  0  0  0  0  0  0  0  0  0  0  0
   -4.5042    3.4198    2.1261 H   0  0  0  0  0  0  0  0  0  0  0  0
   -3.0917    3.8742    0.1647 H   0  0  0  0  0  0  0  0  0  0  0  0
   -1.7812    2.1812   -0.9533 H   0  0  0  0  0  0  0  0  0  0  0  0
   -1.1948   -1.1019    1.7116 H   0  0  0  0  0  0  0  0  0  0  0  0
   -2.4536   -2.0883    0.9408 H   0  0  0  0  0  0  0  0  0  0  0  0
   -0.5033   -3.5007    0.7557 H   0  0  0  0  0  0  0  0  0  0  0  0
   -0.4339   -2.6502   -0.8478 H   0  0  0  0  0  0  0  0  0  0  0  0
    0.9551   -1.7768    1.6724 H   0  0  0  0  0  0  0  0  0  0  0  0
    1.6669   -2.4978    0.1336 H   0  0  0  0  0  0  0  0  0  0  0  0
    3.2176   -1.3591    0.7354 H   0  0  0  0  0  0  0  0  0  0  0  0
    4.1798    2.0233   -0.7426 H   0  0  0  0  0  0  0  0  0  0  0  0
    6.5302    2.7549   -0.7163 H   0  0  0  0  0  0  0  0  0  0  0  0
    7.7310   -0.8184    1.2222 H   0  0  0  0  0  0  0  0  0  0  0  0
    5.4476   -1.5875    1.2238 H   0  0  0  0  0  0  0  0  0  0  0  0
   -0.2248    1.2193   -0.1324 H   0  0  0  0  0  0  0  0  0  0  0  0
   -0.2083    0.3094   -1.6413 H   0  0  0  0  0  0  0  0  0  0  0  0
  1  2  2  0
  2  3  1  0
  2  4  1  0
  4  5  1  0
  5  6  1  0
  6  7  1  0
  7  8  2  0
  8  9  1  0
  9 10  2  0
 10 11  1  0
 11 12  2  0
  6 13  1  0
 13 14  1  0
 14 15  1  0
 15 16  1  0
 16 17  1  0
 17 18  2  0
 17 19  1  0
 19 20  1  0
 20 21  2  0
 21 22  1  0
 22 23  2  0
 23 24  1  0
 23 25  1  0
 25 26  2  0
 16 27  1  0
 27  6  1  0
 12  7  1  0
 26 20  1  0
  3 28  1  0
  4 29  1  0
  4 30  1  0
  5 31  1  0
  5 32  1  0
  8 33  1  0
  9 34  1  0
 10 35  1  0
 11 36  1  0
 12 37  1  0
 13 38  1  0
 13 39  1  0
 14 40  1  0
 14 41  1  0
 15 42  1  0
 15 43  1  0
 19 44  1  0
 21 45  1  0
 22 46  1  0
 25 47  1  0
 26 48  1  0
 27 49  1  0
 27 50  1  0
M  END
$$$$
