@<TRIPOS>MOLECULE
*****
 26 25 0 0 0
SMALL
GASTEIGER

@<TRIPOS>ATOM
      1 C          -0.2481    0.5532   -0.2014 C.3     1  UNL1        0.1078
      2 O          -0.3351    1.7088   -0.9679 O.3     1  UNL1       -0.3868
      3 C           1.1368   -0.0238   -0.1697 C.3     1  UNL1        0.0875
      4 O           2.0751    0.8527    0.3584 O.3     1  UNL1       -0.2841
      5 P           3.6377    0.2397    0.4105 P.3     1  UNL1        0.4724
      6 O           4.5732    1.3574    1.2718 O.3     1  UNL1       -0.3026
      7 O           3.7519   -1.2275    1.2285 O.3     1  UNL1       -0.3026
      8 O           4.2500    0.0545   -0.9547 O.2     1  UNL1       -0.2275
      9 C          -1.1562   -0.4571   -0.8713 C.3     1  UNL1        0.1194
     10 O          -1.1558   -1.6732   -0.1888 O.3     1  UNL1       -0.3860
     11 C          -2.5997    0.0395   -0.8944 C.3     1  UNL1        0.1798
     12 O          -2.7474    1.2423   -1.5428 O.3     1  UNL1       -0.3783
     13 C          -3.1836    0.0189    0.4677 C.2     1  UNL1        0.3363
     14 O          -3.0588   -1.1767    1.1617 O.3     1  UNL1       -0.4788
     15 O          -3.7769    0.9954    1.0330 O.2     1  UNL1       -0.2480
     16 H          -0.6092    0.6887    0.8236 H       1  UNL1        0.0643
     17 H           0.3416    1.6655   -1.6889 H       1  UNL1        0.2100
     18 H           1.4538   -0.4010   -1.1605 H       1  UNL1        0.0592
     19 H           1.1002   -0.9031    0.5088 H       1  UNL1        0.0592
     20 H           4.2123    1.3608    2.1960 H       1  UNL1        0.2220
     21 H           4.4104   -1.8432    0.8689 H       1  UNL1        0.2220
     22 H          -0.8102   -0.6518   -1.9073 H       1  UNL1        0.0651
     23 H          -1.6679   -2.3141   -0.7349 H       1  UNL1        0.2100
     24 H          -3.1502   -0.7382   -1.5000 H       1  UNL1        0.0738
     25 H          -2.7721    2.0194   -0.9408 H       1  UNL1        0.2106
     26 H          -3.6722   -1.3870    1.9482 H       1  UNL1        0.2951
@<TRIPOS>BOND
     1     1     2    1
     2     1     3    1
     3     3     4    1
     4     4     5    1
     5     5     6    1
     6     5     7    1
     7     5     8    2
     8     1     9    1
     9     9    10    1
    10     9    11    1
    11    11    12    1
    12    11    13    1
    13    13    14    1
    14    13    15    2
    15     1    16    1
    16     2    17    1
    17     3    18    1
    18     3    19    1
    19     6    20    1
    20     7    21    1
    21     9    22    1
    22    10    23    1
    23    11    24    1
    24    12    25    1
    25    14    26    1
