
     RDKit          3D

 26 25  0  0  0  0  0  0  0  0999 V2000
   -0.2481    0.5532   -0.2014 C   0  0  2  0  0  0  0  0  0  0  0  0
   -0.3351    1.7088   -0.9679 O   0  0  0  0  0  0  0  0  0  0  0  0
    1.1368   -0.0238   -0.1697 C   0  0  0  0  0  0  0  0  0  0  0  0
    2.0751    0.8527    0.3584 O   0  0  0  0  0  0  0  0  0  0  0  0
    3.6377    0.2397    0.4105 P   0  0  0  0  0  0  0  0  0  0  0  0
    4.5732    1.3574    1.2718 O   0  0  0  0  0  0  0  0  0  0  0  0
    3.7519   -1.2275    1.2285 O   0  0  0  0  0  0  0  0  0  0  0  0
    4.2500    0.0545   -0.9547 O   0  0  0  0  0  0  0  0  0  0  0  0
   -1.1562   -0.4571   -0.8713 C   0  0  1  0  0  0  0  0  0  0  0  0
   -1.1558   -1.6732   -0.1888 O   0  0  0  0  0  0  0  0  0  0  0  0
   -2.5997    0.0395   -0.8944 C   0  0  2  0  0  0  0  0  0  0  0  0
   -2.7474    1.2423   -1.5428 O   0  0  0  0  0  0  0  0  0  0  0  0
   -3.1836    0.0189    0.4677 C   0  0  0  0  0  0  0  0  0  0  0  0
   -3.0588   -1.1767    1.1617 O   0  0  0  0  0  0  0  0  0  0  0  0
   -3.7769    0.9954    1.0330 O   0  0  0  0  0  0  0  0  0  0  0  0
   -0.6092    0.6887    0.8236 H   0  0  0  0  0  0  0  0  0  0  0  0
    0.3416    1.6655   -1.6889 H   0  0  0  0  0  0  0  0  0  0  0  0
    1.4538   -0.4010   -1.1605 H   0  0  0  0  0  0  0  0  0  0  0  0
    1.1002   -0.9031    0.5088 H   0  0  0  0  0  0  0  0  0  0  0  0
    4.2123    1.3608    2.1960 H   0  0  0  0  0  0  0  0  0  0  0  0
    4.4104   -1.8432    0.8689 H   0  0  0  0  0  0  0  0  0  0  0  0
   -0.8102   -0.6518   -1.9073 H   0  0  0  0  0  0  0  0  0  0  0  0
   -1.6679   -2.3141   -0.7349 H   0  0  0  0  0  0  0  0  0  0  0  0
   -3.1502   -0.7382   -1.5000 H   0  0  0  0  0  0  0  0  0  0  0  0
   -2.7721    2.0194   -0.9408 H   0  0  0  0  0  0  0  0  0  0  0  0
   -3.6722   -1.3870    1.9482 H   0  0  0  0  0  0  0  0  0  0  0  0
  1  2  1  0
  1  3  1  0
  3  4  1  0
  4  5  1  0
  5  6  1  0
  5  7  1  0
  5  8  2  0
  1  9  1  0
  9 10  1  0
  9 11  1  0
 11 12  1  0
 11 13  1  0
 13 14  1  0
 13 15  2  0
  1 16  1  1
  2 17  1  0
  3 18  1  0
  3 19  1  0
  6 20  1  0
  7 21  1  0
  9 22  1  6
 10 23  1  0
 11 24  1  6
 12 25  1  0
 14 26  1  0
M  END
$$$$
