@<TRIPOS>MOLECULE
*****
 55 58 0 0 0
SMALL
GASTEIGER

@<TRIPOS>ATOM
      1 F           0.3174   -1.0149   -3.9113 F       1  UNL1       -0.2054
      2 C           0.6078   -0.9108   -2.5870 C.ar    1  UNL1        0.1272
      3 C           1.8521   -1.3109   -2.1511 C.ar    1  UNL1        0.0155
      4 C           2.1246   -1.1968   -0.8063 C.ar    1  UNL1        0.1304
      5 O           3.3752   -1.5970   -0.3533 O.3     1  UNL1       -0.4279
      6 C           4.3482   -2.1052   -1.2134 C.3     1  UNL1        0.4625
      7 F           3.9270   -3.2505   -1.8650 F       1  UNL1       -0.1583
      8 F           4.7059   -1.1933   -2.2039 F       1  UNL1       -0.1583
      9 C           5.6240   -2.4602   -0.4863 C.3     1  UNL1        0.3402
     10 F           6.5136   -2.9531   -1.4399 F       1  UNL1       -0.1984
     11 F           6.1935   -1.3307    0.0832 F       1  UNL1       -0.1984
     12 C           1.1675   -0.6929    0.0713 C.ar    1  UNL1       -0.0139
     13 C          -0.0929   -0.2845   -0.3559 C.ar    1  UNL1       -0.0118
     14 C          -1.0398    0.2054    0.6522 C.3     1  UNL1        0.1053
     15 C          -2.0277    1.2282    0.2429 C.3     1  UNL1        0.0035
     16 C          -1.5021    2.5333   -0.2101 C.ar    1  UNL1       -0.0446
     17 C          -1.2007    2.8811   -1.4863 C.ar    1  UNL1       -0.0585
     18 C          -0.7220    4.1470   -1.7617 C.ar    1  UNL1       -0.0615
     19 C          -0.5269    5.1016   -0.8021 C.ar    1  UNL1       -0.0617
     20 C          -0.8320    4.7529    0.4918 C.ar    1  UNL1       -0.0615
     21 C          -1.3060    3.5052    0.7801 C.ar    1  UNL1       -0.0585
     22 N          -1.7014   -0.9498    1.2777 N.pl3   1  UNL1       -0.3083
     23 C          -2.4645   -1.8688    0.5259 C.ar    1  UNL1        0.1606
     24 N          -2.4029   -2.8877   -0.0960 N.ar    1  UNL1       -0.2198
     25 C          -3.3122   -3.5594   -0.7289 C.ar    1  UNL1        0.1667
     26 C          -3.1535   -4.8165   -1.4775 C.3     1  UNL1        0.4359
     27 F          -3.5185   -4.6129   -2.7936 F       1  UNL1       -0.1644
     28 F          -3.9472   -5.8156   -0.8985 F       1  UNL1       -0.1644
     29 F          -1.8725   -5.2679   -1.4328 F       1  UNL1       -0.1644
     30 C          -4.5915   -2.9318   -0.6370 C.ar    1  UNL1        0.0880
     31 BR         -6.2555   -3.6576   -1.4815 Br      1  UNL1       -0.0403
     32 S          -4.3494   -1.5332    0.2936 S.2     1  UNL1       -0.0450
     33 C          -0.1988    0.8432    1.7264 C.ar    1  UNL1        0.0694
     34 C           0.8059    1.6869    1.3548 C.ar    1  UNL1       -0.0365
     35 C           1.6108    2.3087    2.3184 C.ar    1  UNL1       -0.0401
     36 C           1.3624    2.0473    3.6356 C.ar    1  UNL1        0.0590
     37 CL          2.3494    2.8069    4.8866 Cl      1  UNL1       -0.0820
     38 C           0.3511    1.1992    3.9805 C.ar    1  UNL1        0.0463
     39 N          -0.4126    0.6112    3.0214 N.ar    1  UNL1       -0.2559
     40 C          -0.3262   -0.4143   -1.6997 C.ar    1  UNL1       -0.0206
     41 H           2.5700   -1.6979   -2.8674 H       1  UNL1        0.0683
     42 H           5.4817   -3.2717    0.2559 H       1  UNL1        0.1124
     43 H           1.4201   -0.6298    1.1154 H       1  UNL1        0.0658
     44 H          -2.6600    1.4377    1.1589 H       1  UNL1        0.0341
     45 H          -2.7858    0.8458   -0.4874 H       1  UNL1        0.0341
     46 H          -1.3500    2.1673   -2.2924 H       1  UNL1        0.0620
     47 H          -0.4938    4.3777   -2.8044 H       1  UNL1        0.0618
     48 H          -0.1445    6.0944   -1.0658 H       1  UNL1        0.0618
     49 H          -0.6798    5.5059    1.2583 H       1  UNL1        0.0618
     50 H          -1.5362    3.2875    1.8316 H       1  UNL1        0.0620
     51 H          -1.6213   -1.1172    2.3003 H       1  UNL1        0.1492
     52 H           1.0411    1.9171    0.3292 H       1  UNL1        0.0637
     53 H           2.4009    2.9719    2.0435 H       1  UNL1        0.0633
     54 H           0.1640    0.9997    5.0249 H       1  UNL1        0.0844
     55 H          -1.2858   -0.1302   -2.0691 H       1  UNL1        0.0650
@<TRIPOS>BOND
     1     1     2    1
     2     2     3   ar
     3     3     4   ar
     4     4     5    1
     5     5     6    1
     6     6     7    1
     7     6     8    1
     8     6     9    1
     9     9    10    1
    10     9    11    1
    11     4    12   ar
    12    12    13   ar
    13    13    14    1
    14    14    15    1
    15    15    16    1
    16    16    17   ar
    17    17    18   ar
    18    18    19   ar
    19    19    20   ar
    20    20    21   ar
    21    14    22    1
    22    22    23    1
    23    23    24   ar
    24    24    25   ar
    25    25    26    1
    26    26    27    1
    27    26    28    1
    28    26    29    1
    29    25    30   ar
    30    30    31    1
    31    30    32   ar
    32    14    33    1
    33    33    34   ar
    34    34    35   ar
    35    35    36   ar
    36    36    37    1
    37    36    38   ar
    38    38    39   ar
    39    13    40   ar
    40    40     2   ar
    41    21    16   ar
    42    32    23   ar
    43    39    33   ar
    44     3    41    1
    45     9    42    1
    46    12    43    1
    47    15    44    1
    48    15    45    1
    49    17    46    1
    50    18    47    1
    51    19    48    1
    52    20    49    1
    53    21    50    1
    54    22    51    1
    55    34    52    1
    56    35    53    1
    57    38    54    1
    58    40    55    1
