@<TRIPOS>MOLECULE
*****
 117 118 0 0 0
SMALL
GASTEIGER

@<TRIPOS>ATOM
      1 C          13.2935    2.7597    0.3299 C.3     0  UNK0       -0.0613
      2 C          13.1852    1.3094    0.7103 C.3     0  UNK0       -0.0305
      3 C          11.9122    0.8035    0.1286 C.ar    0  UNK0       -0.0476
      4 C          11.8460    0.2867   -1.1506 C.ar    0  UNK0       -0.0579
      5 C          10.6386   -0.1688   -1.6372 C.ar    0  UNK0       -0.0494
      6 C           9.4648   -0.1346   -0.8952 C.ar    0  UNK0        0.0367
      7 C           8.2462   -0.6237   -1.5051 C.2     0  UNK0        0.2447
      8 O           8.2605   -0.9847   -2.7353 O.2     0  UNK0       -0.2702
      9 N           7.0415   -0.7079   -0.7602 N.am    1  PHE1       -0.2997
     10 CA          5.8571   -1.1963   -1.4238 C.3     1  PHE1        0.1036
     11 CB          5.3970   -2.5188   -0.8427 C.3     1  PHE1       -0.0006
     12 CG          5.0801   -2.4406    0.5867 C.ar    1  PHE1       -0.0451
     13 CD1         3.8373   -2.1298    1.0915 C.ar    1  PHE1       -0.0585
     14 CE1         3.5744   -2.0661    2.4418 C.ar    1  PHE1       -0.0615
     15 CZ          4.5961   -2.3239    3.3373 C.ar    1  PHE1       -0.0617
     16 CE2         5.8599   -2.6399    2.8653 C.ar    1  PHE1       -0.0615
     17 CD2         6.0898   -2.6952    1.5004 C.ar    1  PHE1       -0.0585
     18 C           4.8046   -0.1655   -1.4462 C.2     1  PHE1        0.2343
     19 O           4.9116    0.9655   -0.8612 O.2     1  PHE1       -0.2738
     20 N           3.5743   -0.3775   -2.1456 N.am    2  ALA2       -0.3027
     21 CA          2.5356    0.6200   -2.1833 C.3     2  ALA2        0.0966
     22 CB          2.4674    1.2593   -3.5641 C.3     2  ALA2       -0.0381
     23 C           1.2387   -0.0113   -1.8270 C.2     2  ALA2        0.2337
     24 O           1.2457   -1.2253   -1.5572 O.2     2  ALA2       -0.2738
     25 N           0.0329    0.6747   -1.7828 N.am    3  LEU3       -0.3025
     26 CA         -1.2395    0.1976   -1.4993 C.3     3  LEU3        0.0996
     27 CB         -1.5040   -1.2725   -1.4388 C.3     3  LEU3       -0.0236
     28 CG         -1.3004   -1.9703   -2.7583 C.3     3  LEU3       -0.0446
     29 CD1        -1.5784   -3.4489   -2.5387 C.3     3  LEU3       -0.0626
     30 CD2        -2.4910   -1.4523   -3.6300 C.3     3  LEU3       -0.0626
     31 C          -1.8829    0.9134   -0.4025 C.2     3  LEU3        0.2340
     32 O          -1.2175    1.7746    0.2665 O.2     3  LEU3       -0.2738
     33 N          -3.2482    0.7363    0.0097 N.am    4  UNK4       -0.3025
     34 C          -3.8272    1.4919    1.1256 C.3     4  UNK4        0.0994
     35 C          -4.7889    2.4550    0.4803 C.3     4  UNK4       -0.0259
     36 C          -5.5531    3.3345    1.4243 C.3     4  UNK4       -0.0498
     37 C          -6.3531    4.2940    0.6166 C.3     4  UNK4       -0.0401
     38 C          -7.2808    3.7595   -0.3737 C.3     4  UNK4       -0.0011
     39 N          -8.4045    3.0366   -0.1515 N.3     4  UNK4       -0.3028
     40 C          -8.5603    1.7803    0.3244 C.3     4  UNK4       -0.0040
     41 C          -8.3698    1.5026    1.7877 C.3     4  UNK4       -0.0524
     42 C          -9.5322    3.6010   -0.8860 C.3     4  UNK4       -0.0040
     43 C         -10.8075    2.8552   -0.7028 C.3     4  UNK4       -0.0524
     44 C          -4.5312    0.5886    2.0313 C.2     4  UNK4        0.2340
     45 O          -5.0489    0.9801    3.1236 O.2     4  UNK4       -0.2738
     46 N          -4.6983   -0.8110    1.7654 N.am    5  UNK5       -0.2991
     47 C          -5.4088   -1.6774    2.6816 C.3     5  UNK5        0.1437
     48 C          -6.5996   -2.3399    1.9923 C.3     5  UNK5        0.0730
     49 O          -6.2051   -3.1086    0.9097 O.3     5  UNK5       -0.3926
     50 C          -4.5068   -2.7640    3.1272 C.2     5  UNK5        0.3297
     51 O          -3.3310   -2.7847    2.6953 O.2     5  UNK5       -0.2487
     52 O          -4.9082   -3.7612    4.0025 O.3     5  UNK5       -0.4666
     53 C          -3.9697   -4.7649    4.3734 C.3     5  UNK5        0.0817
     54 C           9.5299    0.3764    0.3712 C.ar    0  UNK0       -0.0494
     55 C          10.7465    0.8451    0.8857 C.ar    0  UNK0       -0.0579
     56 H          12.3647    3.1328   -0.1689 H       0  UNK0        0.0233
     57 H          14.1059    2.9367   -0.4148 H       0  UNK0        0.0233
     58 H          13.4266    3.3582    1.2431 H       0  UNK0        0.0233
     59 H          13.0801    1.2176    1.8315 H       0  UNK0        0.0311
     60 H          14.0267    0.7030    0.3394 H       0  UNK0        0.0311
     61 H          12.7699    0.2657   -1.7201 H       0  UNK0        0.0620
     62 H          10.6161   -0.5650   -2.6339 H       0  UNK0        0.0625
     63 H           7.0267   -0.4253    0.2315 H       1  PHE1        0.1498
     64 HA          6.1109   -1.4171   -2.4849 H       1  PHE1        0.0598
     65 HB1         6.0910   -3.3337   -1.0557 H       1  PHE1        0.0336
     66 HB2         4.4315   -2.7715   -1.3710 H       1  PHE1        0.0336
     67 HD1         3.0049   -1.9195    0.4195 H       1  PHE1        0.0620
     68 HE1         2.5877   -1.8189    2.7670 H       1  PHE1        0.0618
     69 HZ          4.3913   -2.2739    4.3819 H       1  PHE1        0.0618
     70 HE2         6.6298   -2.8342    3.5931 H       1  PHE1        0.0618
     71 HD2         7.0934   -2.9456    1.1875 H       1  PHE1        0.0620
     72 H           3.4854   -1.3123   -2.6275 H       2  ALA2        0.1495
     73 HA          2.7300    1.4414   -1.4758 H       2  ALA2        0.0592
     74 HB1         2.5225    0.5263   -4.3680 H       2  ALA2        0.0252
     75 HB2         3.3645    1.9077   -3.6343 H       2  ALA2        0.0252
     76 HB3         1.5862    1.9095   -3.6524 H       2  ALA2        0.0252
     77 H           0.0894    1.7279   -1.9992 H       3  LEU3        0.1495
     78 HA         -1.8603    0.4724   -2.4624 H       3  LEU3        0.0594
     79 HB1        -0.9785   -1.7830   -0.6035 H       3  LEU3        0.0290
     80 HB2        -2.5860   -1.3966   -1.2116 H       3  LEU3        0.0290
     81 HG         -0.4434   -1.7404   -3.3488 H       3  LEU3        0.0296
     82 HD11       -2.5047   -3.5373   -1.9415 H       3  LEU3        0.0232
     83 HD12       -1.7293   -3.8992   -3.5481 H       3  LEU3        0.0232
     84 HD13       -0.7821   -3.9463   -1.9832 H       3  LEU3        0.0232
     85 HD21       -2.7247   -2.2276   -4.3748 H       3  LEU3        0.0232
     86 HD22       -3.3360   -1.1554   -2.9990 H       3  LEU3        0.0232
     87 HD23       -2.1632   -0.5568   -4.1973 H       3  LEU3        0.0232
     88 H          -3.8025    0.0505   -0.5336 H       4  UNK4        0.1495
     89 H          -3.0099    2.0466    1.6581 H       4  UNK4        0.0594
     90 H          -5.5404    1.8742   -0.1047 H       4  UNK4        0.0288
     91 H          -4.2157    3.1000   -0.1977 H       4  UNK4        0.0288
     92 H          -4.7915    4.0083    1.9879 H       4  UNK4        0.0266
     93 H          -6.0724    2.8537    2.2364 H       4  UNK4        0.0266
     94 H          -6.8488    5.0698    1.2940 H       4  UNK4        0.0278
     95 H          -5.6156    4.9895    0.0542 H       4  UNK4        0.0278
     96 H          -7.5287    4.6774   -1.1070 H       4  UNK4        0.0426
     97 H          -6.6328    3.1889   -1.2006 H       4  UNK4        0.0426
     98 H          -7.7976    1.0551   -0.1766 H       4  UNK4        0.0424
     99 H          -9.5444    1.2751    0.0587 H       4  UNK4        0.0424
    100 H          -8.3631    2.4372    2.3985 H       4  UNK4        0.0242
    101 H          -7.4706    0.9274    2.0275 H       4  UNK4        0.0242
    102 H          -9.2962    0.9663    2.1872 H       4  UNK4        0.0242
    103 H          -9.6642    4.6376   -0.5360 H       4  UNK4        0.0424
    104 H          -9.3032    3.6333   -1.9625 H       4  UNK4        0.0424
    105 H         -11.6266    3.5237   -1.1025 H       4  UNK4        0.0242
    106 H         -11.0789    2.6854    0.3583 H       4  UNK4        0.0242
    107 H         -10.8934    1.9281   -1.3140 H       4  UNK4        0.0242
    108 H          -4.3070   -1.2381    0.9016 H       5  UNK5        0.1496
    109 H          -5.7984   -1.1134    3.5534 H       5  UNK5        0.0638
    110 H          -7.3571   -1.6068    1.6771 H       5  UNK5        0.0581
    111 H          -7.0722   -2.9715    2.7880 H       5  UNK5        0.0581
    112 H          -5.2267   -3.0638    0.7618 H       5  UNK5        0.2095
    113 H          -3.7193   -5.3487    3.4644 H       5  UNK5        0.0661
    114 H          -3.0478   -4.2474    4.7066 H       5  UNK5        0.0661
    115 H          -4.3365   -5.3841    5.2052 H       5  UNK5        0.0661
    116 H           8.6500    0.4285    0.9908 H       0  UNK0        0.0625
    117 H          10.7640    1.2411    1.8836 H       0  UNK0        0.0620
@<TRIPOS>BOND
     1     1     2    1
     2     2     3    1
     3     3     4   ar
     4     4     5   ar
     5     5     6   ar
     6     6     7    1
     7     7     8    2
     8     7     9   am
     9     9    10    1
    10    10    11    1
    11    11    12    1
    12    12    13   ar
    13    13    14   ar
    14    14    15   ar
    15    15    16   ar
    16    16    17   ar
    17    10    18    1
    18    18    19    2
    19    18    20   am
    20    20    21    1
    21    21    22    1
    22    21    23    1
    23    23    24    2
    24    23    25   am
    25    25    26    1
    26    26    27    1
    27    27    28    1
    28    28    29    1
    29    28    30    1
    30    26    31    1
    31    31    32    2
    32    31    33   am
    33    33    34    1
    34    34    35    1
    35    35    36    1
    36    36    37    1
    37    37    38    1
    38    38    39    1
    39    39    40    1
    40    40    41    1
    41    39    42    1
    42    42    43    1
    43    34    44    1
    44    44    45    2
    45    44    46   am
    46    46    47    1
    47    47    48    1
    48    48    49    1
    49    47    50    1
    50    50    51    2
    51    50    52    1
    52    52    53    1
    53     6    54   ar
    54    54    55   ar
    55    55     3   ar
    56    17    12   ar
    57     1    56    1
    58     1    57    1
    59     1    58    1
    60     2    59    1
    61     2    60    1
    62     4    61    1
    63     5    62    1
    64     9    63    1
    65    10    64    1
    66    11    65    1
    67    11    66    1
    68    13    67    1
    69    14    68    1
    70    15    69    1
    71    16    70    1
    72    17    71    1
    73    20    72    1
    74    21    73    1
    75    22    74    1
    76    22    75    1
    77    22    76    1
    78    25    77    1
    79    26    78    1
    80    27    79    1
    81    27    80    1
    82    28    81    1
    83    29    82    1
    84    29    83    1
    85    29    84    1
    86    30    85    1
    87    30    86    1
    88    30    87    1
    89    33    88    1
    90    34    89    1
    91    35    90    1
    92    35    91    1
    93    36    92    1
    94    36    93    1
    95    37    94    1
    96    37    95    1
    97    38    96    1
    98    38    97    1
    99    40    98    1
   100    40    99    1
   101    41   100    1
   102    41   101    1
   103    41   102    1
   104    42   103    1
   105    42   104    1
   106    43   105    1
   107    43   106    1
   108    43   107    1
   109    46   108    1
   110    47   109    1
   111    48   110    1
   112    48   111    1
   113    49   112    1
   114    53   113    1
   115    53   114    1
   116    53   115    1
   117    54   116    1
   118    55   117    1
