@<TRIPOS>MOLECULE
*****
 23 24 0 0 0
SMALL
GASTEIGER

@<TRIPOS>ATOM
      1 N          -4.7329   -1.8023    0.0619 N.pl3   1  UNL1       -0.3375
      2 C          -3.5268   -0.9462    0.0113 C.ar    1  UNL1        0.1557
      3 N          -3.0891   -0.4357   -0.9794 N.ar    1  UNL1       -0.2332
      4 C          -2.0102    0.3277   -1.0125 C.ar    1  UNL1        0.0403
      5 C          -1.2996    0.5893    0.1398 C.ar    1  UNL1        0.0153
      6 C          -0.1319    1.3673    0.3387 C.3     1  UNL1        0.0054
      7 C           1.1780    0.7290    0.2274 C.ar    1  UNL1       -0.0425
      8 C           1.7884    0.7095   -1.0180 C.ar    1  UNL1       -0.0582
      9 C           3.0341    0.1372   -1.2729 C.ar    1  UNL1       -0.0615
     10 C           3.6961   -0.4488   -0.1981 C.ar    1  UNL1       -0.0617
     11 C           3.1284   -0.4532    1.0567 C.ar    1  UNL1       -0.0615
     12 C           1.8925    0.1270    1.2566 C.ar    1  UNL1       -0.0582
     13 S          -2.2710   -0.3342    1.3191 S.2     1  UNL1       -0.0573
     14 H          -5.5803   -1.2220   -0.1380 H       1  UNL1        0.1442
     15 H          -4.5797   -2.8136    0.2786 H       1  UNL1        0.1442
     16 H          -1.6766    0.7587   -1.9720 H       1  UNL1        0.0838
     17 H          -0.1495    2.2390   -0.3494 H       1  UNL1        0.0367
     18 H          -0.1619    1.8209    1.3741 H       1  UNL1        0.0367
     19 H           1.2781    1.1690   -1.8798 H       1  UNL1        0.0620
     20 H           3.4586    0.1526   -2.2633 H       1  UNL1        0.0618
     21 H           4.6709   -0.8928   -0.4144 H       1  UNL1        0.0618
     22 H           3.6605   -0.9178    1.8928 H       1  UNL1        0.0618
     23 H           1.4239    0.1393    2.2237 H       1  UNL1        0.0620
@<TRIPOS>BOND
     1     1     2    1
     2     2     3   ar
     3     3     4   ar
     4     4     5   ar
     5     5     6    1
     6     6     7    1
     7     7     8   ar
     8     8     9   ar
     9     9    10   ar
    10    10    11   ar
    11    11    12   ar
    12     5    13   ar
    13    13     2   ar
    14    12     7   ar
    15     1    14    1
    16     1    15    1
    17     4    16    1
    18     6    17    1
    19     6    18    1
    20     8    19    1
    21     9    20    1
    22    10    21    1
    23    11    22    1
    24    12    23    1
