@<TRIPOS>MOLECULE
*****
 55 58 0 0 0
SMALL
GASTEIGER

@<TRIPOS>ATOM
      1 C           8.9407   -2.9974   -2.4447 C.3     1  UNL1       -0.0306
      2 C           8.8592   -1.4923   -2.4224 C.3     1  UNL1        0.0900
      3 O           7.5860   -1.0835   -1.9170 O.3     1  UNL1       -0.4604
      4 C           7.2154    0.2317   -1.7779 C.2     1  UNL1        0.3557
      5 O           8.0286    1.1274   -2.1093 O.2     1  UNL1       -0.2433
      6 C           5.9101    0.6399   -1.2583 C.ar    1  UNL1        0.1254
      7 C           4.8919   -0.1993   -0.8401 C.ar    1  UNL1       -0.0222
      8 C           3.8163    0.5465   -0.4112 C.ar    1  UNL1        0.0011
      9 C           2.5667    0.2552    0.0994 C.ar    1  UNL1       -0.0434
     10 C           1.6676    1.2344    0.4583 C.ar    1  UNL1        0.0007
     11 C           0.3608    0.8621    0.9979 C.ar    1  UNL1        0.0693
     12 C          -0.4910   -0.1066    0.5130 C.ar    1  UNL1       -0.0039
     13 C          -1.5903   -0.1152    1.3255 C.ar    1  UNL1        0.1476
     14 C          -2.7778   -0.9612    1.2400 C.2     1  UNL1        0.2644
     15 O          -2.8604   -1.8038    0.3215 O.2     1  UNL1       -0.2685
     16 N          -3.8138   -0.8281    2.1806 N.am    1  UNL1       -0.3059
     17 C          -5.0321   -1.6071    2.1976 C.3     1  UNL1        0.0372
     18 C          -6.0253   -1.1830    1.1923 C.ar    1  UNL1       -0.0303
     19 C          -6.9275   -0.1692    1.5068 C.ar    1  UNL1       -0.0563
     20 C          -7.8615    0.2168    0.5780 C.ar    1  UNL1       -0.0475
     21 C          -7.9215   -0.3875   -0.6704 C.ar    1  UNL1        0.0589
     22 C          -8.9119    0.0175   -1.6577 C.2     1  UNL1        0.3368
     23 O          -8.9343   -0.5437   -2.7614 O.2     1  UNL1       -0.2451
     24 O          -9.8115    1.0215   -1.3487 O.3     1  UNL1       -0.4771
     25 C          -7.0212   -1.3755   -0.9394 C.ar    1  UNL1       -0.0475
     26 C          -6.0647   -1.7932   -0.0306 C.ar    1  UNL1       -0.0563
     27 N          -1.3623    0.8327    2.2527 N.ar    1  UNL1       -0.1662
     28 N          -0.2048    1.4286    2.0770 N.ar    1  UNL1       -0.2660
     29 C           0.3411    2.5007    2.9117 C.3     1  UNL1        0.0309
     30 C           2.0458    2.5474    0.2947 C.ar    1  UNL1       -0.0506
     31 C           3.2956    2.8669   -0.2162 C.ar    1  UNL1       -0.0372
     32 C           4.1849    1.8652   -0.5706 C.ar    1  UNL1        0.0471
     33 N           5.4432    1.8847   -1.0795 N.ar    1  UNL1       -0.3490
     34 H           9.1702   -3.3298   -1.4080 H       1  UNL1        0.0262
     35 H           7.9689   -3.4262   -2.7594 H       1  UNL1        0.0262
     36 H           9.7947   -3.3041   -3.0658 H       1  UNL1        0.0262
     37 H           9.0411   -1.0522   -3.4082 H       1  UNL1        0.0695
     38 H           9.6352   -1.1263   -1.6881 H       1  UNL1        0.0695
     39 H           4.9460   -1.2817   -0.8542 H       1  UNL1        0.0647
     40 H           2.3052   -0.8064    0.2127 H       1  UNL1        0.0631
     41 H          -0.3112   -0.7447   -0.3609 H       1  UNL1        0.0662
     42 H          -3.6600   -0.0861    2.9286 H       1  UNL1        0.1494
     43 H          -5.4792   -1.5286    3.2125 H       1  UNL1        0.0512
     44 H          -4.7224   -2.6578    1.9713 H       1  UNL1        0.0512
     45 H          -6.8850    0.2963    2.4614 H       1  UNL1        0.0621
     46 H          -8.5935    1.0094    0.7771 H       1  UNL1        0.0626
     47 H         -10.6614    1.1812   -1.8969 H       1  UNL1        0.2954
     48 H          -7.0496   -1.8605   -1.9070 H       1  UNL1        0.0626
     49 H          -5.3720   -2.5958   -0.3007 H       1  UNL1        0.0621
     50 H           0.0261    2.3788    3.9674 H       1  UNL1        0.0473
     51 H           1.4552    2.4524    2.9226 H       1  UNL1        0.0473
     52 H          -0.0293    3.4863    2.5631 H       1  UNL1        0.0473
     53 H           1.3485    3.3440    0.5727 H       1  UNL1        0.0625
     54 H           3.5902    3.8988   -0.3436 H       1  UNL1        0.0638
     55 H           5.9404    2.7726   -1.2880 H       1  UNL1        0.1661
@<TRIPOS>BOND
     1     1     2    1
     2     2     3    1
     3     3     4    1
     4     4     5    2
     5     4     6    1
     6     6     7   ar
     7     7     8   ar
     8     8     9   ar
     9     9    10   ar
    10    10    11    1
    11    11    12   ar
    12    12    13   ar
    13    13    14    1
    14    14    15    2
    15    14    16   am
    16    16    17    1
    17    17    18    1
    18    18    19   ar
    19    19    20   ar
    20    20    21   ar
    21    21    22    1
    22    22    23    2
    23    22    24    1
    24    21    25   ar
    25    25    26   ar
    26    13    27   ar
    27    27    28   ar
    28    28    29    1
    29    10    30   ar
    30    30    31   ar
    31    31    32   ar
    32    32    33   ar
    33    33     6   ar
    34    32     8   ar
    35    28    11   ar
    36    26    18   ar
    37     1    34    1
    38     1    35    1
    39     1    36    1
    40     2    37    1
    41     2    38    1
    42     7    39    1
    43     9    40    1
    44    12    41    1
    45    16    42    1
    46    17    43    1
    47    17    44    1
    48    19    45    1
    49    20    46    1
    50    24    47    1
    51    25    48    1
    52    26    49    1
    53    29    50    1
    54    29    51    1
    55    29    52    1
    56    30    53    1
    57    31    54    1
    58    33    55    1
