
     RDKit          3D

 33 35  0  0  0  0  0  0  0  0999 V2000
    6.7420   -2.1122    2.2205 C   0  0  0  0  0  0  0  0  0  0  0  0
    6.0848   -1.0399    1.7297 C   0  0  0  0  0  0  0  0  0  0  0  0
    5.5422   -0.1805    1.3412 C   0  0  0  0  0  0  0  0  0  0  0  0
    4.2326   -0.6733    0.7110 O   0  0  0  0  0  0  0  0  0  0  0  0
    3.0999   -0.2255    0.3718 C   0  0  0  0  0  0  0  0  0  0  0  0
    2.4358    0.9151    0.5490 C   0  0  0  0  0  0  0  0  0  0  0  0
    1.2189    1.3306    0.1419 C   0  0  0  0  0  0  0  0  0  0  0  0
    0.4911    0.3317   -0.6486 C   0  0  0  0  0  0  0  0  0  0  0  0
   -0.9284    0.6721   -0.8812 C   0  0  0  0  0  0  0  0  0  0  0  0
   -1.6687   -0.5421   -0.7373 N   0  0  0  0  0  0  0  0  0  0  0  0
   -3.0411   -0.3486   -0.6136 C   0  0  0  0  0  0  0  0  0  0  0  0
   -3.8459   -1.5206   -0.3865 C   0  0  0  0  0  0  0  0  0  0  0  0
   -5.2229   -1.4272   -0.2204 C   0  0  0  0  0  0  0  0  0  0  0  0
   -5.6846   -0.0210   -0.3473 C   0  0  0  0  0  0  0  0  0  0  0  0
   -4.9377    1.0359   -0.5193 C   0  0  0  0  0  0  0  0  0  0  0  0
   -3.5223    0.8081   -0.6322 C   0  0  0  0  0  0  0  0  0  0  0  0
   -2.8396    2.0618   -0.7470 C   0  0  0  0  0  0  0  0  0  0  0  0
   -3.3275    3.0894   -0.7340 O   0  0  0  0  0  0  0  0  0  0  0  0
   -1.4621    1.8233   -0.8752 N   0  0  0  0  0  0  0  0  0  0  0  0
    1.1111   -0.7801   -0.8464 C   0  0  0  0  0  0  0  0  0  0  0  0
    2.2797   -1.2396   -0.4886 C   0  0  0  0  0  0  0  0  0  0  0  0
    7.4060   -3.1889    2.6887 H   0  0  0  0  0  0  0  0  0  0  0  0
    5.0496    0.6718    1.9825 H   0  0  0  0  0  0  0  0  0  0  0  0
    5.8484    0.3926    0.3086 H   0  0  0  0  0  0  0  0  0  0  0  0
    2.9953    1.6511    1.3104 H   0  0  0  0  0  0  0  0  0  0  0  0
    0.7692    2.2507    0.3385 H   0  0  0  0  0  0  0  0  0  0  0  0
   -3.3765   -2.5070   -0.3678 H   0  0  0  0  0  0  0  0  0  0  0  0
   -5.8352   -2.2194    0.0485 H   0  0  0  0  0  0  0  0  0  0  0  0
   -6.7859   -0.0760   -0.2853 H   0  0  0  0  0  0  0  0  0  0  0  0
   -5.3027    2.0520   -0.5236 H   0  0  0  0  0  0  0  0  0  0  0  0
   -0.8146    2.6861   -0.9137 H   0  0  0  0  0  0  0  0  0  0  0  0
    0.4644   -1.5698   -1.4193 H   0  0  0  0  0  0  0  0  0  0  0  0
    2.8245   -2.1004   -0.6239 H   0  0  0  0  0  0  0  0  0  0  0  0
  1  2  3  0
  2  3  1  0
  3  4  1  0
  4  5  1  0
  5  6  2  0
  6  7  1  0
  7  8  2  0
  8  9  1  0
  9 10  2  0
 10 11  1  0
 11 12  2  0
 12 13  1  0
 13 14  2  0
 14 15  1  0
 15 16  2  0
 16 17  1  0
 17 18  2  0
 17 19  1  0
  8 20  1  0
 20 21  2  0
 21  5  1  0
 19  9  1  0
 16 11  1  0
  1 22  1  0
  3 23  1  0
  3 24  1  0
  6 25  1  0
  7 26  1  0
 12 27  1  0
 13 28  1  0
 14 29  1  0
 15 30  1  0
 19 31  1  0
 20 32  1  0
 21 33  1  0
M  END
$$$$
