@<TRIPOS>MOLECULE
*****
 33 35 0 0 0
SMALL
GASTEIGER

@<TRIPOS>ATOM
      1 C           6.7420   -2.1122    2.2205 C.1     1  UNL1       -0.1158
      2 C           6.0848   -1.0399    1.7297 C.1     1  UNL1       -0.0648
      3 C           5.5422   -0.1805    1.3412 C.3     1  UNL1        0.1496
      4 O           4.2326   -0.6733    0.7110 O.3     1  UNL1       -0.4795
      5 C           3.0999   -0.2255    0.3718 C.ar    1  UNL1        0.1219
      6 C           2.4358    0.9151    0.5490 C.ar    1  UNL1       -0.0192
      7 C           1.2189    1.3306    0.1419 C.ar    1  UNL1       -0.0477
      8 C           0.4911    0.3317   -0.6486 C.ar    1  UNL1        0.0176
      9 C          -0.9284    0.6721   -0.8812 C.ar    1  UNL1        0.1414
     10 N          -1.6687   -0.5421   -0.7373 N.ar    1  UNL1       -0.2290
     11 C          -3.0411   -0.3486   -0.6136 C.ar    1  UNL1        0.0785
     12 C          -3.8459   -1.5206   -0.3865 C.ar    1  UNL1       -0.0355
     13 C          -5.2229   -1.4272   -0.2204 C.ar    1  UNL1       -0.0597
     14 C          -5.6846   -0.0210   -0.3473 C.ar    1  UNL1       -0.0609
     15 C          -4.9377    1.0359   -0.5193 C.ar    1  UNL1       -0.0474
     16 C          -3.5223    0.8081   -0.6322 C.ar    1  UNL1        0.0647
     17 C          -2.8396    2.0618   -0.7470 C.ar    1  UNL1        0.2595
     18 O          -3.3275    3.0894   -0.7340 O.2     1  UNL1       -0.2671
     19 N          -1.4621    1.8233   -0.8752 N.ar    1  UNL1       -0.3064
     20 C           1.1111   -0.7801   -0.8464 C.ar    1  UNL1       -0.0477
     21 C           2.2797   -1.2396   -0.4886 C.ar    1  UNL1       -0.0192
     22 H           7.4060   -3.1889    2.6887 H       1  UNL1        0.1229
     23 H           5.0496    0.6718    1.9825 H       1  UNL1        0.0837
     24 H           5.8484    0.3926    0.3086 H       1  UNL1        0.0837
     25 H           2.9953    1.6511    1.3104 H       1  UNL1        0.0654
     26 H           0.7692    2.2507    0.3385 H       1  UNL1        0.0626
     27 H          -3.3765   -2.5070   -0.3678 H       1  UNL1        0.0639
     28 H          -5.8352   -2.2194    0.0485 H       1  UNL1        0.0618
     29 H          -6.7859   -0.0760   -0.2853 H       1  UNL1        0.0618
     30 H          -5.3027    2.0520   -0.5236 H       1  UNL1        0.0626
     31 H          -0.8146    2.6861   -0.9137 H       1  UNL1        0.1704
     32 H           0.4644   -1.5698   -1.4193 H       1  UNL1        0.0626
     33 H           2.8245   -2.1004   -0.6239 H       1  UNL1        0.0654
@<TRIPOS>BOND
     1     1     2    3
     2     2     3    1
     3     3     4    1
     4     4     5    1
     5     5     6   ar
     6     6     7   ar
     7     7     8   ar
     8     8     9    1
     9     9    10   ar
    10    10    11   ar
    11    11    12   ar
    12    12    13   ar
    13    13    14   ar
    14    14    15   ar
    15    15    16   ar
    16    16    17   ar
    17    17    18    2
    18    17    19   ar
    19     8    20   ar
    20    20    21   ar
    21    21     5   ar
    22    19     9   ar
    23    16    11   ar
    24     1    22    1
    25     3    23    1
    26     3    24    1
    27     6    25    1
    28     7    26    1
    29    12    27    1
    30    13    28    1
    31    14    29    1
    32    15    30    1
    33    19    31    1
    34    20    32    1
    35    21    33    1
