
     RDKit          3D

 55 58  0  0  0  0  0  0  0  0999 V2000
    3.4303   -0.7830    0.3403 C   0  0  1  0  0  0  0  0  0  0  0  0
    3.5953    0.4664    1.2165 C   0  0  0  0  0  0  0  0  0  0  0  0
    2.4140    1.3373    0.7561 C   0  0  0  0  0  0  0  0  0  0  0  0
    1.3925    0.2813    0.6683 C   0  0  1  0  0  0  0  0  0  0  0  0
    0.0717    0.5871    0.0943 C   0  0  2  0  0  0  0  0  0  0  0  0
   -0.5626    1.7887    0.7613 C   0  0  0  0  0  0  0  0  0  0  0  0
   -1.8902    1.9924    0.0998 C   0  0  0  0  0  0  0  0  0  0  0  0
   -2.3783    0.7815   -0.6727 C   0  0  2  0  0  0  0  0  0  0  0  0
   -3.8530    1.0570   -0.9476 C   0  0  0  0  0  0  0  0  0  0  0  0
   -4.4830    1.3021    0.3669 C   0  0  0  0  0  0  0  0  0  0  0  0
   -5.0973    2.3480    0.5798 O   0  0  0  0  0  0  0  0  0  0  0  0
   -4.3248    0.2384    1.3645 C   0  0  0  0  0  0  0  0  0  0  0  0
   -2.9705   -0.3589    1.4646 C   0  0  0  0  0  0  0  0  0  0  0  0
   -2.2160   -0.4842    0.1620 C   0  0  1  0  0  0  0  0  0  0  0  0
   -2.8498   -1.6312   -0.5859 C   0  0  0  0  0  0  0  0  0  0  0  0
   -0.7745   -0.6479    0.4494 C   0  0  1  0  0  0  0  0  0  0  0  0
   -0.1803   -1.8749   -0.2169 C   0  0  0  0  0  0  0  0  0  0  0  0
    1.2748   -2.0216    0.0245 C   0  0  0  0  0  0  0  0  0  0  0  0
    2.0667   -0.7555   -0.2412 C   0  0  2  0  0  0  0  0  0  0  0  0
    1.9664   -0.4288   -1.6889 C   0  0  0  0  0  0  0  0  0  0  0  0
    4.5481   -0.7777   -0.6160 C   0  0  0  0  0  0  0  0  0  0  0  0
    4.9506    0.2122   -1.6178 C   0  0  0  0  0  0  0  0  0  0  0  0
    5.3165   -1.7479   -0.6244 O   0  0  0  0  0  0  0  0  0  0  0  0
    3.5272   -1.6380    1.0733 H   0  0  0  0  0  0  0  0  0  0  0  0
    3.4026    0.2589    2.2828 H   0  0  0  0  0  0  0  0  0  0  0  0
    4.5609    0.9540    1.0994 H   0  0  0  0  0  0  0  0  0  0  0  0
    2.6492    1.8526   -0.1731 H   0  0  0  0  0  0  0  0  0  0  0  0
    2.1289    2.0225    1.5959 H   0  0  0  0  0  0  0  0  0  0  0  0
    1.2726   -0.1996    1.6572 H   0  0  0  0  0  0  0  0  0  0  0  0
    0.0484    0.7594   -0.9891 H   0  0  0  0  0  0  0  0  0  0  0  0
    0.0994    2.6638    0.5171 H   0  0  0  0  0  0  0  0  0  0  0  0
   -0.5872    1.7171    1.8481 H   0  0  0  0  0  0  0  0  0  0  0  0
   -1.8463    2.8315   -0.6434 H   0  0  0  0  0  0  0  0  0  0  0  0
   -2.6734    2.2595    0.8561 H   0  0  0  0  0  0  0  0  0  0  0  0
   -1.8835    0.6344   -1.6318 H   0  0  0  0  0  0  0  0  0  0  0  0
   -3.8542    1.9642   -1.5942 H   0  0  0  0  0  0  0  0  0  0  0  0
   -4.3451    0.2560   -1.5235 H   0  0  0  0  0  0  0  0  0  0  0  0
   -5.1387   -0.5036    1.2191 H   0  0  0  0  0  0  0  0  0  0  0  0
   -4.5553    0.6988    2.3678 H   0  0  0  0  0  0  0  0  0  0  0  0
   -3.0819   -1.4024    1.8725 H   0  0  0  0  0  0  0  0  0  0  0  0
   -2.3685    0.1613    2.2555 H   0  0  0  0  0  0  0  0  0  0  0  0
   -2.6867   -2.5600    0.0352 H   0  0  0  0  0  0  0  0  0  0  0  0
   -3.9589   -1.4873   -0.5349 H   0  0  0  0  0  0  0  0  0  0  0  0
   -2.5324   -1.7408   -1.6227 H   0  0  0  0  0  0  0  0  0  0  0  0
   -0.5921   -0.8025    1.5394 H   0  0  0  0  0  0  0  0  0  0  0  0
   -0.6672   -2.7613    0.2869 H   0  0  0  0  0  0  0  0  0  0  0  0
   -0.4790   -1.9138   -1.2653 H   0  0  0  0  0  0  0  0  0  0  0  0
    1.4692   -2.3046    1.0793 H   0  0  0  0  0  0  0  0  0  0  0  0
    1.6433   -2.8439   -0.6233 H   0  0  0  0  0  0  0  0  0  0  0  0
    2.8160   -0.8820   -2.2365 H   0  0  0  0  0  0  0  0  0  0  0  0
    1.8533    0.6484   -1.9267 H   0  0  0  0  0  0  0  0  0  0  0  0
    1.0582   -0.9089   -2.1526 H   0  0  0  0  0  0  0  0  0  0  0  0
    4.2123    1.0165   -1.7910 H   0  0  0  0  0  0  0  0  0  0  0  0
    5.1059   -0.2947   -2.6092 H   0  0  0  0  0  0  0  0  0  0  0  0
    5.9559    0.6635   -1.4048 H   0  0  0  0  0  0  0  0  0  0  0  0
  1  2  1  0
  2  3  1  0
  3  4  1  0
  4  5  1  0
  5  6  1  0
  6  7  1  0
  7  8  1  0
  8  9  1  0
  9 10  1  0
 10 11  2  0
 10 12  1  0
 12 13  1  0
 13 14  1  0
 14 15  1  6
 14 16  1  0
 16 17  1  0
 17 18  1  0
 18 19  1  0
 19 20  1  6
  1 21  1  0
 21 22  1  0
 21 23  2  0
 19  1  1  0
 19  4  1  0
 16  5  1  0
 14  8  1  0
  1 24  1  1
  2 25  1  0
  2 26  1  0
  3 27  1  0
  3 28  1  0
  4 29  1  1
  5 30  1  6
  6 31  1  0
  6 32  1  0
  7 33  1  0
  7 34  1  0
  8 35  1  6
  9 36  1  0
  9 37  1  0
 12 38  1  0
 12 39  1  0
 13 40  1  0
 13 41  1  0
 15 42  1  0
 15 43  1  0
 15 44  1  0
 16 45  1  1
 17 46  1  0
 17 47  1  0
 18 48  1  0
 18 49  1  0
 20 50  1  0
 20 51  1  0
 20 52  1  0
 22 53  1  0
 22 54  1  0
 22 55  1  0
M  END
$$$$
