@<TRIPOS>MOLECULE
*****
 55 58 0 0 0
SMALL
GASTEIGER

@<TRIPOS>ATOM
      1 C           3.4303   -0.7830    0.3403 C.3     1  UNL1        0.0229
      2 C           3.5953    0.4664    1.2165 C.3     1  UNL1       -0.0427
      3 C           2.4140    1.3373    0.7561 C.3     1  UNL1       -0.0488
      4 C           1.3925    0.2813    0.6683 C.3     1  UNL1       -0.0319
      5 C           0.0717    0.5871    0.0943 C.3     1  UNL1       -0.0343
      6 C          -0.5626    1.7887    0.7613 C.3     1  UNL1       -0.0494
      7 C          -1.8902    1.9924    0.0998 C.3     1  UNL1       -0.0491
      8 C          -2.3783    0.7815   -0.6727 C.3     1  UNL1       -0.0287
      9 C          -3.8530    1.0570   -0.9476 C.3     1  UNL1        0.0092
     10 C          -4.4830    1.3021    0.3669 C.2     1  UNL1        0.1337
     11 O          -5.0973    2.3480    0.5798 O.2     1  UNL1       -0.2974
     12 C          -4.3248    0.2384    1.3645 C.3     1  UNL1        0.0063
     13 C          -2.9705   -0.3589    1.4646 C.3     1  UNL1       -0.0404
     14 C          -2.2160   -0.4842    0.1620 C.3     1  UNL1       -0.0254
     15 C          -2.8498   -1.6312   -0.5859 C.3     1  UNL1       -0.0590
     16 C          -0.7745   -0.6479    0.4494 C.3     1  UNL1       -0.0322
     17 C          -0.1803   -1.8749   -0.2169 C.3     1  UNL1       -0.0489
     18 C           1.2748   -2.0216    0.0245 C.3     1  UNL1       -0.0464
     19 C           2.0667   -0.7555   -0.2412 C.3     1  UNL1       -0.0195
     20 C           1.9664   -0.4288   -1.6889 C.3     1  UNL1       -0.0587
     21 C           4.5481   -0.7777   -0.6160 C.2     1  UNL1        0.1339
     22 C           4.9506    0.2122   -1.6178 C.3     1  UNL1       -0.0058
     23 O           5.3165   -1.7479   -0.6244 O.2     1  UNL1       -0.2974
     24 H           3.5272   -1.6380    1.0733 H       1  UNL1        0.0383
     25 H           3.4026    0.2589    2.2828 H       1  UNL1        0.0272
     26 H           4.5609    0.9540    1.0994 H       1  UNL1        0.0272
     27 H           2.6492    1.8526   -0.1731 H       1  UNL1        0.0268
     28 H           2.1289    2.0225    1.5959 H       1  UNL1        0.0268
     29 H           1.2726   -0.1996    1.6572 H       1  UNL1        0.0309
     30 H           0.0484    0.7594   -0.9891 H       1  UNL1        0.0306
     31 H           0.0994    2.6638    0.5171 H       1  UNL1        0.0268
     32 H          -0.5872    1.7171    1.8481 H       1  UNL1        0.0268
     33 H          -1.8463    2.8315   -0.6434 H       1  UNL1        0.0268
     34 H          -2.6734    2.2595    0.8561 H       1  UNL1        0.0268
     35 H          -1.8835    0.6344   -1.6318 H       1  UNL1        0.0310
     36 H          -3.8542    1.9642   -1.5942 H       1  UNL1        0.0344
     37 H          -4.3451    0.2560   -1.5235 H       1  UNL1        0.0344
     38 H          -5.1387   -0.5036    1.2191 H       1  UNL1        0.0342
     39 H          -4.5553    0.6988    2.3678 H       1  UNL1        0.0342
     40 H          -3.0819   -1.4024    1.8725 H       1  UNL1        0.0275
     41 H          -2.3685    0.1613    2.2555 H       1  UNL1        0.0275
     42 H          -2.6867   -2.5600    0.0352 H       1  UNL1        0.0235
     43 H          -3.9589   -1.4873   -0.5349 H       1  UNL1        0.0235
     44 H          -2.5324   -1.7408   -1.6227 H       1  UNL1        0.0235
     45 H          -0.5921   -0.8025    1.5394 H       1  UNL1        0.0309
     46 H          -0.6672   -2.7613    0.2869 H       1  UNL1        0.0268
     47 H          -0.4790   -1.9138   -1.2653 H       1  UNL1        0.0268
     48 H           1.4692   -2.3046    1.0793 H       1  UNL1        0.0271
     49 H           1.6433   -2.8439   -0.6233 H       1  UNL1        0.0271
     50 H           2.8160   -0.8820   -2.2365 H       1  UNL1        0.0235
     51 H           1.8533    0.6484   -1.9267 H       1  UNL1        0.0235
     52 H           1.0582   -0.9089   -2.1526 H       1  UNL1        0.0235
     53 H           4.2123    1.0165   -1.7910 H       1  UNL1        0.0306
     54 H           5.1059   -0.2947   -2.6092 H       1  UNL1        0.0306
     55 H           5.9559    0.6635   -1.4048 H       1  UNL1        0.0306
@<TRIPOS>BOND
     1     1     2    1
     2     2     3    1
     3     3     4    1
     4     4     5    1
     5     5     6    1
     6     6     7    1
     7     7     8    1
     8     8     9    1
     9     9    10    1
    10    10    11    2
    11    10    12    1
    12    12    13    1
    13    13    14    1
    14    14    15    1
    15    14    16    1
    16    16    17    1
    17    17    18    1
    18    18    19    1
    19    19    20    1
    20     1    21    1
    21    21    22    1
    22    21    23    2
    23    19     1    1
    24    19     4    1
    25    16     5    1
    26    14     8    1
    27     1    24    1
    28     2    25    1
    29     2    26    1
    30     3    27    1
    31     3    28    1
    32     4    29    1
    33     5    30    1
    34     6    31    1
    35     6    32    1
    36     7    33    1
    37     7    34    1
    38     8    35    1
    39     9    36    1
    40     9    37    1
    41    12    38    1
    42    12    39    1
    43    13    40    1
    44    13    41    1
    45    15    42    1
    46    15    43    1
    47    15    44    1
    48    16    45    1
    49    17    46    1
    50    17    47    1
    51    18    48    1
    52    18    49    1
    53    20    50    1
    54    20    51    1
    55    20    52    1
    56    22    53    1
    57    22    54    1
    58    22    55    1
