@<TRIPOS>MOLECULE
*****
 46 48 0 0 0
SMALL
GASTEIGER

@<TRIPOS>ATOM
      1 C          -1.5163    0.2891   -0.8337 C.3     1  UNL1        0.0172
      2 N          -1.5656    1.6501   -0.3914 N.3     1  UNL1       -0.3265
      3 C          -1.2006   -0.7184    0.2274 C.3     1  UNL1        0.0396
      4 C           0.0772   -0.5472    0.9081 C.2     1  UNL1        0.2177
      5 O           0.1005    0.1054    1.9992 O.2     1  UNL1       -0.2755
      6 N           1.3123   -1.0656    0.4302 N.am    1  UNL1       -0.2899
      7 C           1.4894   -1.8211   -0.8203 C.3     1  UNL1        0.0350
      8 C           2.3799   -1.0737   -1.7716 C.3     1  UNL1        0.0593
      9 N           3.4348   -0.3501   -1.0809 N.ar    1  UNL1       -0.2454
     10 N           4.4415    0.3249   -1.6076 N.ar    1  UNL1       -0.1453
     11 C           5.1902    0.8442   -0.6326 C.ar    1  UNL1        0.2548
     12 N           4.6214    0.4747    0.5433 N.ar    1  UNL1       -0.2061
     13 C           3.5263   -0.2710    0.2391 C.ar    1  UNL1        0.1484
     14 C           2.5547   -0.9205    1.1236 C.3     1  UNL1        0.0827
     15 C           2.4713   -0.3307    2.4987 C.3     1  UNL1       -0.0393
     16 C           6.4310    1.6806   -0.7707 C.3     1  UNL1        0.4540
     17 F           6.1477    3.0246   -0.7729 F       1  UNL1       -0.1631
     18 F           7.0692    1.3948   -1.9624 F       1  UNL1       -0.1631
     19 F           7.3190    1.4286    0.2535 F       1  UNL1       -0.1631
     20 C          -2.9012   -0.0678   -1.3828 C.3     1  UNL1       -0.0092
     21 C          -3.9475    0.0821   -0.3615 C.ar    1  UNL1       -0.0078
     22 C          -4.4152    1.3640   -0.0760 C.ar    1  UNL1        0.1295
     23 F          -3.9910    2.5130   -0.6917 F       1  UNL1       -0.2051
     24 C          -5.3818    1.6239    0.8683 C.ar    1  UNL1        0.0119
     25 C          -5.9479    0.5838    1.5970 C.ar    1  UNL1        0.1611
     26 F          -6.8998    0.7974    2.5343 F       1  UNL1       -0.2024
     27 C          -5.4976   -0.6905    1.3277 C.ar    1  UNL1        0.1588
     28 F          -6.0499   -1.7091    2.0387 F       1  UNL1       -0.2025
     29 C          -4.5273   -0.9536    0.3805 C.ar    1  UNL1       -0.0176
     30 H          -0.8211    0.1927   -1.7100 H       1  UNL1        0.0466
     31 H          -1.1034    2.2486   -1.1055 H       1  UNL1        0.1185
     32 H          -1.1756    1.8328    0.5444 H       1  UNL1        0.1185
     33 H          -2.0293   -0.6397    0.9890 H       1  UNL1        0.0374
     34 H          -1.3468   -1.7266   -0.2137 H       1  UNL1        0.0374
     35 H           1.9953   -2.7636   -0.5350 H       1  UNL1        0.0483
     36 H           0.5449   -2.0998   -1.2892 H       1  UNL1        0.0483
     37 H           1.8017   -0.3590   -2.3891 H       1  UNL1        0.0525
     38 H           2.8767   -1.7955   -2.4526 H       1  UNL1        0.0525
     39 H           2.9390   -1.9767    1.2692 H       1  UNL1        0.0579
     40 H           3.5107   -0.4400    2.9310 H       1  UNL1        0.0252
     41 H           2.2765    0.7501    2.5371 H       1  UNL1        0.0252
     42 H           1.8382   -0.9672    3.1153 H       1  UNL1        0.0252
     43 H          -2.9153   -1.1192   -1.7283 H       1  UNL1        0.0329
     44 H          -3.1782    0.5571   -2.2490 H       1  UNL1        0.0329
     45 H          -5.7693    2.5970    1.1184 H       1  UNL1        0.0676
     46 H          -4.1688   -1.9527    0.1622 H       1  UNL1        0.0651
@<TRIPOS>BOND
     1     1     2    1
     2     1     3    1
     3     3     4    1
     4     4     5    2
     5     4     6   am
     6     6     7    1
     7     7     8    1
     8     8     9    1
     9     9    10   ar
    10    10    11   ar
    11    11    12   ar
    12    12    13   ar
    13    13    14    1
    14    14    15    1
    15    11    16    1
    16    16    17    1
    17    16    18    1
    18    16    19    1
    19     1    20    1
    20    20    21    1
    21    21    22   ar
    22    22    23    1
    23    22    24   ar
    24    24    25   ar
    25    25    26    1
    26    25    27   ar
    27    27    28    1
    28    27    29   ar
    29    14     6    1
    30    29    21   ar
    31    13     9   ar
    32     1    30    1
    33     2    31    1
    34     2    32    1
    35     3    33    1
    36     3    34    1
    37     7    35    1
    38     7    36    1
    39     8    37    1
    40     8    38    1
    41    14    39    1
    42    15    40    1
    43    15    41    1
    44    15    42    1
    45    20    43    1
    46    20    44    1
    47    24    45    1
    48    29    46    1
