
     RDKit          3D

 46 48  0  0  0  0  0  0  0  0999 V2000
   -1.5163    0.2891   -0.8337 C   0  0  1  0  0  0  0  0  0  0  0  0
   -1.5656    1.6501   -0.3914 N   0  0  0  0  0  0  0  0  0  0  0  0
   -1.2006   -0.7184    0.2274 C   0  0  0  0  0  0  0  0  0  0  0  0
    0.0772   -0.5472    0.9081 C   0  0  0  0  0  0  0  0  0  0  0  0
    0.1005    0.1054    1.9992 O   0  0  0  0  0  0  0  0  0  0  0  0
    1.3123   -1.0656    0.4302 N   0  0  0  0  0  0  0  0  0  0  0  0
    1.4894   -1.8211   -0.8203 C   0  0  0  0  0  0  0  0  0  0  0  0
    2.3799   -1.0737   -1.7716 C   0  0  0  0  0  0  0  0  0  0  0  0
    3.4348   -0.3501   -1.0809 N   0  0  0  0  0  0  0  0  0  0  0  0
    4.4415    0.3249   -1.6076 N   0  0  0  0  0  0  0  0  0  0  0  0
    5.1902    0.8442   -0.6326 C   0  0  0  0  0  0  0  0  0  0  0  0
    4.6214    0.4747    0.5433 N   0  0  0  0  0  0  0  0  0  0  0  0
    3.5263   -0.2710    0.2391 C   0  0  0  0  0  0  0  0  0  0  0  0
    2.5547   -0.9205    1.1236 C   0  0  1  0  0  0  0  0  0  0  0  0
    2.4713   -0.3307    2.4987 C   0  0  0  0  0  0  0  0  0  0  0  0
    6.4310    1.6806   -0.7707 C   0  0  0  0  0  0  0  0  0  0  0  0
    6.1477    3.0246   -0.7729 F   0  0  0  0  0  0  0  0  0  0  0  0
    7.0692    1.3948   -1.9624 F   0  0  0  0  0  0  0  0  0  0  0  0
    7.3190    1.4286    0.2535 F   0  0  0  0  0  0  0  0  0  0  0  0
   -2.9012   -0.0678   -1.3828 C   0  0  0  0  0  0  0  0  0  0  0  0
   -3.9475    0.0821   -0.3615 C   0  0  0  0  0  0  0  0  0  0  0  0
   -4.4152    1.3640   -0.0760 C   0  0  0  0  0  0  0  0  0  0  0  0
   -3.9910    2.5130   -0.6917 F   0  0  0  0  0  0  0  0  0  0  0  0
   -5.3818    1.6239    0.8683 C   0  0  0  0  0  0  0  0  0  0  0  0
   -5.9479    0.5838    1.5970 C   0  0  0  0  0  0  0  0  0  0  0  0
   -6.8998    0.7974    2.5343 F   0  0  0  0  0  0  0  0  0  0  0  0
   -5.4976   -0.6905    1.3277 C   0  0  0  0  0  0  0  0  0  0  0  0
   -6.0499   -1.7091    2.0387 F   0  0  0  0  0  0  0  0  0  0  0  0
   -4.5273   -0.9536    0.3805 C   0  0  0  0  0  0  0  0  0  0  0  0
   -0.8211    0.1927   -1.7100 H   0  0  0  0  0  0  0  0  0  0  0  0
   -1.1034    2.2486   -1.1055 H   0  0  0  0  0  0  0  0  0  0  0  0
   -1.1756    1.8328    0.5444 H   0  0  0  0  0  0  0  0  0  0  0  0
   -2.0293   -0.6397    0.9890 H   0  0  0  0  0  0  0  0  0  0  0  0
   -1.3468   -1.7266   -0.2137 H   0  0  0  0  0  0  0  0  0  0  0  0
    1.9953   -2.7636   -0.5350 H   0  0  0  0  0  0  0  0  0  0  0  0
    0.5449   -2.0998   -1.2892 H   0  0  0  0  0  0  0  0  0  0  0  0
    1.8017   -0.3590   -2.3891 H   0  0  0  0  0  0  0  0  0  0  0  0
    2.8767   -1.7955   -2.4526 H   0  0  0  0  0  0  0  0  0  0  0  0
    2.9390   -1.9767    1.2692 H   0  0  0  0  0  0  0  0  0  0  0  0
    3.5107   -0.4400    2.9310 H   0  0  0  0  0  0  0  0  0  0  0  0
    2.2765    0.7501    2.5371 H   0  0  0  0  0  0  0  0  0  0  0  0
    1.8382   -0.9672    3.1153 H   0  0  0  0  0  0  0  0  0  0  0  0
   -2.9153   -1.1192   -1.7283 H   0  0  0  0  0  0  0  0  0  0  0  0
   -3.1782    0.5571   -2.2490 H   0  0  0  0  0  0  0  0  0  0  0  0
   -5.7693    2.5970    1.1184 H   0  0  0  0  0  0  0  0  0  0  0  0
   -4.1688   -1.9527    0.1622 H   0  0  0  0  0  0  0  0  0  0  0  0
  1  2  1  0
  1  3  1  0
  3  4  1  0
  4  5  2  0
  4  6  1  0
  6  7  1  0
  7  8  1  0
  8  9  1  0
  9 10  1  0
 10 11  2  0
 11 12  1  0
 12 13  2  0
 13 14  1  0
 14 15  1  0
 11 16  1  0
 16 17  1  0
 16 18  1  0
 16 19  1  0
  1 20  1  0
 20 21  1  0
 21 22  2  0
 22 23  1  0
 22 24  1  0
 24 25  2  0
 25 26  1  0
 25 27  1  0
 27 28  1  0
 27 29  2  0
 14  6  1  0
 29 21  1  0
 13  9  1  0
  1 30  1  6
  2 31  1  0
  2 32  1  0
  3 33  1  0
  3 34  1  0
  7 35  1  0
  7 36  1  0
  8 37  1  0
  8 38  1  0
 14 39  1  1
 15 40  1  0
 15 41  1  0
 15 42  1  0
 20 43  1  0
 20 44  1  0
 24 45  1  0
 29 46  1  0
M  END
$$$$
