
     RDKit          3D

 65 70  0  0  0  0  0  0  0  0999 V2000
   10.1510    2.7409    0.8892 F   0  0  0  0  0  0  0  0  0  0  0  0
    8.9711    2.0686    0.6998 C   0  0  0  0  0  0  0  0  0  0  0  0
    8.2058    2.2175   -0.4330 C   0  0  0  0  0  0  0  0  0  0  0  0
    7.0239    1.5079   -0.5649 C   0  0  0  0  0  0  0  0  0  0  0  0
    6.5925    0.6429    0.4303 C   0  0  0  0  0  0  0  0  0  0  0  0
    5.3730   -0.0600    0.2421 N   0  0  0  0  0  0  0  0  0  0  0  0
    4.1469    0.3262    0.6383 C   0  0  0  0  0  0  0  0  0  0  0  0
    3.2038   -0.5950    0.2848 C   0  0  0  0  0  0  0  0  0  0  0  0
    1.7065   -0.5790    0.5091 C   0  0  0  0  0  0  0  0  0  0  0  0
    0.9840   -0.1981   -0.7369 C   0  0  0  0  0  0  0  0  0  0  0  0
   -0.4982   -0.2201   -0.5094 C   0  0  0  0  0  0  0  0  0  0  0  0
   -0.8777    0.7245    0.5692 C   0  0  0  0  0  0  0  0  0  0  0  0
   -2.3020    0.8007    0.8174 N   0  0  0  0  0  0  0  0  0  0  0  0
   -3.0117    1.4217   -0.2807 C   0  0  0  0  0  0  0  0  0  0  0  0
   -4.4262    1.7932    0.1666 C   0  0  0  0  0  0  0  0  0  0  0  0
   -5.1315    0.5641    0.7025 C   0  0  0  0  0  0  0  0  0  0  0  0
   -4.2451   -0.6649    0.5688 C   0  0  0  0  0  0  0  0  0  0  0  0
   -2.9027   -0.4238    1.2456 C   0  0  0  0  0  0  0  0  0  0  0  0
   -5.4679    0.8065    2.0199 O   0  0  0  0  0  0  0  0  0  0  0  0
   -6.8268    1.0420    2.1160 C   0  0  0  0  0  0  0  0  0  0  0  0
   -7.4267    0.5590    0.8514 C   0  0  0  0  0  0  0  0  0  0  0  0
   -8.7184    0.3715    0.4331 C   0  0  0  0  0  0  0  0  0  0  0  0
   -9.0370   -0.1033   -0.8364 C   0  0  0  0  0  0  0  0  0  0  0  0
   -8.0066   -0.3965   -1.7065 C   0  0  0  0  0  0  0  0  0  0  0  0
   -6.7067   -0.2051   -1.2785 C   0  0  0  0  0  0  0  0  0  0  0  0
   -6.3922    0.2698   -0.0087 C   0  0  0  0  0  0  0  0  0  0  0  0
    3.8817   -1.6137   -0.3689 C   0  0  0  0  0  0  0  0  0  0  0  0
    3.4816   -2.7979   -0.9470 C   0  0  0  0  0  0  0  0  0  0  0  0
    4.3795   -3.6589   -1.5490 C   0  0  0  0  0  0  0  0  0  0  0  0
    5.7038   -3.2978   -1.5557 C   0  0  0  0  0  0  0  0  0  0  0  0
    6.1137   -2.0977   -0.9701 C   0  0  0  0  0  0  0  0  0  0  0  0
    5.2122   -1.2437   -0.3723 C   0  0  0  0  0  0  0  0  0  0  0  0
    7.3960    0.5299    1.5444 C   0  0  0  0  0  0  0  0  0  0  0  0
    8.5781    1.2100    1.7274 C   0  0  0  0  0  0  0  0  0  0  0  0
    8.5601    2.8953   -1.1918 H   0  0  0  0  0  0  0  0  0  0  0  0
    6.4407    1.6485   -1.4750 H   0  0  0  0  0  0  0  0  0  0  0  0
    3.9299    1.2477    1.1678 H   0  0  0  0  0  0  0  0  0  0  0  0
    1.5083    0.2257    1.2786 H   0  0  0  0  0  0  0  0  0  0  0  0
    1.4112   -1.5298    0.9394 H   0  0  0  0  0  0  0  0  0  0  0  0
    1.2863   -0.8063   -1.6199 H   0  0  0  0  0  0  0  0  0  0  0  0
    1.2199    0.8624   -1.0533 H   0  0  0  0  0  0  0  0  0  0  0  0
   -0.9932   -0.0146   -1.4824 H   0  0  0  0  0  0  0  0  0  0  0  0
   -0.7326   -1.2882   -0.2189 H   0  0  0  0  0  0  0  0  0  0  0  0
   -0.4815    1.7454    0.4373 H   0  0  0  0  0  0  0  0  0  0  0  0
   -0.4329    0.3383    1.5320 H   0  0  0  0  0  0  0  0  0  0  0  0
   -3.1131    0.7925   -1.1682 H   0  0  0  0  0  0  0  0  0  0  0  0
   -2.5146    2.3754   -0.4908 H   0  0  0  0  0  0  0  0  0  0  0  0
   -4.9455    2.2011   -0.7280 H   0  0  0  0  0  0  0  0  0  0  0  0
   -4.4019    2.6148    0.9174 H   0  0  0  0  0  0  0  0  0  0  0  0
   -4.7543   -1.5013    1.0572 H   0  0  0  0  0  0  0  0  0  0  0  0
   -4.0955   -0.8567   -0.4935 H   0  0  0  0  0  0  0  0  0  0  0  0
   -2.2645   -1.2953    1.0965 H   0  0  0  0  0  0  0  0  0  0  0  0
   -3.0849   -0.3366    2.3567 H   0  0  0  0  0  0  0  0  0  0  0  0
   -7.2078    0.4710    3.0051 H   0  0  0  0  0  0  0  0  0  0  0  0
   -7.0580    2.1085    2.3187 H   0  0  0  0  0  0  0  0  0  0  0  0
   -9.5545    0.5881    1.0814 H   0  0  0  0  0  0  0  0  0  0  0  0
  -10.0679   -0.2330   -1.1233 H   0  0  0  0  0  0  0  0  0  0  0  0
   -8.2468   -0.7644   -2.6964 H   0  0  0  0  0  0  0  0  0  0  0  0
   -5.8777   -0.4288   -1.9483 H   0  0  0  0  0  0  0  0  0  0  0  0
    2.4447   -3.0916   -0.9471 H   0  0  0  0  0  0  0  0  0  0  0  0
    4.0499   -4.6009   -2.0073 H   0  0  0  0  0  0  0  0  0  0  0  0
    6.4498   -3.9079   -1.9974 H   0  0  0  0  0  0  0  0  0  0  0  0
    7.1653   -1.8500   -0.9980 H   0  0  0  0  0  0  0  0  0  0  0  0
    7.0438   -0.1503    2.3153 H   0  0  0  0  0  0  0  0  0  0  0  0
    9.1892    1.0996    2.6176 H   0  0  0  0  0  0  0  0  0  0  0  0
  1  2  1  0
  2  3  2  0
  3  4  1  0
  4  5  2  0
  5  6  1  0
  6  7  1  0
  7  8  2  0
  8  9  1  0
  9 10  1  0
 10 11  1  0
 11 12  1  0
 12 13  1  0
 13 14  1  0
 14 15  1  0
 15 16  1  0
 16 17  1  0
 17 18  1  0
 16 19  1  0
 19 20  1  0
 20 21  1  0
 21 22  2  0
 22 23  1  0
 23 24  2  0
 24 25  1  0
 25 26  2  0
  8 27  1  0
 27 28  2  0
 28 29  1  0
 29 30  2  0
 30 31  1  0
 31 32  2  0
  5 33  1  0
 33 34  2  0
 34  2  1  0
 32  6  1  0
 18 13  1  0
 26 21  1  0
 32 27  1  0
 26 16  1  0
  3 35  1  0
  4 36  1  0
  7 37  1  0
  9 38  1  0
  9 39  1  0
 10 40  1  0
 10 41  1  0
 11 42  1  0
 11 43  1  0
 12 44  1  0
 12 45  1  0
 14 46  1  0
 14 47  1  0
 15 48  1  0
 15 49  1  0
 17 50  1  0
 17 51  1  0
 18 52  1  0
 18 53  1  0
 20 54  1  0
 20 55  1  0
 22 56  1  0
 23 57  1  0
 24 58  1  0
 25 59  1  0
 28 60  1  0
 29 61  1  0
 30 62  1  0
 31 63  1  0
 33 64  1  0
 34 65  1  0
M  END
$$$$
