@<TRIPOS>MOLECULE
*****
 65 70 0 0 0
SMALL
GASTEIGER

@<TRIPOS>ATOM
      1 F          10.1510    2.7409    0.8892 F       1  UNL1       -0.2055
      2 C           8.9711    2.0686    0.6998 C.ar    1  UNL1        0.1235
      3 C           8.2058    2.2175   -0.4330 C.ar    1  UNL1       -0.0245
      4 C           7.0239    1.5079   -0.5649 C.ar    1  UNL1       -0.0351
      5 C           6.5925    0.6429    0.4303 C.ar    1  UNL1        0.0468
      6 N           5.3730   -0.0600    0.2421 N.ar    1  UNL1       -0.3156
      7 C           4.1469    0.3262    0.6383 C.ar    1  UNL1        0.0141
      8 C           3.2038   -0.5950    0.2848 C.ar    1  UNL1       -0.0218
      9 C           1.7065   -0.5790    0.5091 C.3     1  UNL1       -0.0256
     10 C           0.9840   -0.1981   -0.7369 C.3     1  UNL1       -0.0478
     11 C          -0.4982   -0.2201   -0.5094 C.3     1  UNL1       -0.0399
     12 C          -0.8777    0.7245    0.5692 C.3     1  UNL1       -0.0011
     13 N          -2.3020    0.8007    0.8174 N.3     1  UNL1       -0.3021
     14 C          -3.0117    1.4217   -0.2807 C.3     1  UNL1        0.0018
     15 C          -4.4262    1.7932    0.1666 C.3     1  UNL1       -0.0067
     16 C          -5.1315    0.5641    0.7025 C.3     1  UNL1        0.0974
     17 C          -4.2451   -0.6649    0.5688 C.3     1  UNL1       -0.0067
     18 C          -2.9027   -0.4238    1.2456 C.3     1  UNL1        0.0018
     19 O          -5.4679    0.8065    2.0199 O.3     1  UNL1       -0.3641
     20 C          -6.8268    1.0420    2.1160 C.3     1  UNL1        0.0742
     21 C          -7.4267    0.5590    0.8514 C.ar    1  UNL1       -0.0160
     22 C          -8.7184    0.3715    0.4331 C.ar    1  UNL1       -0.0560
     23 C          -9.0370   -0.1033   -0.8364 C.ar    1  UNL1       -0.0614
     24 C          -8.0066   -0.3965   -1.7065 C.ar    1  UNL1       -0.0614
     25 C          -6.7067   -0.2051   -1.2785 C.ar    1  UNL1       -0.0555
     26 C          -6.3922    0.2698   -0.0087 C.ar    1  UNL1       -0.0104
     27 C           3.8817   -1.6137   -0.3689 C.ar    1  UNL1        0.0034
     28 C           3.4816   -2.7979   -0.9470 C.ar    1  UNL1       -0.0523
     29 C           4.3795   -3.6589   -1.5490 C.ar    1  UNL1       -0.0611
     30 C           5.7038   -3.2978   -1.5557 C.ar    1  UNL1       -0.0598
     31 C           6.1137   -2.0977   -0.9701 C.ar    1  UNL1       -0.0373
     32 C           5.2122   -1.2437   -0.3723 C.ar    1  UNL1        0.0540
     33 C           7.3960    0.5299    1.5444 C.ar    1  UNL1       -0.0351
     34 C           8.5781    1.2100    1.7274 C.ar    1  UNL1       -0.0245
     35 H           8.5601    2.8953   -1.1918 H       1  UNL1        0.0647
     36 H           6.4407    1.6485   -1.4750 H       1  UNL1        0.0639
     37 H           3.9299    1.2477    1.1678 H       1  UNL1        0.0816
     38 H           1.5083    0.2257    1.2786 H       1  UNL1        0.0314
     39 H           1.4112   -1.5298    0.9394 H       1  UNL1        0.0314
     40 H           1.2863   -0.8063   -1.6199 H       1  UNL1        0.0269
     41 H           1.2199    0.8624   -1.0533 H       1  UNL1        0.0269
     42 H          -0.9932   -0.0146   -1.4824 H       1  UNL1        0.0278
     43 H          -0.7326   -1.2882   -0.2189 H       1  UNL1        0.0278
     44 H          -0.4815    1.7454    0.4373 H       1  UNL1        0.0426
     45 H          -0.4329    0.3383    1.5320 H       1  UNL1        0.0426
     46 H          -3.1131    0.7925   -1.1682 H       1  UNL1        0.0427
     47 H          -2.5146    2.3754   -0.4908 H       1  UNL1        0.0427
     48 H          -4.9455    2.2011   -0.7280 H       1  UNL1        0.0309
     49 H          -4.4019    2.6148    0.9174 H       1  UNL1        0.0309
     50 H          -4.7543   -1.5013    1.0572 H       1  UNL1        0.0309
     51 H          -4.0955   -0.8567   -0.4935 H       1  UNL1        0.0309
     52 H          -2.2645   -1.2953    1.0965 H       1  UNL1        0.0427
     53 H          -3.0849   -0.3366    2.3567 H       1  UNL1        0.0427
     54 H          -7.2078    0.4710    3.0051 H       1  UNL1        0.0610
     55 H          -7.0580    2.1085    2.3187 H       1  UNL1        0.0610
     56 H          -9.5545    0.5881    1.0814 H       1  UNL1        0.0621
     57 H         -10.0679   -0.2330   -1.1233 H       1  UNL1        0.0618
     58 H          -8.2468   -0.7644   -2.6964 H       1  UNL1        0.0618
     59 H          -5.8777   -0.4288   -1.9483 H       1  UNL1        0.0621
     60 H           2.4447   -3.0916   -0.9471 H       1  UNL1        0.0624
     61 H           4.0499   -4.6009   -2.0073 H       1  UNL1        0.0618
     62 H           6.4498   -3.9079   -1.9974 H       1  UNL1        0.0618
     63 H           7.1653   -1.8500   -0.9980 H       1  UNL1        0.0638
     64 H           7.0438   -0.1503    2.3153 H       1  UNL1        0.0639
     65 H           9.1892    1.0996    2.6176 H       1  UNL1        0.0647
@<TRIPOS>BOND
     1     1     2    1
     2     2     3   ar
     3     3     4   ar
     4     4     5   ar
     5     5     6    1
     6     6     7   ar
     7     7     8   ar
     8     8     9    1
     9     9    10    1
    10    10    11    1
    11    11    12    1
    12    12    13    1
    13    13    14    1
    14    14    15    1
    15    15    16    1
    16    16    17    1
    17    17    18    1
    18    16    19    1
    19    19    20    1
    20    20    21    1
    21    21    22   ar
    22    22    23   ar
    23    23    24   ar
    24    24    25   ar
    25    25    26   ar
    26     8    27   ar
    27    27    28   ar
    28    28    29   ar
    29    29    30   ar
    30    30    31   ar
    31    31    32   ar
    32     5    33   ar
    33    33    34   ar
    34    34     2   ar
    35    32     6   ar
    36    18    13    1
    37    26    21   ar
    38    32    27   ar
    39    26    16    1
    40     3    35    1
    41     4    36    1
    42     7    37    1
    43     9    38    1
    44     9    39    1
    45    10    40    1
    46    10    41    1
    47    11    42    1
    48    11    43    1
    49    12    44    1
    50    12    45    1
    51    14    46    1
    52    14    47    1
    53    15    48    1
    54    15    49    1
    55    17    50    1
    56    17    51    1
    57    18    52    1
    58    18    53    1
    59    20    54    1
    60    20    55    1
    61    22    56    1
    62    23    57    1
    63    24    58    1
    64    25    59    1
    65    28    60    1
    66    29    61    1
    67    30    62    1
    68    31    63    1
    69    33    64    1
    70    34    65    1
