@<TRIPOS>MOLECULE
*****
 37 39 0 0 0
SMALL
GASTEIGER

@<TRIPOS>ATOM
      1 CL          5.4764   -2.8305   -0.7593 Cl      1  UNL1       -0.0820
      2 C           4.5906   -1.3221   -0.8874 C.ar    1  UNL1        0.0603
      3 C           5.2688   -0.1244   -1.0640 C.ar    1  UNL1       -0.0419
      4 C           4.6145    1.0799   -1.1692 C.ar    1  UNL1       -0.0592
      5 C           3.2406    1.0867   -1.0955 C.ar    1  UNL1       -0.0465
      6 C           2.5213   -0.0812   -0.9201 C.ar    1  UNL1        0.0325
      7 S           0.7447    0.0041   -0.8338 S.3     1  UNL1       -0.0861
      8 C           0.2075    0.2278    0.8548 C.ar    1  UNL1        0.0338
      9 C           1.1598    0.3043    1.8356 C.ar    1  UNL1       -0.0462
     10 C           0.8479    0.4765    3.1709 C.ar    1  UNL1       -0.0606
     11 C          -0.4767    0.5732    3.5132 C.ar    1  UNL1       -0.0599
     12 C          -1.4352    0.4958    2.5233 C.ar    1  UNL1       -0.0396
     13 C          -1.1221    0.3245    1.1952 C.ar    1  UNL1        0.0437
     14 N          -2.1218    0.2507    0.2208 N.pl3   1  UNL1       -0.3266
     15 C          -2.2558    1.1607   -0.8977 C.3     1  UNL1        0.0248
     16 C          -3.5246    0.7699   -1.6319 C.3     1  UNL1        0.0117
     17 N          -3.4199   -0.5844   -2.0749 N.3     1  UNL1       -0.3130
     18 C          -3.0584   -1.5245   -1.0601 C.3     1  UNL1        0.0117
     19 C          -3.1336   -0.8142    0.2978 C.3     1  UNL1        0.0248
     20 C           3.2163   -1.2671   -0.8194 C.ar    1  UNL1        0.0729
     21 CL          2.3073   -2.7432   -0.5977 Cl      1  UNL1       -0.0809
     22 H           6.3437   -0.1363   -1.1209 H       1  UNL1        0.0633
     23 H           5.2054    1.9964   -1.3082 H       1  UNL1        0.0618
     24 H           2.7142    2.0298   -1.1771 H       1  UNL1        0.0629
     25 H           2.2310    0.2306    1.5964 H       1  UNL1        0.0629
     26 H           1.6241    0.5341    3.9305 H       1  UNL1        0.0618
     27 H          -0.7214    0.7084    4.5622 H       1  UNL1        0.0618
     28 H          -2.4741    0.5810    2.8702 H       1  UNL1        0.0636
     29 H          -1.4284    1.0795   -1.6241 H       1  UNL1        0.0476
     30 H          -2.2899    2.2260   -0.5707 H       1  UNL1        0.0476
     31 H          -3.5390    1.4142   -2.5600 H       1  UNL1        0.0439
     32 H          -4.4297    0.9883   -1.0326 H       1  UNL1        0.0439
     33 H          -4.1403   -0.8916   -2.7322 H       1  UNL1        0.1220
     34 H          -1.9826   -1.8550   -1.1423 H       1  UNL1        0.0439
     35 H          -3.7106   -2.4219   -1.0168 H       1  UNL1        0.0439
     36 H          -2.9072   -1.5290    1.0980 H       1  UNL1        0.0476
     37 H          -4.1425   -0.4171    0.4267 H       1  UNL1        0.0476
@<TRIPOS>BOND
     1     1     2    1
     2     2     3   ar
     3     3     4   ar
     4     4     5   ar
     5     5     6   ar
     6     6     7    1
     7     7     8    1
     8     8     9   ar
     9     9    10   ar
    10    10    11   ar
    11    11    12   ar
    12    12    13   ar
    13    13    14    1
    14    14    15    1
    15    15    16    1
    16    16    17    1
    17    17    18    1
    18    18    19    1
    19     6    20   ar
    20    20    21    1
    21    20     2   ar
    22    13     8   ar
    23    19    14    1
    24     3    22    1
    25     4    23    1
    26     5    24    1
    27     9    25    1
    28    10    26    1
    29    11    27    1
    30    12    28    1
    31    15    29    1
    32    15    30    1
    33    16    31    1
    34    16    32    1
    35    17    33    1
    36    18    34    1
    37    18    35    1
    38    19    36    1
    39    19    37    1
