@<TRIPOS>MOLECULE
*****
 54 55 0 0 0
SMALL
GASTEIGER

@<TRIPOS>ATOM
      1 C           7.1007    2.3312   -0.3999 C.3     1  UNL1        0.0705
      2 S           6.6822    1.2999    0.8864 S.O2    1  UNL1        0.0269
      3 O           8.0236    1.1485    1.7082 O.2     1  UNL1       -0.1585
      4 O           5.7131    1.7867    1.8779 O.2     1  UNL1       -0.1585
      5 N           6.3293   -0.4056    0.4700 N.3     1  UNL1       -0.1873
      6 C           5.5605   -0.0948   -0.7160 C.3     1  UNL1        0.0801
      7 C           4.1562   -0.2378   -0.6455 C.ar    1  UNL1        0.1871
      8 N           3.5372    1.1141   -1.1186 N.ar    1  UNL1       -0.0599
      9 O           2.2215    0.7996   -1.0906 O.2     1  UNL1       -0.3377
     10 C           2.0621   -0.4272   -0.6996 C.ar    1  UNL1        0.2310
     11 C           0.6842   -1.1003   -0.6272 C.3     1  UNL1        0.0464
     12 C          -0.1446   -0.1195    0.1668 C.3     1  UNL1       -0.0413
     13 C          -1.6208   -0.4950    0.1064 C.3     1  UNL1       -0.0521
     14 C          -2.3715    0.7452   -0.4321 C.3     1  UNL1       -0.0502
     15 C          -3.3750    1.1749    0.5898 C.3     1  UNL1       -0.0410
     16 C          -4.4386    0.1192    0.7538 C.3     1  UNL1       -0.0502
     17 C          -5.3347    0.0789   -0.4792 C.3     1  UNL1       -0.0528
     18 C          -5.6830    1.4670   -0.9610 C.3     1  UNL1       -0.0530
     19 C          -5.3776    2.5316    0.0718 C.3     1  UNL1       -0.0528
     20 C          -3.8940    2.5556    0.3988 C.3     1  UNL1       -0.0502
     21 C           0.9624   -2.4189    0.0896 C.3     1  UNL1        0.0372
     22 C           0.2299   -3.6297   -0.4725 C.2     1  UNL1        0.2362
     23 O           0.4525   -3.8779   -1.5861 O.2     1  UNL1       -0.2737
     24 N          -0.5155   -4.3369    0.3685 N.am    1  UNL1       -0.1975
     25 O          -1.3135   -5.3696   -0.0382 O.3     1  UNL1       -0.2952
     26 N           3.1741   -0.8773   -0.4372 N.ar    1  UNL1       -0.1945
     27 H           8.0444    2.2988   -0.7782 H       1  UNL1        0.0479
     28 H           6.2529    2.2497   -1.2225 H       1  UNL1        0.0479
     29 H           6.8439    3.4152   -0.0397 H       1  UNL1        0.0479
     30 H           5.6788   -0.7584    1.1595 H       1  UNL1        0.1481
     31 H           6.0595    0.2509   -1.5945 H       1  UNL1        0.0523
     32 H           5.7289   -1.3964   -1.1728 H       1  UNL1        0.0523
     33 H           0.2821   -1.2366   -1.6391 H       1  UNL1        0.0401
     34 H           0.2501   -0.2345    1.2340 H       1  UNL1        0.0273
     35 H           0.0521    0.8843   -0.1893 H       1  UNL1        0.0273
     36 H          -1.7890   -1.3738   -0.5341 H       1  UNL1        0.0266
     37 H          -1.9487   -0.7344    1.1234 H       1  UNL1        0.0266
     38 H          -1.6831    1.5531   -0.7146 H       1  UNL1        0.0268
     39 H          -2.9349    0.3962   -1.3625 H       1  UNL1        0.0268
     40 H          -2.8001    1.1462    1.5790 H       1  UNL1        0.0301
     41 H          -3.9736   -0.8470    0.9077 H       1  UNL1        0.0268
     42 H          -5.0498    0.3863    1.6325 H       1  UNL1        0.0268
     43 H          -6.2599   -0.4722   -0.1776 H       1  UNL1        0.0265
     44 H          -4.8173   -0.4855   -1.2732 H       1  UNL1        0.0265
     45 H          -6.7667    1.5299   -1.1895 H       1  UNL1        0.0265
     46 H          -5.1165    1.6945   -1.8761 H       1  UNL1        0.0265
     47 H          -5.6725    3.4985   -0.3626 H       1  UNL1        0.0265
     48 H          -5.9698    2.3828    0.9906 H       1  UNL1        0.0265
     49 H          -3.7871    3.1583    1.3353 H       1  UNL1        0.0268
     50 H          -3.3310    3.1020   -0.3787 H       1  UNL1        0.0268
     51 H           0.6389   -2.2289    1.1563 H       1  UNL1        0.0366
     52 H           2.0163   -2.6646    0.0535 H       1  UNL1        0.0366
     53 H          -0.5047   -4.2130    1.4439 H       1  UNL1        0.1822
     54 H          -2.2639   -5.0631    0.1867 H       1  UNL1        0.2414
@<TRIPOS>BOND
     1     1     2    1
     2     2     3    2
     3     2     4    2
     4     2     5    1
     5     5     6    1
     6     6     7    1
     7     7     8   ar
     8     8     9   ar
     9     9    10   ar
    10    10    11    1
    11    11    12    1
    12    12    13    1
    13    13    14    1
    14    14    15    1
    15    15    16    1
    16    16    17    1
    17    17    18    1
    18    18    19    1
    19    19    20    1
    20    11    21    1
    21    21    22    1
    22    22    23    2
    23    22    24   am
    24    24    25    1
    25    10    26   ar
    26    26     7   ar
    27    20    15    1
    28     1    27    1
    29     1    28    1
    30     1    29    1
    31     5    30    1
    32     6    31    1
    33     6    32    1
    34    11    33    1
    35    12    34    1
    36    12    35    1
    37    13    36    1
    38    13    37    1
    39    14    38    1
    40    14    39    1
    41    15    40    1
    42    16    41    1
    43    16    42    1
    44    17    43    1
    45    17    44    1
    46    18    45    1
    47    18    46    1
    48    19    47    1
    49    19    48    1
    50    20    49    1
    51    20    50    1
    52    21    51    1
    53    21    52    1
    54    24    53    1
    55    25    54    1
