
     RDKit          3D

 47 49  0  0  0  0  0  0  0  0999 V2000
   -3.3855   -0.7318    1.9298 C   0  0  0  0  0  0  0  0  0  0  0  0
   -2.9823   -0.2464    0.5286 C   0  0  1  0  0  0  0  0  0  0  0  0
   -1.8001    0.6204    0.7373 C   0  0  0  0  0  0  0  0  0  0  0  0
   -0.5715    0.4697    0.1668 C   0  0  0  0  0  0  0  0  0  0  0  0
    0.4724    1.3363    0.4326 C   0  0  0  0  0  0  0  0  0  0  0  0
    1.7552    1.1954   -0.1509 N   0  0  0  0  0  0  0  0  0  0  0  0
    2.7663    0.4247    0.4694 C   0  0  0  0  0  0  0  0  0  0  0  0
    2.4758   -0.1274    1.5579 O   0  0  0  0  0  0  0  0  0  0  0  0
    4.1068    0.2731   -0.1333 C   0  0  0  0  0  0  0  0  0  0  0  0
    4.4094    0.8683   -1.2998 N   0  0  0  0  0  0  0  0  0  0  0  0
    5.6403    0.7172   -1.8337 C   0  0  0  0  0  0  0  0  0  0  0  0
    6.6203   -0.0347   -1.2248 C   0  0  0  0  0  0  0  0  0  0  0  0
    7.9752   -0.1868   -1.8357 C   0  0  0  0  0  0  0  0  0  0  0  0
    8.2501   -1.5193   -2.0322 F   0  0  0  0  0  0  0  0  0  0  0  0
    8.9067    0.3912   -0.9728 F   0  0  0  0  0  0  0  0  0  0  0  0
    6.3338   -0.6542   -0.0286 C   0  0  0  0  0  0  0  0  0  0  0  0
    5.0683   -0.4854    0.4983 C   0  0  0  0  0  0  0  0  0  0  0  0
    4.6835   -1.2676    2.0231 Cl  0  0  0  0  0  0  0  0  0  0  0  0
    0.2364    2.3743    1.3039 C   0  0  0  0  0  0  0  0  0  0  0  0
   -0.9817    2.5789    1.9113 C   0  0  0  0  0  0  0  0  0  0  0  0
   -1.1458    3.6153    2.7546 F   0  0  0  0  0  0  0  0  0  0  0  0
   -1.9879    1.6869    1.6122 C   0  0  0  0  0  0  0  0  0  0  0  0
   -3.1894    1.8889    2.2115 F   0  0  0  0  0  0  0  0  0  0  0  0
   -2.7528   -1.4581   -0.3008 C   0  0  0  0  0  0  0  0  0  0  0  0
   -3.9322   -1.8572   -1.1709 C   0  0  1  0  0  0  0  0  0  0  0  0
   -5.0498   -2.5112   -0.4316 C   0  0  0  0  0  0  0  0  0  0  0  0
   -6.0322   -2.8124   -1.3934 F   0  0  0  0  0  0  0  0  0  0  0  0
   -5.6928   -1.6657    0.4571 F   0  0  0  0  0  0  0  0  0  0  0  0
   -4.6567   -3.6927    0.1168 F   0  0  0  0  0  0  0  0  0  0  0  0
   -4.3850   -0.6985   -1.8638 O   0  0  0  0  0  0  0  0  0  0  0  0
   -4.6565    0.4094   -1.0776 C   0  0  0  0  0  0  0  0  0  0  0  0
   -5.6882    1.3228   -1.5355 N   0  0  0  0  0  0  0  0  0  0  0  0
   -4.0228    0.6037   -0.0066 N   0  0  0  0  0  0  0  0  0  0  0  0
   -2.5876   -0.4501    2.6343 H   0  0  0  0  0  0  0  0  0  0  0  0
   -3.4924   -1.8392    1.9670 H   0  0  0  0  0  0  0  0  0  0  0  0
   -4.3058   -0.2439    2.2632 H   0  0  0  0  0  0  0  0  0  0  0  0
   -0.3510   -0.3241   -0.5107 H   0  0  0  0  0  0  0  0  0  0  0  0
    1.9508    1.6698   -1.0520 H   0  0  0  0  0  0  0  0  0  0  0  0
    5.8927    1.1987   -2.7823 H   0  0  0  0  0  0  0  0  0  0  0  0
    8.0246    0.3715   -2.7807 H   0  0  0  0  0  0  0  0  0  0  0  0
    7.0686   -1.2529    0.4851 H   0  0  0  0  0  0  0  0  0  0  0  0
    1.0501    3.0788    1.5329 H   0  0  0  0  0  0  0  0  0  0  0  0
   -1.8936   -1.3569   -0.9888 H   0  0  0  0  0  0  0  0  0  0  0  0
   -2.5440   -2.3693    0.3280 H   0  0  0  0  0  0  0  0  0  0  0  0
   -3.5701   -2.5669   -1.9397 H   0  0  0  0  0  0  0  0  0  0  0  0
   -6.5020    1.5380   -0.9401 H   0  0  0  0  0  0  0  0  0  0  0  0
   -5.5275    1.7195   -2.4844 H   0  0  0  0  0  0  0  0  0  0  0  0
  2  1  1  1
  2  3  1  0
  3  4  2  0
  4  5  1  0
  5  6  1  0
  6  7  1  0
  7  8  2  0
  7  9  1  0
  9 10  2  0
 10 11  1  0
 11 12  2  0
 12 13  1  0
 13 14  1  0
 13 15  1  0
 12 16  1  0
 16 17  2  0
 17 18  1  0
  5 19  2  0
 19 20  1  0
 20 21  1  0
 20 22  2  0
 22 23  1  0
  2 24  1  0
 24 25  1  0
 25 26  1  0
 26 27  1  0
 26 28  1  0
 26 29  1  0
 25 30  1  0
 30 31  1  0
 31 32  1  0
 31 33  2  0
 33  2  1  0
 22  3  1  0
 17  9  1  0
  1 34  1  0
  1 35  1  0
  1 36  1  0
  4 37  1  0
  6 38  1  0
 11 39  1  0
 13 40  1  0
 16 41  1  0
 19 42  1  0
 24 43  1  0
 24 44  1  0
 25 45  1  6
 32 46  1  0
 32 47  1  0
M  END
$$$$
