@<TRIPOS>MOLECULE
*****
 47 49 0 0 0
SMALL
GASTEIGER

@<TRIPOS>ATOM
      1 C          -3.3855   -0.7318    1.9298 C.3     1  UNL1       -0.0352
      2 C          -2.9823   -0.2464    0.5286 C.3     1  UNL1        0.0952
      3 C          -1.8001    0.6204    0.7373 C.ar    1  UNL1        0.0197
      4 C          -0.5715    0.4697    0.1668 C.ar    1  UNL1       -0.0321
      5 C           0.4724    1.3363    0.4326 C.ar    1  UNL1        0.0369
      6 N           1.7552    1.1954   -0.1509 N.am    1  UNL1       -0.2801
      7 C           2.7663    0.4247    0.4694 C.2     1  UNL1        0.2680
      8 O           2.4758   -0.1274    1.5579 O.2     1  UNL1       -0.2681
      9 C           4.1068    0.2731   -0.1333 C.ar    1  UNL1        0.1439
     10 N           4.4094    0.8683   -1.2998 N.ar    1  UNL1       -0.2484
     11 C           5.6403    0.7172   -1.8337 C.ar    1  UNL1        0.0370
     12 C           6.6203   -0.0347   -1.2248 C.ar    1  UNL1        0.0369
     13 C           7.9752   -0.1868   -1.8357 C.3     1  UNL1        0.2658
     14 F           8.2501   -1.5193   -2.0322 F       1  UNL1       -0.2039
     15 F           8.9067    0.3912   -0.9728 F       1  UNL1       -0.2039
     16 C           6.3338   -0.6542   -0.0286 C.ar    1  UNL1       -0.0312
     17 C           5.0683   -0.4854    0.4983 C.ar    1  UNL1        0.0718
     18 CL          4.6835   -1.2676    2.0231 Cl      1  UNL1       -0.0812
     19 C           0.2364    2.3743    1.3039 C.ar    1  UNL1       -0.0023
     20 C          -0.9817    2.5789    1.9113 C.ar    1  UNL1        0.1605
     21 F          -1.1458    3.6153    2.7546 F       1  UNL1       -0.2024
     22 C          -1.9879    1.6869    1.6122 C.ar    1  UNL1        0.1640
     23 F          -3.1894    1.8889    2.2115 F       1  UNL1       -0.2021
     24 C          -2.7528   -1.4581   -0.3008 C.3     1  UNL1        0.0223
     25 C          -3.9322   -1.8572   -1.1709 C.3     1  UNL1        0.1997
     26 C          -5.0498   -2.5112   -0.4316 C.3     1  UNL1        0.4266
     27 F          -6.0322   -2.8124   -1.3934 F       1  UNL1       -0.1669
     28 F          -5.6928   -1.6657    0.4571 F       1  UNL1       -0.1669
     29 F          -4.6567   -3.6927    0.1168 F       1  UNL1       -0.1669
     30 O          -4.3850   -0.6985   -1.8638 O.2     1  UNL1       -0.4534
     31 C          -4.6565    0.4094   -1.0776 C.2     1  UNL1        0.2765
     32 N          -5.6882    1.3228   -1.5355 N.pl3   1  UNL1       -0.3134
     33 N          -4.0228    0.6037   -0.0066 N.2     1  UNL1       -0.2257
     34 H          -2.5876   -0.4501    2.6343 H       1  UNL1        0.0256
     35 H          -3.4924   -1.8392    1.9670 H       1  UNL1        0.0256
     36 H          -4.3058   -0.2439    2.2632 H       1  UNL1        0.0256
     37 H          -0.3510   -0.3241   -0.5107 H       1  UNL1        0.0640
     38 H           1.9508    1.6698   -1.0520 H       1  UNL1        0.1552
     39 H           5.8927    1.1987   -2.7823 H       1  UNL1        0.0834
     40 H           8.0246    0.3715   -2.7807 H       1  UNL1        0.1072
     41 H           7.0686   -1.2529    0.4851 H       1  UNL1        0.0638
     42 H           1.0501    3.0788    1.5329 H       1  UNL1        0.0666
     43 H          -1.8936   -1.3569   -0.9888 H       1  UNL1        0.0330
     44 H          -2.5440   -2.3693    0.3280 H       1  UNL1        0.0330
     45 H          -3.5701   -2.5669   -1.9397 H       1  UNL1        0.0826
     46 H          -6.5020    1.5380   -0.9401 H       1  UNL1        0.1466
     47 H          -5.5275    1.7195   -2.4844 H       1  UNL1        0.1466
@<TRIPOS>BOND
     1     2     1    1
     2     2     3    1
     3     3     4   ar
     4     4     5   ar
     5     5     6    1
     6     6     7   am
     7     7     8    2
     8     7     9    1
     9     9    10   ar
    10    10    11   ar
    11    11    12   ar
    12    12    13    1
    13    13    14    1
    14    13    15    1
    15    12    16   ar
    16    16    17   ar
    17    17    18    1
    18     5    19   ar
    19    19    20   ar
    20    20    21    1
    21    20    22   ar
    22    22    23    1
    23     2    24    1
    24    24    25    1
    25    25    26    1
    26    26    27    1
    27    26    28    1
    28    26    29    1
    29    25    30    1
    30    30    31    1
    31    31    32    1
    32    31    33    2
    33    33     2    1
    34    22     3   ar
    35    17     9   ar
    36     1    34    1
    37     1    35    1
    38     1    36    1
    39     4    37    1
    40     6    38    1
    41    11    39    1
    42    13    40    1
    43    16    41    1
    44    19    42    1
    45    24    43    1
    46    24    44    1
    47    25    45    1
    48    32    46    1
    49    32    47    1
