
     RDKit          3D

 44 47  0  0  0  0  0  0  0  0999 V2000
   -5.1542   -0.4407   -1.1656 C   0  0  0  0  0  0  0  0  0  0  0  0
   -3.9122   -0.5438   -0.5113 O   0  0  0  0  0  0  0  0  0  0  0  0
   -3.2524    0.6533   -0.1973 C   0  0  0  0  0  0  0  0  0  0  0  0
   -3.7878    1.8797   -0.5106 C   0  0  0  0  0  0  0  0  0  0  0  0
   -3.1542    3.0659   -0.2099 C   0  0  0  0  0  0  0  0  0  0  0  0
   -3.7771    4.3621   -0.5714 C   0  0  0  0  0  0  0  0  0  0  0  0
   -2.9115    5.4139   -0.3442 F   0  0  0  0  0  0  0  0  0  0  0  0
   -4.0644    4.3684   -1.9209 F   0  0  0  0  0  0  0  0  0  0  0  0
   -4.9627    4.5723    0.1000 F   0  0  0  0  0  0  0  0  0  0  0  0
   -1.9393    2.9463    0.4302 C   0  0  0  0  0  0  0  0  0  0  0  0
   -1.3825    1.7335    0.7546 C   0  0  0  0  0  0  0  0  0  0  0  0
   -2.0138    0.5560    0.4547 C   0  0  0  0  0  0  0  0  0  0  0  0
   -1.5106   -0.7453    0.7723 C   0  0  0  0  0  0  0  0  0  0  0  0
   -2.2216   -1.5947    1.5309 N   0  0  0  0  0  0  0  0  0  0  0  0
   -1.7708   -2.8253    1.8368 C   0  0  0  0  0  0  0  0  0  0  0  0
   -0.5880   -3.2743    1.4035 N   0  0  0  0  0  0  0  0  0  0  0  0
    0.1678   -2.4705    0.6409 C   0  0  0  0  0  0  0  0  0  0  0  0
    1.4026   -2.8656    0.1495 C   0  0  0  0  0  0  0  0  0  0  0  0
    2.2054   -2.0725   -0.6401 C   0  0  0  0  0  0  0  0  0  0  0  0
    3.7383   -2.7029   -1.1994 S   0  0  0  0  0  6  0  0  0  0  0  0
    4.0759   -2.1186   -2.5410 O   0  0  0  0  0  0  0  0  0  0  0  0
    3.5928   -4.1992   -1.3716 O   0  0  0  0  0  0  0  0  0  0  0  0
    4.9413   -2.4103   -0.0308 N   0  0  0  0  0  0  0  0  0  0  0  0
    5.2611   -1.0470    0.3296 C   0  0  0  0  0  0  0  0  0  0  0  0
    4.8684    0.1091   -0.0044 N   0  0  0  0  0  0  0  0  0  0  0  0
    5.3206    1.2100    0.4750 C   0  0  0  0  0  0  0  0  0  0  0  0
    6.3042    1.2015    1.4245 C   0  0  0  0  0  0  0  0  0  0  0  0
    6.5310   -0.6617    1.5698 S   0  0  0  0  0  0  0  0  0  0  0  0
    1.7352   -0.8155   -0.9490 C   0  0  0  0  0  0  0  0  0  0  0  0
    0.5024   -0.3953   -0.4695 C   0  0  0  0  0  0  0  0  0  0  0  0
   -0.2988   -1.1813    0.3170 C   0  0  0  0  0  0  0  0  0  0  0  0
   -5.8535    0.1040   -0.4946 H   0  0  0  0  0  0  0  0  0  0  0  0
   -5.6036   -1.4469   -1.3209 H   0  0  0  0  0  0  0  0  0  0  0  0
   -4.9934    0.1167   -2.0986 H   0  0  0  0  0  0  0  0  0  0  0  0
   -4.7459    1.9382   -1.0142 H   0  0  0  0  0  0  0  0  0  0  0  0
   -1.4124    3.8777    0.6816 H   0  0  0  0  0  0  0  0  0  0  0  0
   -0.4096    1.7030    1.2724 H   0  0  0  0  0  0  0  0  0  0  0  0
   -2.4264   -3.4324    2.4589 H   0  0  0  0  0  0  0  0  0  0  0  0
    1.7646   -3.8542    0.3978 H   0  0  0  0  0  0  0  0  0  0  0  0
    5.4507   -3.2043    0.4275 H   0  0  0  0  0  0  0  0  0  0  0  0
    4.9328    2.2078    0.1390 H   0  0  0  0  0  0  0  0  0  0  0  0
    6.8537    1.8724    1.9828 H   0  0  0  0  0  0  0  0  0  0  0  0
    2.3364   -0.1802   -1.5606 H   0  0  0  0  0  0  0  0  0  0  0  0
    0.1616    0.5907   -0.7373 H   0  0  0  0  0  0  0  0  0  0  0  0
  1  2  1  0
  2  3  1  0
  3  4  2  0
  4  5  1  0
  5  6  1  0
  6  7  1  0
  6  8  1  0
  6  9  1  0
  5 10  2  0
 10 11  1  0
 11 12  2  0
 12 13  1  0
 13 14  2  0
 14 15  1  0
 15 16  2  0
 16 17  1  0
 17 18  2  0
 18 19  1  0
 19 20  1  0
 20 21  2  0
 20 22  2  0
 20 23  1  0
 23 24  1  0
 24 25  2  0
 25 26  1  0
 26 27  2  0
 27 28  1  0
 19 29  2  0
 29 30  1  0
 30 31  2  0
 12  3  1  0
 31 13  1  0
 31 17  1  0
 28 24  1  0
  1 32  1  0
  1 33  1  0
  1 34  1  0
  4 35  1  0
 10 36  1  0
 11 37  1  0
 15 38  1  0
 18 39  1  0
 23 40  1  0
 26 41  1  0
 27 42  1  0
 29 43  1  0
 30 44  1  0
M  END
$$$$
