@<TRIPOS>MOLECULE
*****
 44 47 0 0 0
SMALL
GASTEIGER

@<TRIPOS>ATOM
      1 C          -5.1542   -0.4407   -1.1656 C.3     1  UNL1        0.0788
      2 O          -3.9122   -0.5438   -0.5113 O.3     1  UNL1       -0.4944
      3 C          -3.2524    0.6533   -0.1973 C.ar    1  UNL1        0.1298
      4 C          -3.7878    1.8797   -0.5106 C.ar    1  UNL1       -0.0077
      5 C          -3.1542    3.0659   -0.2099 C.ar    1  UNL1        0.0583
      6 C          -3.7771    4.3621   -0.5714 C.3     1  UNL1        0.4175
      7 F          -2.9115    5.4139   -0.3442 F       1  UNL1       -0.1659
      8 F          -4.0644    4.3684   -1.9209 F       1  UNL1       -0.1659
      9 F          -4.9627    4.5723    0.1000 F       1  UNL1       -0.1659
     10 C          -1.9393    2.9463    0.4302 C.ar    1  UNL1       -0.0493
     11 C          -1.3825    1.7335    0.7546 C.ar    1  UNL1       -0.0485
     12 C          -2.0138    0.5560    0.4547 C.ar    1  UNL1        0.0427
     13 C          -1.5106   -0.7453    0.7723 C.ar    1  UNL1        0.0854
     14 N          -2.2216   -1.5947    1.5309 N.ar    1  UNL1       -0.2347
     15 C          -1.7708   -2.8253    1.8368 C.ar    1  UNL1        0.1173
     16 N          -0.5880   -3.2743    1.4035 N.ar    1  UNL1       -0.2353
     17 C           0.1678   -2.4705    0.6409 C.ar    1  UNL1        0.0766
     18 C           1.4026   -2.8656    0.1495 C.ar    1  UNL1       -0.0090
     19 C           2.2054   -2.0725   -0.6401 C.ar    1  UNL1        0.1106
     20 S           3.7383   -2.7029   -1.1994 S.O2    1  UNL1        0.0739
     21 O           4.0759   -2.1186   -2.5410 O.2     1  UNL1       -0.1499
     22 O           3.5928   -4.1992   -1.3716 O.2     1  UNL1       -0.1499
     23 N           4.9413   -2.4103   -0.0308 N.pl3   1  UNL1       -0.1938
     24 C           5.2611   -1.0470    0.3296 C.ar    1  UNL1        0.1774
     25 N           4.8684    0.1091   -0.0044 N.ar    1  UNL1       -0.2321
     26 C           5.3206    1.2100    0.4750 C.ar    1  UNL1        0.0369
     27 C           6.3042    1.2015    1.4245 C.ar    1  UNL1       -0.0030
     28 S           6.5310   -0.6617    1.5698 S.2     1  UNL1       -0.0594
     29 C           1.7352   -0.8155   -0.9490 C.ar    1  UNL1       -0.0343
     30 C           0.5024   -0.3953   -0.4695 C.ar    1  UNL1       -0.0486
     31 C          -0.2988   -1.1813    0.3170 C.ar    1  UNL1        0.0266
     32 H          -5.8535    0.1040   -0.4946 H       1  UNL1        0.0660
     33 H          -5.6036   -1.4469   -1.3209 H       1  UNL1        0.0660
     34 H          -4.9934    0.1167   -2.0986 H       1  UNL1        0.0660
     35 H          -4.7459    1.9382   -1.0142 H       1  UNL1        0.0660
     36 H          -1.4124    3.8777    0.6816 H       1  UNL1        0.0623
     37 H          -0.4096    1.7030    1.2724 H       1  UNL1        0.0625
     38 H          -2.4264   -3.4324    2.4589 H       1  UNL1        0.1047
     39 H           1.7646   -3.8542    0.3978 H       1  UNL1        0.0659
     40 H           5.4507   -3.2043    0.4275 H       1  UNL1        0.1757
     41 H           4.9328    2.2078    0.1390 H       1  UNL1        0.0835
     42 H           6.8537    1.8724    1.9828 H       1  UNL1        0.0710
     43 H           2.3364   -0.1802   -1.5606 H       1  UNL1        0.0637
     44 H           0.1616    0.5907   -0.7373 H       1  UNL1        0.0625
@<TRIPOS>BOND
     1     1     2    1
     2     2     3    1
     3     3     4   ar
     4     4     5   ar
     5     5     6    1
     6     6     7    1
     7     6     8    1
     8     6     9    1
     9     5    10   ar
    10    10    11   ar
    11    11    12   ar
    12    12    13    1
    13    13    14   ar
    14    14    15   ar
    15    15    16   ar
    16    16    17   ar
    17    17    18   ar
    18    18    19   ar
    19    19    20    1
    20    20    21    2
    21    20    22    2
    22    20    23    1
    23    23    24    1
    24    24    25   ar
    25    25    26   ar
    26    26    27   ar
    27    27    28   ar
    28    19    29   ar
    29    29    30   ar
    30    30    31   ar
    31    12     3   ar
    32    31    13   ar
    33    31    17   ar
    34    28    24   ar
    35     1    32    1
    36     1    33    1
    37     1    34    1
    38     4    35    1
    39    10    36    1
    40    11    37    1
    41    15    38    1
    42    18    39    1
    43    23    40    1
    44    26    41    1
    45    27    42    1
    46    29    43    1
    47    30    44    1
