@<TRIPOS>MOLECULE
*****
 52 56 0 0 0
SMALL
GASTEIGER

@<TRIPOS>ATOM
      1 C           4.0318   -4.8920   -1.7255 C.3     1  UNL1        0.0125
      2 C           3.7525   -3.6459   -0.9922 C.2     1  UNL1        0.2141
      3 O           3.8108   -3.6731    0.2644 O.2     1  UNL1       -0.2758
      4 N           3.4205   -2.4105   -1.6064 N.am    1  UNL1       -0.2839
      5 C           3.1540   -1.2175   -0.8815 C.ar    1  UNL1        0.0637
      6 C           4.0159   -0.2228   -0.4744 C.ar    1  UNL1        0.0266
      7 N           3.3571    0.7324    0.1868 N.ar    1  UNL1       -0.3492
      8 C           3.9136    1.9488    0.7753 C.3     1  UNL1        0.0117
      9 C           2.0350    0.3949    0.2355 C.ar    1  UNL1        0.0581
     10 C           1.9020   -0.7952   -0.4143 C.ar    1  UNL1        0.0813
     11 C           0.5109   -1.1937   -0.3731 C.2     1  UNL1        0.2564
     12 O           0.0684   -2.2546   -0.8919 O.2     1  UNL1       -0.2694
     13 N          -0.1934   -0.1885    0.3352 N.am    1  UNL1       -0.2374
     14 C          -1.6141   -0.2884    0.5812 C.ar    1  UNL1        0.1499
     15 C          -2.2251    0.7164    1.3000 C.ar    1  UNL1       -0.0131
     16 C          -3.5776    0.6393    1.5407 C.ar    1  UNL1       -0.0012
     17 C          -4.2857    1.7059    2.3161 C.3     1  UNL1       -0.0360
     18 C          -4.2707   -0.4424    1.0525 C.ar    1  UNL1        0.1811
     19 N          -5.5598   -0.8219    1.1024 N.ar    1  UNL1       -0.1275
     20 N          -5.6837   -1.9735    0.4530 N.ar    1  UNL1       -0.1263
     21 C          -4.4855   -2.3532   -0.0231 C.ar    1  UNL1        0.2205
     22 C          -4.2092   -3.5999   -0.8129 C.3     1  UNL1        0.2993
     23 F          -3.2981   -4.3583   -0.0807 F       1  UNL1       -0.2005
     24 F          -3.6351   -3.3242   -2.0239 F       1  UNL1       -0.2005
     25 N          -3.6193   -1.4040    0.3507 N.ar    1  UNL1       -0.1896
     26 N          -2.3223   -1.3318    0.1188 N.ar    1  UNL1       -0.1476
     27 C           0.7136    0.8280    0.7080 C.3     1  UNL1        0.0986
     28 C           0.3935    2.1627    0.1340 C.ar    1  UNL1       -0.0207
     29 C          -0.0140    2.3700   -1.1612 C.ar    1  UNL1       -0.0550
     30 C          -0.2880    3.6533   -1.6344 C.ar    1  UNL1       -0.0431
     31 C          -0.1556    4.7438   -0.8111 C.ar    1  UNL1        0.0410
     32 CL         -0.5147    6.3228   -1.4670 Cl      1  UNL1       -0.0835
     33 C           0.2521    4.5518    0.4902 C.ar    1  UNL1       -0.0431
     34 C           0.5197    3.2713    0.9430 C.ar    1  UNL1       -0.0550
     35 H           3.4599   -5.7522   -1.3273 H       1  UNL1        0.0323
     36 H           3.8370   -4.8211   -2.8045 H       1  UNL1        0.0323
     37 H           5.1144   -5.1427   -1.5631 H       1  UNL1        0.0323
     38 H           3.3754   -2.4022   -2.6526 H       1  UNL1        0.1549
     39 H           5.0900   -0.2259   -0.6714 H       1  UNL1        0.0828
     40 H           3.6954    2.8325    0.1515 H       1  UNL1        0.0456
     41 H           3.5944    2.0503    1.8254 H       1  UNL1        0.0456
     42 H           5.0209    1.8413    0.7905 H       1  UNL1        0.0456
     43 H          -1.6618    1.5641    1.6813 H       1  UNL1        0.0656
     44 H          -5.2788    1.2923    2.6286 H       1  UNL1        0.0279
     45 H          -4.4370    2.5862    1.6594 H       1  UNL1        0.0279
     46 H          -3.7403    1.9437    3.2504 H       1  UNL1        0.0279
     47 H          -5.1192   -4.1793   -0.9608 H       1  UNL1        0.1105
     48 H           0.6807    0.8955    1.8340 H       1  UNL1        0.0620
     49 H          -0.1099    1.4936   -1.7877 H       1  UNL1        0.0621
     50 H          -0.6063    3.7859   -2.6563 H       1  UNL1        0.0632
     51 H           0.3478    5.4259    1.1155 H       1  UNL1        0.0632
     52 H           0.8379    3.1620    1.9729 H       1  UNL1        0.0621
@<TRIPOS>BOND
     1     1     2    1
     2     2     3    2
     3     2     4   am
     4     4     5    1
     5     5     6   ar
     6     6     7   ar
     7     7     8    1
     8     7     9   ar
     9     9    10   ar
    10    10    11    1
    11    11    12    2
    12    11    13   am
    13    13    14    1
    14    14    15   ar
    15    15    16   ar
    16    16    17    1
    17    16    18   ar
    18    18    19   ar
    19    19    20   ar
    20    20    21   ar
    21    21    22    1
    22    22    23    1
    23    22    24    1
    24    21    25   ar
    25    25    26   ar
    26    13    27    1
    27    27    28    1
    28    28    29   ar
    29    29    30   ar
    30    30    31   ar
    31    31    32    1
    32    31    33   ar
    33    33    34   ar
    34    10     5   ar
    35    26    14   ar
    36    34    28   ar
    37    27     9    1
    38    25    18   ar
    39     1    35    1
    40     1    36    1
    41     1    37    1
    42     4    38    1
    43     6    39    1
    44     8    40    1
    45     8    41    1
    46     8    42    1
    47    15    43    1
    48    17    44    1
    49    17    45    1
    50    17    46    1
    51    22    47    1
    52    27    48    1
    53    29    49    1
    54    30    50    1
    55    33    51    1
    56    34    52    1
