
     RDKit          3D

 52 56  0  0  0  0  0  0  0  0999 V2000
    4.0318   -4.8920   -1.7255 C   0  0  0  0  0  0  0  0  0  0  0  0
    3.7525   -3.6459   -0.9922 C   0  0  0  0  0  0  0  0  0  0  0  0
    3.8108   -3.6731    0.2644 O   0  0  0  0  0  0  0  0  0  0  0  0
    3.4205   -2.4105   -1.6064 N   0  0  0  0  0  0  0  0  0  0  0  0
    3.1540   -1.2175   -0.8815 C   0  0  0  0  0  0  0  0  0  0  0  0
    4.0159   -0.2228   -0.4744 C   0  0  0  0  0  0  0  0  0  0  0  0
    3.3571    0.7324    0.1868 N   0  0  0  0  0  0  0  0  0  0  0  0
    3.9136    1.9488    0.7753 C   0  0  0  0  0  0  0  0  0  0  0  0
    2.0350    0.3949    0.2355 C   0  0  0  0  0  0  0  0  0  0  0  0
    1.9020   -0.7952   -0.4143 C   0  0  0  0  0  0  0  0  0  0  0  0
    0.5109   -1.1937   -0.3731 C   0  0  0  0  0  0  0  0  0  0  0  0
    0.0684   -2.2546   -0.8919 O   0  0  0  0  0  0  0  0  0  0  0  0
   -0.1934   -0.1885    0.3352 N   0  0  0  0  0  0  0  0  0  0  0  0
   -1.6141   -0.2884    0.5812 C   0  0  0  0  0  0  0  0  0  0  0  0
   -2.2251    0.7164    1.3000 C   0  0  0  0  0  0  0  0  0  0  0  0
   -3.5776    0.6393    1.5407 C   0  0  0  0  0  0  0  0  0  0  0  0
   -4.2857    1.7059    2.3161 C   0  0  0  0  0  0  0  0  0  0  0  0
   -4.2707   -0.4424    1.0525 C   0  0  0  0  0  0  0  0  0  0  0  0
   -5.5598   -0.8219    1.1024 N   0  0  0  0  0  0  0  0  0  0  0  0
   -5.6837   -1.9735    0.4530 N   0  0  0  0  0  0  0  0  0  0  0  0
   -4.4855   -2.3532   -0.0231 C   0  0  0  0  0  0  0  0  0  0  0  0
   -4.2092   -3.5999   -0.8129 C   0  0  0  0  0  0  0  0  0  0  0  0
   -3.2981   -4.3583   -0.0807 F   0  0  0  0  0  0  0  0  0  0  0  0
   -3.6351   -3.3242   -2.0239 F   0  0  0  0  0  0  0  0  0  0  0  0
   -3.6193   -1.4040    0.3507 N   0  0  0  0  0  0  0  0  0  0  0  0
   -2.3223   -1.3318    0.1188 N   0  0  0  0  0  0  0  0  0  0  0  0
    0.7136    0.8280    0.7080 C   0  0  0  0  0  0  0  0  0  0  0  0
    0.3935    2.1627    0.1340 C   0  0  0  0  0  0  0  0  0  0  0  0
   -0.0140    2.3700   -1.1612 C   0  0  0  0  0  0  0  0  0  0  0  0
   -0.2880    3.6533   -1.6344 C   0  0  0  0  0  0  0  0  0  0  0  0
   -0.1556    4.7438   -0.8111 C   0  0  0  0  0  0  0  0  0  0  0  0
   -0.5147    6.3228   -1.4670 Cl  0  0  0  0  0  0  0  0  0  0  0  0
    0.2521    4.5518    0.4902 C   0  0  0  0  0  0  0  0  0  0  0  0
    0.5197    3.2713    0.9430 C   0  0  0  0  0  0  0  0  0  0  0  0
    3.4599   -5.7522   -1.3273 H   0  0  0  0  0  0  0  0  0  0  0  0
    3.8370   -4.8211   -2.8045 H   0  0  0  0  0  0  0  0  0  0  0  0
    5.1144   -5.1427   -1.5631 H   0  0  0  0  0  0  0  0  0  0  0  0
    3.3754   -2.4022   -2.6526 H   0  0  0  0  0  0  0  0  0  0  0  0
    5.0900   -0.2259   -0.6714 H   0  0  0  0  0  0  0  0  0  0  0  0
    3.6954    2.8325    0.1515 H   0  0  0  0  0  0  0  0  0  0  0  0
    3.5944    2.0503    1.8254 H   0  0  0  0  0  0  0  0  0  0  0  0
    5.0209    1.8413    0.7905 H   0  0  0  0  0  0  0  0  0  0  0  0
   -1.6618    1.5641    1.6813 H   0  0  0  0  0  0  0  0  0  0  0  0
   -5.2788    1.2923    2.6286 H   0  0  0  0  0  0  0  0  0  0  0  0
   -4.4370    2.5862    1.6594 H   0  0  0  0  0  0  0  0  0  0  0  0
   -3.7403    1.9437    3.2504 H   0  0  0  0  0  0  0  0  0  0  0  0
   -5.1192   -4.1793   -0.9608 H   0  0  0  0  0  0  0  0  0  0  0  0
    0.6807    0.8955    1.8340 H   0  0  0  0  0  0  0  0  0  0  0  0
   -0.1099    1.4936   -1.7877 H   0  0  0  0  0  0  0  0  0  0  0  0
   -0.6063    3.7859   -2.6563 H   0  0  0  0  0  0  0  0  0  0  0  0
    0.3478    5.4259    1.1155 H   0  0  0  0  0  0  0  0  0  0  0  0
    0.8379    3.1620    1.9729 H   0  0  0  0  0  0  0  0  0  0  0  0
  1  2  1  0
  2  3  2  0
  2  4  1  0
  4  5  1  0
  5  6  2  0
  6  7  1  0
  7  8  1  0
  7  9  1  0
  9 10  2  0
 10 11  1  0
 11 12  2  0
 11 13  1  0
 13 14  1  0
 14 15  1  0
 15 16  2  0
 16 17  1  0
 16 18  1  0
 18 19  2  0
 19 20  1  0
 20 21  2  0
 21 22  1  0
 22 23  1  0
 22 24  1  0
 21 25  1  0
 25 26  1  0
 13 27  1  0
 27 28  1  0
 28 29  2  0
 29 30  1  0
 30 31  2  0
 31 32  1  0
 31 33  1  0
 33 34  2  0
 10  5  1  0
 26 14  2  0
 34 28  1  0
 27  9  1  0
 25 18  1  0
  1 35  1  0
  1 36  1  0
  1 37  1  0
  4 38  1  0
  6 39  1  0
  8 40  1  0
  8 41  1  0
  8 42  1  0
 15 43  1  0
 17 44  1  0
 17 45  1  0
 17 46  1  0
 22 47  1  0
 27 48  1  0
 29 49  1  0
 30 50  1  0
 33 51  1  0
 34 52  1  0
M  END
$$$$
