@<TRIPOS>MOLECULE
*****
 54 57 0 0 0
SMALL
GASTEIGER

@<TRIPOS>ATOM
      1 C          10.7109    1.2395   -1.2552 C.1     1  UNL1       -0.1139
      2 C           9.5619    1.0483   -0.9456 C.1     1  UNL1       -0.0681
      3 C           8.2110    0.8144   -0.5575 C.ar    1  UNL1        0.0428
      4 C           7.2317    0.4940   -1.4673 C.ar    1  UNL1       -0.0428
      5 C           5.9121    0.2569   -1.0583 C.ar    1  UNL1       -0.0323
      6 C           5.5884    0.3454    0.2787 C.ar    1  UNL1        0.0990
      7 C           4.2612    0.1024    0.7981 C.2     1  UNL1        0.1492
      8 F           4.0557    0.2522    2.1467 F       1  UNL1       -0.2032
      9 C           3.2001   -0.2435    0.1071 C.2     1  UNL1       -0.0172
     10 C           1.8880   -0.4749    0.7109 C.ar    1  UNL1       -0.0217
     11 C           1.8297   -1.1615    1.9011 C.ar    1  UNL1       -0.0518
     12 C           0.6139   -1.3844    2.5049 C.ar    1  UNL1       -0.0255
     13 C          -0.5607   -0.9087    1.9001 C.ar    1  UNL1        0.1289
     14 F          -1.6849   -1.1813    2.6148 F       1  UNL1       -0.2051
     15 C          -0.5164   -0.2284    0.7210 C.ar    1  UNL1        0.0158
     16 C          -1.8060    0.2518    0.0952 C.3     1  UNL1        0.0935
     17 C          -2.3385    1.2858    1.0684 C.3     1  UNL1       -0.0351
     18 N          -1.4935    0.9642   -1.1292 N.2     1  UNL1       -0.2521
     19 C          -2.4035    1.3603   -1.9178 C.2     1  UNL1        0.1485
     20 N          -2.1728    2.0609   -3.1254 N.pl3   1  UNL1       -0.3380
     21 S          -4.1027    0.9601   -1.4327 S.3     1  UNL1       -0.0746
     22 C          -3.9874   -0.7267   -0.7326 C.3     1  UNL1        0.1054
     23 C          -5.1655   -1.3863   -0.1911 C.2     1  UNL1        0.2319
     24 O          -5.2371   -2.6583   -0.3337 O.2     1  UNL1       -0.2741
     25 N          -6.2109   -0.7428    0.4651 N.am    1  UNL1       -0.3064
     26 C          -7.3292   -1.5759    0.9622 C.3     1  UNL1        0.0029
     27 C          -6.3384    0.6705    0.7197 C.3     1  UNL1        0.0029
     28 C          -2.9324   -1.5510   -1.4219 C.3     1  UNL1       -0.0220
     29 C          -2.6883   -0.9326   -0.0927 C.3     1  UNL1        0.0134
     30 C           0.7096   -0.0046    0.1147 C.ar    1  UNL1       -0.0463
     31 N           6.5741    0.6615    1.1301 N.ar    1  UNL1       -0.2515
     32 C           7.8306    0.8907    0.7677 C.ar    1  UNL1        0.0437
     33 H          11.6959    1.4214   -1.5179 H       1  UNL1        0.1232
     34 H           7.4873    0.4243   -2.5202 H       1  UNL1        0.0631
     35 H           5.1425    0.0073   -1.7580 H       1  UNL1        0.0640
     36 H           3.3032   -0.3640   -0.9584 H       1  UNL1        0.0653
     37 H           2.7268   -1.5343    2.3638 H       1  UNL1        0.0624
     38 H           0.5976   -1.9289    3.4426 H       1  UNL1        0.0646
     39 H          -3.3612    1.6066    0.8842 H       1  UNL1        0.0256
     40 H          -1.6977    2.2180    1.0140 H       1  UNL1        0.0256
     41 H          -2.2472    0.9712    2.1324 H       1  UNL1        0.0256
     42 H          -2.8528    2.0150   -3.8984 H       1  UNL1        0.1442
     43 H          -1.3147    2.6212   -3.2272 H       1  UNL1        0.1442
     44 H          -8.1516   -1.4272    0.2420 H       1  UNL1        0.0428
     45 H          -6.9967   -2.6095    0.9809 H       1  UNL1        0.0428
     46 H          -7.5910   -1.2082    1.9967 H       1  UNL1        0.0428
     47 H          -7.3322    0.9032    1.1983 H       1  UNL1        0.0428
     48 H          -6.2585    1.2046   -0.2341 H       1  UNL1        0.0428
     49 H          -5.5803    1.0029    1.4334 H       1  UNL1        0.0428
     50 H          -2.3854   -1.1406   -2.2705 H       1  UNL1        0.0287
     51 H          -3.0972   -2.6464   -1.5028 H       1  UNL1        0.0287
     52 H          -2.6474   -1.7069    0.7293 H       1  UNL1        0.0346
     53 H           0.7503    0.5297   -0.8120 H       1  UNL1        0.0628
     54 H           8.5995    1.1425    1.4811 H       1  UNL1        0.0842
@<TRIPOS>BOND
     1     1     2    3
     2     2     3    1
     3     3     4   ar
     4     4     5   ar
     5     5     6   ar
     6     6     7    1
     7     7     8    1
     8     7     9    2
     9     9    10    1
    10    10    11   ar
    11    11    12   ar
    12    12    13   ar
    13    13    14    1
    14    13    15   ar
    15    15    16    1
    16    16    17    1
    17    16    18    1
    18    18    19    2
    19    19    20    1
    20    19    21    1
    21    21    22    1
    22    22    23    1
    23    23    24    2
    24    23    25   am
    25    25    26    1
    26    25    27    1
    27    22    28    1
    28    28    29    1
    29    15    30   ar
    30     6    31   ar
    31    31    32   ar
    32    32     3   ar
    33    30    10   ar
    34    29    16    1
    35    29    22    1
    36     1    33    1
    37     4    34    1
    38     5    35    1
    39     9    36    1
    40    11    37    1
    41    12    38    1
    42    17    39    1
    43    17    40    1
    44    17    41    1
    45    20    42    1
    46    20    43    1
    47    26    44    1
    48    26    45    1
    49    26    46    1
    50    27    47    1
    51    27    48    1
    52    27    49    1
    53    28    50    1
    54    28    51    1
    55    29    52    1
    56    30    53    1
    57    32    54    1
