@<TRIPOS>MOLECULE
*****
 34 34 0 0 0
SMALL
GASTEIGER

@<TRIPOS>ATOM
      1 C          -1.0347   -0.6473    0.8665 C.3     1  UNL1        0.1133
      2 C          -1.2635   -2.0006    0.2428 C.3     1  UNL1        0.0730
      3 O          -0.5451   -3.0189    0.8344 O.3     1  UNL1       -0.3924
      4 O           0.2552   -0.1988    0.8334 O.3     1  UNL1       -0.3346
      5 C           0.6034    0.6064   -0.2164 C.3     1  UNL1        0.2681
      6 N           0.8318   -0.2225   -1.3776 N.2     1  UNL1       -0.2085
      7 C           1.5571   -1.2654   -1.3364 C.2     1  UNL1        0.1824
      8 C           2.3345   -1.9431   -0.2590 C.3     1  UNL1        0.0113
      9 O           1.6013   -1.8662   -2.5946 O.2     1  UNL1       -0.4957
     10 C           1.9391    1.2153    0.1193 C.2     1  UNL1        0.2393
     11 O           2.0314    1.9867    1.2496 O.2     1  UNL1       -0.4924
     12 N           3.0674    1.1095   -0.5384 N.2     1  UNL1       -0.2669
     13 C          -0.3162    1.7430   -0.5041 C.3     1  UNL1        0.1419
     14 O           0.2607    2.9941   -0.2731 O.3     1  UNL1       -0.3837
     15 C          -1.5253    1.6750    0.4207 C.3     1  UNL1        0.1144
     16 O          -2.4286    2.6770    0.1592 O.3     1  UNL1       -0.3864
     17 C          -2.0637    0.2817    0.3011 C.3     1  UNL1        0.1119
     18 O          -3.2921    0.1030    0.9555 O.3     1  UNL1       -0.3865
     19 H          -1.2925   -0.7800    1.9582 H       1  UNL1        0.0647
     20 H          -2.3483   -2.2367    0.4537 H       1  UNL1        0.0584
     21 H          -1.2132   -1.9822   -0.8652 H       1  UNL1        0.0584
     22 H          -1.0412   -3.4194    1.5921 H       1  UNL1        0.2095
     23 H           3.4288   -1.9052   -0.4978 H       1  UNL1        0.0324
     24 H           2.2043   -1.5088    0.7317 H       1  UNL1        0.0324
     25 H           2.0777   -3.0319   -0.1767 H       1  UNL1        0.0324
     26 H           0.8346   -1.8586   -3.2554 H       1  UNL1        0.2934
     27 H           2.9157    2.1561    1.7180 H       1  UNL1        0.2935
     28 H           3.1980    0.5781   -1.4025 H       1  UNL1        0.1897
     29 H          -0.6709    1.7747   -1.5563 H       1  UNL1        0.0674
     30 H          -0.2377    3.5606    0.3542 H       1  UNL1        0.2101
     31 H          -1.0993    1.7570    1.4617 H       1  UNL1        0.0648
     32 H          -2.5563    3.2136    1.0033 H       1  UNL1        0.2100
     33 H          -2.1964    0.0191   -0.7718 H       1  UNL1        0.0647
     34 H          -4.0160    0.4349    0.3701 H       1  UNL1        0.2100
@<TRIPOS>BOND
     1     1     2    1
     2     2     3    1
     3     1     4    1
     4     4     5    1
     5     5     6    1
     6     6     7    2
     7     7     8    1
     8     7     9    1
     9     5    10    1
    10    10    11    1
    11    10    12    2
    12     5    13    1
    13    13    14    1
    14    13    15    1
    15    15    16    1
    16    15    17    1
    17    17    18    1
    18    17     1    1
    19     1    19    1
    20     2    20    1
    21     2    21    1
    22     3    22    1
    23     8    23    1
    24     8    24    1
    25     8    25    1
    26     9    26    1
    27    11    27    1
    28    12    28    1
    29    13    29    1
    30    14    30    1
    31    15    31    1
    32    16    32    1
    33    17    33    1
    34    18    34    1
