
     RDKit          3D

 34 34  0  0  0  0  0  0  0  0999 V2000
   -1.0347   -0.6473    0.8665 C   0  0  1  0  0  0  0  0  0  0  0  0
   -1.2635   -2.0006    0.2428 C   0  0  0  0  0  0  0  0  0  0  0  0
   -0.5451   -3.0189    0.8344 O   0  0  0  0  0  0  0  0  0  0  0  0
    0.2552   -0.1988    0.8334 O   0  0  0  0  0  0  0  0  0  0  0  0
    0.6034    0.6064   -0.2164 C   0  0  2  0  0  0  0  0  0  0  0  0
    0.8318   -0.2225   -1.3776 N   0  0  0  0  0  0  0  0  0  0  0  0
    1.5571   -1.2654   -1.3364 C   0  0  0  0  0  0  0  0  0  0  0  0
    2.3345   -1.9431   -0.2590 C   0  0  0  0  0  0  0  0  0  0  0  0
    1.6013   -1.8662   -2.5946 O   0  0  0  0  0  0  0  0  0  0  0  0
    1.9391    1.2153    0.1193 C   0  0  0  0  0  0  0  0  0  0  0  0
    2.0314    1.9867    1.2496 O   0  0  0  0  0  0  0  0  0  0  0  0
    3.0674    1.1095   -0.5384 N   0  0  0  0  0  0  0  0  0  0  0  0
   -0.3162    1.7430   -0.5041 C   0  0  2  0  0  0  0  0  0  0  0  0
    0.2607    2.9941   -0.2731 O   0  0  0  0  0  0  0  0  0  0  0  0
   -1.5253    1.6750    0.4207 C   0  0  1  0  0  0  0  0  0  0  0  0
   -2.4286    2.6770    0.1592 O   0  0  0  0  0  0  0  0  0  0  0  0
   -2.0637    0.2817    0.3011 C   0  0  2  0  0  0  0  0  0  0  0  0
   -3.2921    0.1030    0.9555 O   0  0  0  0  0  0  0  0  0  0  0  0
   -1.2925   -0.7800    1.9582 H   0  0  0  0  0  0  0  0  0  0  0  0
   -2.3483   -2.2367    0.4537 H   0  0  0  0  0  0  0  0  0  0  0  0
   -1.2132   -1.9822   -0.8652 H   0  0  0  0  0  0  0  0  0  0  0  0
   -1.0412   -3.4194    1.5921 H   0  0  0  0  0  0  0  0  0  0  0  0
    3.4288   -1.9052   -0.4978 H   0  0  0  0  0  0  0  0  0  0  0  0
    2.2043   -1.5088    0.7317 H   0  0  0  0  0  0  0  0  0  0  0  0
    2.0777   -3.0319   -0.1767 H   0  0  0  0  0  0  0  0  0  0  0  0
    0.8346   -1.8586   -3.2554 H   0  0  0  0  0  0  0  0  0  0  0  0
    2.9157    2.1561    1.7180 H   0  0  0  0  0  0  0  0  0  0  0  0
    3.1980    0.5781   -1.4025 H   0  0  0  0  0  0  0  0  0  0  0  0
   -0.6709    1.7747   -1.5563 H   0  0  0  0  0  0  0  0  0  0  0  0
   -0.2377    3.5606    0.3542 H   0  0  0  0  0  0  0  0  0  0  0  0
   -1.0993    1.7570    1.4617 H   0  0  0  0  0  0  0  0  0  0  0  0
   -2.5563    3.2136    1.0033 H   0  0  0  0  0  0  0  0  0  0  0  0
   -2.1964    0.0191   -0.7718 H   0  0  0  0  0  0  0  0  0  0  0  0
   -4.0160    0.4349    0.3701 H   0  0  0  0  0  0  0  0  0  0  0  0
  1  2  1  0
  2  3  1  0
  1  4  1  0
  4  5  1  0
  5  6  1  6
  6  7  2  3
  7  8  1  0
  7  9  1  0
  5 10  1  0
 10 11  1  0
 10 12  2  3
  5 13  1  0
 13 14  1  0
 13 15  1  0
 15 16  1  0
 15 17  1  0
 17 18  1  0
 17  1  1  0
  1 19  1  1
  2 20  1  0
  2 21  1  0
  3 22  1  0
  8 23  1  0
  8 24  1  0
  8 25  1  0
  9 26  1  0
 11 27  1  0
 12 28  1  0
 13 29  1  6
 14 30  1  0
 15 31  1  1
 16 32  1  0
 17 33  1  6
 18 34  1  0
M  END
$$$$
