@<TRIPOS>MOLECULE
*****
 70 74 0 0 0
SMALL
GASTEIGER

@<TRIPOS>ATOM
      1 C         -10.5461    0.8761    0.2821 C.3     1  UNL1       -0.0524
      2 C          -9.4320    1.0246   -0.7093 C.3     1  UNL1       -0.0039
      3 N          -8.1218    0.9194   -0.1316 N.3     1  UNL1       -0.3002
      4 C          -7.1489    1.0654   -1.1778 C.3     1  UNL1        0.0117
      5 C          -5.7327    0.8072   -0.7945 C.3     1  UNL1        0.0124
      6 N          -5.5746   -0.2093    0.1716 N.3     1  UNL1       -0.2893
      7 C          -4.6512   -1.2257   -0.0314 C.3     1  UNL1        0.0848
      8 C          -4.5457   -2.2762    1.0342 C.3     1  UNL1       -0.0409
      9 C          -3.3121   -0.6741   -0.3978 C.2     1  UNL1        0.2342
     10 O          -3.1954    0.5644   -0.5503 O.2     1  UNL1       -0.2738
     11 N          -2.1736   -1.4811   -0.5791 N.am    1  UNL1       -0.2825
     12 C          -0.8749   -1.0232   -0.9262 C.ar    1  UNL1        0.0576
     13 C          -0.4282   -0.9232   -2.2315 C.ar    1  UNL1       -0.0384
     14 C           0.8269   -0.4843   -2.5611 C.ar    1  UNL1       -0.0593
     15 C           1.7006   -0.1201   -1.5600 C.ar    1  UNL1       -0.0518
     16 C           1.2752   -0.2108   -0.2355 C.ar    1  UNL1        0.0107
     17 C           1.9689    0.1037    0.9305 C.ar    1  UNL1        0.0284
     18 C           3.3352    0.5909    1.0240 C.ar    1  UNL1        0.1132
     19 N           4.3775   -0.0806    0.5099 N.ar    1  UNL1       -0.2113
     20 C           5.6443    0.3688    0.5794 C.ar    1  UNL1        0.2203
     21 N           6.7284   -0.3690    0.0488 N.pl3   1  UNL1       -0.2782
     22 C           8.0742    0.0458    0.0067 C.ar    1  UNL1        0.1152
     23 C           8.6231    1.2355    0.3882 C.ar    1  UNL1        0.0503
     24 N           9.9686    1.2135    0.1574 N.ar    1  UNL1       -0.2692
     25 C          10.9126    2.2742    0.4191 C.3     1  UNL1        0.0304
     26 N          10.2641    0.0415   -0.3557 N.ar    1  UNL1       -0.1317
     27 C           9.1463   -0.7110   -0.4697 C.ar    1  UNL1        0.2552
     28 O           9.0049   -1.9968   -0.9553 O.3     1  UNL1       -0.4774
     29 C          10.1265   -2.7013   -1.4184 C.3     1  UNL1        0.0805
     30 N           5.8613    1.5395    1.1904 N.ar    1  UNL1       -0.2198
     31 C           4.8901    2.2964    1.7413 C.ar    1  UNL1        0.0685
     32 C           3.6003    1.7934    1.6462 C.ar    1  UNL1        0.1674
     33 F           2.5881    2.5025    2.1774 F       1  UNL1       -0.2016
     34 C           1.0682   -0.1697    1.9384 C.ar    1  UNL1        0.0121
     35 N          -0.1045   -0.6245    1.4058 N.ar    1  UNL1       -0.3586
     36 C           0.0200   -0.6510    0.0683 C.ar    1  UNL1        0.0686
     37 C          -6.5081   -0.2236    1.2135 C.3     1  UNL1        0.0124
     38 C          -7.9561   -0.1960    0.7364 C.3     1  UNL1        0.0117
     39 H         -11.5004    0.8506   -0.2917 H       1  UNL1        0.0242
     40 H         -10.5147   -0.0752    0.8482 H       1  UNL1        0.0242
     41 H         -10.6111    1.7713    0.9379 H       1  UNL1        0.0242
     42 H          -9.5247    2.0742   -1.1179 H       1  UNL1        0.0424
     43 H          -9.5683    0.3485   -1.5841 H       1  UNL1        0.0424
     44 H          -7.2005    2.1550   -1.4878 H       1  UNL1        0.0439
     45 H          -7.4416    0.5022   -2.0964 H       1  UNL1        0.0439
     46 H          -5.2336    1.7561   -0.4812 H       1  UNL1        0.0439
     47 H          -5.2149    0.4562   -1.7387 H       1  UNL1        0.0439
     48 H          -4.9588   -1.7954   -0.9644 H       1  UNL1        0.0556
     49 H          -5.5465   -2.6928    1.2295 H       1  UNL1        0.0249
     50 H          -3.9666   -1.9872    1.9160 H       1  UNL1        0.0249
     51 H          -3.9754   -3.1347    0.5670 H       1  UNL1        0.0249
     52 H          -2.3143   -2.5169   -0.4413 H       1  UNL1        0.1549
     53 H          -1.1143   -1.2080   -3.0103 H       1  UNL1        0.0637
     54 H           1.1985   -0.3976   -3.5754 H       1  UNL1        0.0618
     55 H           2.6983    0.2321   -1.7614 H       1  UNL1        0.0624
     56 H           6.4647   -1.3298   -0.3487 H       1  UNL1        0.1552
     57 H           8.0847    2.0846    0.8125 H       1  UNL1        0.0846
     58 H          10.8495    2.9682   -0.4697 H       1  UNL1        0.0473
     59 H          10.5476    2.8736    1.2837 H       1  UNL1        0.0473
     60 H          11.9344    1.8926    0.5767 H       1  UNL1        0.0473
     61 H          10.1724   -3.7494   -1.0566 H       1  UNL1        0.0660
     62 H          11.0720   -2.1858   -1.1555 H       1  UNL1        0.0660
     63 H          10.1050   -2.7655   -2.5355 H       1  UNL1        0.0660
     64 H           5.1223    3.2422    2.2271 H       1  UNL1        0.0861
     65 H           1.2611   -0.0437    2.9989 H       1  UNL1        0.0814
     66 H          -0.9546   -0.9056    1.9314 H       1  UNL1        0.1654
     67 H          -6.3108   -0.9706    1.9766 H       1  UNL1        0.0439
     68 H          -6.4020    0.7715    1.7502 H       1  UNL1        0.0439
     69 H          -8.5571    0.0198    1.6606 H       1  UNL1        0.0439
     70 H          -8.2998   -1.1517    0.3462 H       1  UNL1        0.0439
@<TRIPOS>BOND
     1     1     2    1
     2     2     3    1
     3     3     4    1
     4     4     5    1
     5     5     6    1
     6     6     7    1
     7     7     8    1
     8     7     9    1
     9     9    10    2
    10     9    11   am
    11    11    12    1
    12    12    13   ar
    13    13    14   ar
    14    14    15   ar
    15    15    16   ar
    16    16    17   ar
    17    17    18    1
    18    18    19   ar
    19    19    20   ar
    20    20    21    1
    21    21    22    1
    22    22    23   ar
    23    23    24   ar
    24    24    25    1
    25    24    26   ar
    26    26    27   ar
    27    27    28    1
    28    28    29    1
    29    20    30   ar
    30    30    31   ar
    31    31    32   ar
    32    32    33    1
    33    17    34   ar
    34    34    35   ar
    35    35    36   ar
    36     6    37    1
    37    37    38    1
    38    38     3    1
    39    36    12   ar
    40    36    16   ar
    41    32    18   ar
    42    27    22   ar
    43     1    39    1
    44     1    40    1
    45     1    41    1
    46     2    42    1
    47     2    43    1
    48     4    44    1
    49     4    45    1
    50     5    46    1
    51     5    47    1
    52     7    48    1
    53     8    49    1
    54     8    50    1
    55     8    51    1
    56    11    52    1
    57    13    53    1
    58    14    54    1
    59    15    55    1
    60    21    56    1
    61    23    57    1
    62    25    58    1
    63    25    59    1
    64    25    60    1
    65    29    61    1
    66    29    62    1
    67    29    63    1
    68    31    64    1
    69    34    65    1
    70    35    66    1
    71    37    67    1
    72    37    68    1
    73    38    69    1
    74    38    70    1
