@<TRIPOS>MOLECULE
*****
 33 35 0 0 0
SMALL
GASTEIGER

@<TRIPOS>ATOM
      1 O           4.6857   -1.9799   -0.3424 O.3     1  UNL1       -0.4794
      2 C           4.7647   -0.7751   -1.0264 C.2     1  UNL1        0.3248
      3 O           5.6475   -0.6398   -1.9349 O.2     1  UNL1       -0.2490
      4 C           3.8755    0.3965   -0.7724 C.3     1  UNL1        0.1243
      5 N           2.9705   -0.0286    0.3035 N.ar    1  UNL1       -0.2896
      6 C           3.2204    0.1327    1.6112 C.ar    1  UNL1        0.0151
      7 C           2.3374   -0.2845    2.5715 C.ar    1  UNL1        0.0194
      8 C           1.1725   -0.8819    2.1185 C.ar    1  UNL1        0.2569
      9 O           0.3218   -1.2859    2.9672 O.2     1  UNL1       -0.2675
     10 N           0.8755   -1.0668    0.8131 N.ar    1  UNL1       -0.2544
     11 C          -0.3340   -1.6862    0.3785 C.3     1  UNL1        0.0794
     12 C          -1.4731   -0.8156    0.1462 C.ar    1  UNL1        0.0994
     13 N          -1.9468   -0.1691   -0.8155 N.ar    1  UNL1       -0.2421
     14 C          -3.0511    0.5562   -0.6797 C.ar    1  UNL1        0.0799
     15 C          -3.6174    1.2877   -1.7035 C.ar    1  UNL1       -0.0169
     16 C          -4.7644    2.0125   -1.4757 C.ar    1  UNL1        0.0431
     17 CL         -5.5105    2.9610   -2.7778 Cl      1  UNL1       -0.0835
     18 C          -5.4214    2.0717   -0.2627 C.ar    1  UNL1       -0.0422
     19 C          -4.8902    1.3563    0.7864 C.ar    1  UNL1       -0.0445
     20 C          -3.7450    0.6396    0.5378 C.ar    1  UNL1        0.0393
     21 S          -2.6428   -0.4694    1.5733 S.2     1  UNL1       -0.0703
     22 C           1.8090   -0.6217   -0.0508 C.ar    1  UNL1        0.3328
     23 O           1.5643   -0.7786   -1.2929 O.2     1  UNL1       -0.2462
     24 H           5.2895   -2.7629   -0.5211 H       1  UNL1        0.2951
     25 H           4.4352    1.3013   -0.4844 H       1  UNL1        0.0609
     26 H           3.2620    0.5982   -1.6747 H       1  UNL1        0.0609
     27 H           4.1498    0.6071    1.8858 H       1  UNL1        0.0812
     28 H           2.5312   -0.1581    3.6295 H       1  UNL1        0.0686
     29 H          -0.6354   -2.5140    1.0773 H       1  UNL1        0.0565
     30 H          -0.1225   -2.2125   -0.5796 H       1  UNL1        0.0565
     31 H          -3.2262    1.3525   -2.7297 H       1  UNL1        0.0654
     32 H          -6.3180    2.6115   -0.0030 H       1  UNL1        0.0632
     33 H          -5.2140    1.2458    1.8090 H       1  UNL1        0.0630
@<TRIPOS>BOND
     1     1     2    1
     2     2     3    2
     3     2     4    1
     4     4     5    1
     5     5     6   ar
     6     6     7   ar
     7     7     8   ar
     8     8     9    2
     9     8    10   ar
    10    10    11    1
    11    11    12    1
    12    12    13   ar
    13    13    14   ar
    14    14    15   ar
    15    15    16   ar
    16    16    17    1
    17    16    18   ar
    18    18    19   ar
    19    19    20   ar
    20    20    21   ar
    21    10    22   ar
    22    22    23    2
    23    22     5   ar
    24    21    12   ar
    25    20    14   ar
    26     1    24    1
    27     4    25    1
    28     4    26    1
    29     6    27    1
    30     7    28    1
    31    11    29    1
    32    11    30    1
    33    15    31    1
    34    18    32    1
    35    19    33    1
