
     RDKit          3D

 36 36  0  0  0  0  0  0  0  0999 V2000
   -1.5286    1.8641   -1.7800 O   0  0  0  0  0  0  0  0  0  0  0  0
   -2.2544    1.5555   -0.5045 P   0  0  0  0  0  5  0  0  0  0  0  0
   -1.6867    2.6039    0.6958 O   0  0  0  0  0  0  0  0  0  0  0  0
   -3.9224    1.7923   -0.6875 O   0  0  0  0  0  0  0  0  0  0  0  0
   -1.8808   -0.1060    0.0087 C   0  0  0  0  0  0  0  0  0  0  0  0
   -0.6958   -0.4797    0.1680 N   0  0  0  0  0  0  0  0  0  0  0  0
    0.4181    0.3634   -0.0403 C   0  0  0  0  0  0  0  0  0  0  0  0
    1.2807    0.3142    1.2032 C   0  0  0  0  0  0  0  0  0  0  0  0
    2.3111   -0.7670    1.1647 C   0  0  0  0  0  0  0  0  0  0  0  0
    3.6060   -0.1751    0.6553 C   0  0  0  0  0  0  0  0  0  0  0  0
    3.6131   -0.1341   -0.8636 C   0  0  0  0  0  0  0  0  0  0  0  0
    2.4780    0.7495   -1.3368 C   0  0  0  0  0  0  0  0  0  0  0  0
    1.2030   -0.0524   -1.2706 C   0  0  0  0  0  0  0  0  0  0  0  0
   -3.1955   -1.2124    0.2873 P   0  0  0  0  0  5  0  0  0  0  0  0
   -3.6625   -1.1844   -1.1773 O   0  0  0  0  0  0  0  0  0  0  0  0
   -2.8777   -2.8410    0.1088 O   0  0  0  0  0  0  0  0  0  0  0  0
   -2.9128   -1.3656    1.7857 O   0  0  0  0  0  0  0  0  0  0  0  0
   -2.1802    2.5416    1.5333 H   0  0  0  0  0  0  0  0  0  0  0  0
   -4.1108    2.7268   -0.4143 H   0  0  0  0  0  0  0  0  0  0  0  0
    0.1188    1.4204   -0.1892 H   0  0  0  0  0  0  0  0  0  0  0  0
    0.6266    0.1611    2.0950 H   0  0  0  0  0  0  0  0  0  0  0  0
    1.7880    1.2952    1.3720 H   0  0  0  0  0  0  0  0  0  0  0  0
    2.0021   -1.6670    0.6122 H   0  0  0  0  0  0  0  0  0  0  0  0
    2.4972   -1.0916    2.2171 H   0  0  0  0  0  0  0  0  0  0  0  0
    3.6569    0.8690    1.0503 H   0  0  0  0  0  0  0  0  0  0  0  0
    4.4282   -0.8093    0.9990 H   0  0  0  0  0  0  0  0  0  0  0  0
    3.4682   -1.1641   -1.2227 H   0  0  0  0  0  0  0  0  0  0  0  0
    4.5741    0.2920   -1.1842 H   0  0  0  0  0  0  0  0  0  0  0  0
    2.4017    1.6440   -0.6752 H   0  0  0  0  0  0  0  0  0  0  0  0
    2.6487    1.1126   -2.3758 H   0  0  0  0  0  0  0  0  0  0  0  0
    1.4095   -1.1431   -1.2767 H   0  0  0  0  0  0  0  0  0  0  0  0
    0.5976    0.1625   -2.1565 H   0  0  0  0  0  0  0  0  0  0  0  0
   -4.4249   -0.7369    0.6249 H   0  0  0  0  0  0  0  0  0  0  0  0
   -4.3931   -1.7041   -1.5354 H   0  0  0  0  0  0  0  0  0  0  0  0
   -1.9985   -2.8962   -0.2794 H   0  0  0  0  0  0  0  0  0  0  0  0
   -3.4028   -1.9379    2.3885 H   0  0  0  0  0  0  0  0  0  0  0  0
  1  2  2  0
  2  3  1  0
  2  4  1  0
  2  5  1  0
  5  6  2  3
  6  7  1  0
  7  8  1  0
  8  9  1  0
  9 10  1  0
 10 11  1  0
 11 12  1  0
 12 13  1  0
  5 14  1  0
 14 15  1  0
 14 16  1  0
 14 17  1  0
 13  7  1  0
  3 18  1  0
  4 19  1  0
  7 20  1  0
  8 21  1  0
  8 22  1  0
  9 23  1  0
  9 24  1  0
 10 25  1  0
 10 26  1  0
 11 27  1  0
 11 28  1  0
 12 29  1  0
 12 30  1  0
 13 31  1  0
 13 32  1  0
 14 33  1  0
 15 34  1  0
 16 35  1  0
 17 36  1  0
M  END
$$$$
