@<TRIPOS>MOLECULE
*****
 36 36 0 0 0
SMALL
GASTEIGER

@<TRIPOS>ATOM
      1 O          -1.5286    1.8641   -1.7800 O.2     1  UNL1       -0.2516
      2 P          -2.2544    1.5555   -0.5045 P.3     1  UNL1        0.3818
      3 O          -1.6867    2.6039    0.6958 O.3     1  UNL1       -0.3196
      4 O          -3.9224    1.7923   -0.6875 O.3     1  UNL1       -0.3196
      5 C          -1.8808   -0.1060    0.0087 C.2     1  UNL1        0.2080
      6 N          -0.6958   -0.4797    0.1680 N.2     1  UNL1       -0.2679
      7 C           0.4181    0.3634   -0.0403 C.3     1  UNL1        0.0520
      8 C           1.2807    0.3142    1.2032 C.3     1  UNL1       -0.0305
      9 C           2.3111   -0.7670    1.1647 C.3     1  UNL1       -0.0511
     10 C           3.6060   -0.1751    0.6553 C.3     1  UNL1       -0.0530
     11 C           3.6131   -0.1341   -0.8636 C.3     1  UNL1       -0.0530
     12 C           2.4780    0.7495   -1.3368 C.3     1  UNL1       -0.0511
     13 C           1.2030   -0.0524   -1.2706 C.3     1  UNL1       -0.0305
     14 P          -3.1955   -1.2124    0.2873 P.3     1  UNL1        0.1905
     15 O          -3.6625   -1.1844   -1.1773 O.3     1  UNL1       -0.3395
     16 O          -2.8777   -2.8410    0.1088 O.3     1  UNL1       -0.3395
     17 O          -2.9128   -1.3656    1.7857 O.3     1  UNL1       -0.3395
     18 H          -2.1802    2.5416    1.5333 H       1  UNL1        0.2201
     19 H          -4.1108    2.7268   -0.4143 H       1  UNL1        0.2201
     20 H           0.1188    1.4204   -0.1892 H       1  UNL1        0.0544
     21 H           0.6266    0.1611    2.0950 H       1  UNL1        0.0286
     22 H           1.7880    1.2952    1.3720 H       1  UNL1        0.0286
     23 H           2.0021   -1.6670    0.6122 H       1  UNL1        0.0266
     24 H           2.4972   -1.0916    2.2171 H       1  UNL1        0.0266
     25 H           3.6569    0.8690    1.0503 H       1  UNL1        0.0265
     26 H           4.4282   -0.8093    0.9990 H       1  UNL1        0.0265
     27 H           3.4682   -1.1641   -1.2227 H       1  UNL1        0.0265
     28 H           4.5741    0.2920   -1.1842 H       1  UNL1        0.0265
     29 H           2.4017    1.6440   -0.6752 H       1  UNL1        0.0266
     30 H           2.6487    1.1126   -2.3758 H       1  UNL1        0.0266
     31 H           1.4095   -1.1431   -1.2767 H       1  UNL1        0.0286
     32 H           0.5976    0.1625   -2.1565 H       1  UNL1        0.0286
     33 H          -4.4249   -0.7369    0.6249 H       1  UNL1        0.1380
     34 H          -4.3931   -1.7041   -1.5354 H       1  UNL1        0.2183
     35 H          -1.9985   -2.8962   -0.2794 H       1  UNL1        0.2183
     36 H          -3.4028   -1.9379    2.3885 H       1  UNL1        0.2183
@<TRIPOS>BOND
     1     1     2    2
     2     2     3    1
     3     2     4    1
     4     2     5    1
     5     5     6    2
     6     6     7    1
     7     7     8    1
     8     8     9    1
     9     9    10    1
    10    10    11    1
    11    11    12    1
    12    12    13    1
    13     5    14    1
    14    14    15    1
    15    14    16    1
    16    14    17    1
    17    13     7    1
    18     3    18    1
    19     4    19    1
    20     7    20    1
    21     8    21    1
    22     8    22    1
    23     9    23    1
    24     9    24    1
    25    10    25    1
    26    10    26    1
    27    11    27    1
    28    11    28    1
    29    12    29    1
    30    12    30    1
    31    13    31    1
    32    13    32    1
    33    14    33    1
    34    15    34    1
    35    16    35    1
    36    17    36    1
