@<TRIPOS>MOLECULE
*****
 58 63 0 0 0
SMALL
GASTEIGER

@<TRIPOS>ATOM
      1 C           5.7582   -0.9993   -0.8678 C.3     1  UNL1        0.0805
      2 O           4.8208   -0.0078   -0.4799 O.3     1  UNL1       -0.4782
      3 C           5.1915    1.1992    0.0892 C.ar    1  UNL1        0.2407
      4 N           6.4699    1.5406    0.3253 N.ar    1  UNL1       -0.2195
      5 C           6.8234    2.7160    0.8791 C.ar    1  UNL1        0.0315
      6 C           5.8576    3.6439    1.2366 C.ar    1  UNL1       -0.0413
      7 C           4.5424    3.3034    0.9984 C.ar    1  UNL1       -0.0296
      8 C           4.1935    2.0809    0.4236 C.ar    1  UNL1        0.1270
      9 N           2.8152    1.7624    0.1914 N.ar    1  UNL1       -0.2308
     10 N           2.0543    2.2470   -0.7841 N.ar    1  UNL1       -0.1609
     11 C           0.8164    1.7446   -0.7147 C.ar    1  UNL1        0.1535
     12 C           0.7631    0.8993    0.3438 C.ar    1  UNL1        0.0310
     13 C           2.0306    0.9237    0.9027 C.ar    1  UNL1        0.0481
     14 C           2.5297    0.1814    2.0889 C.3     1  UNL1       -0.0219
     15 C          -0.5786    0.2743    0.4950 C.3     1  UNL1        0.0881
     16 C          -0.3725   -1.1838    0.3144 C.ar    1  UNL1        0.0132
     17 C          -0.4176   -2.0691    1.3668 C.ar    1  UNL1       -0.0510
     18 C          -0.2138   -3.4379    1.2051 C.ar    1  UNL1       -0.0259
     19 C           0.0385   -3.8751   -0.0723 C.ar    1  UNL1        0.1261
     20 F           0.2429   -5.1946   -0.2795 F       1  UNL1       -0.2054
     21 C           0.0902   -3.0216   -1.1412 C.ar    1  UNL1        0.0091
     22 C          -0.1173   -1.6665   -0.9432 C.ar    1  UNL1        0.1314
     23 F          -0.0605   -0.8589   -2.0072 F       1  UNL1       -0.2050
     24 N          -1.3753    0.8652   -0.5636 N.am    1  UNL1       -0.2530
     25 C          -2.7620    0.5785   -0.7719 C.ar    1  UNL1        0.0545
     26 C          -3.4788    1.1166   -1.8183 C.ar    1  UNL1       -0.0324
     27 C          -4.8274    0.7631   -1.9029 C.ar    1  UNL1       -0.0041
     28 C          -5.6118    1.3366   -3.0261 C.3     1  UNL1       -0.0361
     29 C          -5.4336   -0.0787   -0.9991 C.ar    1  UNL1        0.1641
     30 N          -6.6818   -0.5758   -0.8433 N.ar    1  UNL1       -0.1292
     31 N          -6.7119   -1.3603    0.2259 N.ar    1  UNL1       -0.1340
     32 C          -5.4963   -1.3848    0.7756 C.ar    1  UNL1        0.1347
     33 C          -5.0866   -2.1328    1.9808 C.3     1  UNL1       -0.0041
     34 N          -4.7185   -0.5939    0.0149 N.ar    1  UNL1       -0.2846
     35 C          -3.4319   -0.2588    0.0990 C.ar    1  UNL1        0.0344
     36 C          -0.5278    1.7269   -1.2928 C.2     1  UNL1        0.2721
     37 O          -0.8657    2.3978   -2.3065 O.2     1  UNL1       -0.2679
     38 H           5.7763   -1.8472   -0.1483 H       1  UNL1        0.0660
     39 H           5.4017   -1.4252   -1.8322 H       1  UNL1        0.0660
     40 H           6.7884   -0.5776   -0.9739 H       1  UNL1        0.0660
     41 H           7.8664    2.9788    1.0648 H       1  UNL1        0.0831
     42 H           6.1396    4.5999    1.6867 H       1  UNL1        0.0633
     43 H           3.7798    4.0229    1.2748 H       1  UNL1        0.0641
     44 H           3.3297   -0.5463    1.8348 H       1  UNL1        0.0293
     45 H           2.8235    0.8721    2.9135 H       1  UNL1        0.0293
     46 H           1.6842   -0.4173    2.4868 H       1  UNL1        0.0293
     47 H          -1.0593    0.4833    1.4662 H       1  UNL1        0.0607
     48 H          -0.6200   -1.6921    2.3690 H       1  UNL1        0.0623
     49 H          -0.2666   -4.0493    2.0748 H       1  UNL1        0.0646
     50 H           0.2941   -3.4315   -2.1240 H       1  UNL1        0.0675
     51 H          -3.0270    1.7789   -2.5415 H       1  UNL1        0.0640
     52 H          -4.9868    1.2085   -3.9461 H       1  UNL1        0.0279
     53 H          -5.8604    2.3946   -2.8380 H       1  UNL1        0.0279
     54 H          -6.5613    0.7821   -3.1186 H       1  UNL1        0.0279
     55 H          -5.8285   -2.8925    2.2660 H       1  UNL1        0.0308
     56 H          -4.1378   -2.6947    1.7753 H       1  UNL1        0.0308
     57 H          -4.9322   -1.4714    2.8508 H       1  UNL1        0.0308
     58 H          -2.8719   -0.6774    0.9229 H       1  UNL1        0.0833
@<TRIPOS>BOND
     1     1     2    1
     2     2     3    1
     3     3     4   ar
     4     4     5   ar
     5     5     6   ar
     6     6     7   ar
     7     7     8   ar
     8     8     9    1
     9     9    10   ar
    10    10    11   ar
    11    11    12   ar
    12    12    13   ar
    13    13    14    1
    14    12    15    1
    15    15    16    1
    16    16    17   ar
    17    17    18   ar
    18    18    19   ar
    19    19    20    1
    20    19    21   ar
    21    21    22   ar
    22    22    23    1
    23    15    24    1
    24    24    25    1
    25    25    26   ar
    26    26    27   ar
    27    27    28    1
    28    27    29   ar
    29    29    30   ar
    30    30    31   ar
    31    31    32   ar
    32    32    33    1
    33    32    34   ar
    34    34    35   ar
    35    24    36   am
    36    36    37    2
    37     8     3   ar
    38    13     9   ar
    39    22    16   ar
    40    35    25   ar
    41    36    11    1
    42    34    29   ar
    43     1    38    1
    44     1    39    1
    45     1    40    1
    46     5    41    1
    47     6    42    1
    48     7    43    1
    49    14    44    1
    50    14    45    1
    51    14    46    1
    52    15    47    1
    53    17    48    1
    54    18    49    1
    55    21    50    1
    56    26    51    1
    57    28    52    1
    58    28    53    1
    59    28    54    1
    60    33    55    1
    61    33    56    1
    62    33    57    1
    63    35    58    1
