@<TRIPOS>MOLECULE
*****
 58 59 0 0 0
SMALL
GASTEIGER

@<TRIPOS>ATOM
      1 C           9.4862    1.6890    1.5646 C.3     1  UNL1       -0.0652
      2 C           8.1828    1.0033    1.2144 C.3     1  UNL1       -0.0528
      3 C           7.8314    1.2169   -0.2439 C.3     1  UNL1       -0.0189
      4 C           6.5388    0.5174   -0.5253 C.3     1  UNL1        0.0896
      5 O           5.5238    1.0522    0.2990 O.3     1  UNL1       -0.4920
      6 C           4.2127    0.5960    0.2576 C.ar    1  UNL1        0.1205
      7 C           3.7981   -0.4049   -0.5816 C.ar    1  UNL1       -0.0194
      8 C           2.4655   -0.8268   -0.5835 C.ar    1  UNL1       -0.0506
      9 C           1.5710   -0.2221    0.2713 C.ar    1  UNL1       -0.0177
     10 C           0.1867   -0.6884    0.2406 C.ar    1  UNL1       -0.0178
     11 C          -0.3746   -1.1566   -0.9301 C.ar    1  UNL1       -0.0522
     12 C          -1.6824   -1.5933   -0.9606 C.ar    1  UNL1       -0.0347
     13 C          -2.4911   -1.5879    0.1563 C.ar    1  UNL1        0.1077
     14 S          -4.1396   -2.1427    0.0784 S.O2    1  UNL1        0.0830
     15 O          -4.4587   -2.8141    1.3954 O.2     1  UNL1       -0.1509
     16 O          -4.2876   -3.2155   -0.9812 O.2     1  UNL1       -0.1509
     17 N          -5.2488   -0.9083   -0.2731 N.3     1  UNL1       -0.0453
     18 C          -5.3066    0.1398    0.6800 C.3     1  UNL1        0.1256
     19 C          -6.3629   -0.1661    1.6811 C.2     1  UNL1        0.2536
     20 O          -6.6007    0.6215    2.6444 O.2     1  UNL1       -0.2722
     21 N          -7.1503   -1.3482    1.6042 N.am    1  UNL1       -0.1963
     22 O          -8.1087   -1.5724    2.5599 O.3     1  UNL1       -0.2951
     23 O          -5.4214   -0.5864   -1.5320 O.3     1  UNL1       -0.2733
     24 C          -4.7179    0.5350   -1.9587 C.3     1  UNL1        0.0766
     25 C          -5.6391    1.5935   -2.5266 C.3     1  UNL1       -0.0370
     26 C          -3.7915    0.0906   -3.0645 C.3     1  UNL1       -0.0370
     27 C          -1.9071   -1.1140    1.3206 C.ar    1  UNL1       -0.0347
     28 C          -0.6108   -0.6765    1.3696 C.ar    1  UNL1       -0.0522
     29 C           2.0025    0.7728    1.0997 C.ar    1  UNL1       -0.0506
     30 C           3.3164    1.1986    1.1111 C.ar    1  UNL1       -0.0194
     31 H          10.2909    0.9317    1.7076 H       1  UNL1        0.0230
     32 H           9.3786    2.2599    2.5175 H       1  UNL1        0.0230
     33 H           9.8011    2.4206    0.7891 H       1  UNL1        0.0230
     34 H           7.3790    1.4627    1.8185 H       1  UNL1        0.0264
     35 H           8.2679   -0.0781    1.4120 H       1  UNL1        0.0264
     36 H           7.6845    2.3014   -0.4298 H       1  UNL1        0.0298
     37 H           8.6279    0.8441   -0.9164 H       1  UNL1        0.0298
     38 H           6.2281    0.6338   -1.5799 H       1  UNL1        0.0696
     39 H           6.6217   -0.5591   -0.2570 H       1  UNL1        0.0696
     40 H           4.5179   -0.8668   -1.2456 H       1  UNL1        0.0654
     41 H           2.1336   -1.6185   -1.2463 H       1  UNL1        0.0625
     42 H           0.2253   -1.1786   -1.8318 H       1  UNL1        0.0624
     43 H          -2.1362   -1.9654   -1.8765 H       1  UNL1        0.0637
     44 H          -5.6112    1.0994    0.2093 H       1  UNL1        0.0565
     45 H          -4.3540    0.2488    1.2680 H       1  UNL1        0.0565
     46 H          -7.0233   -2.0467    0.8436 H       1  UNL1        0.1822
     47 H          -8.6729   -2.3187    2.2799 H       1  UNL1        0.2414
     48 H          -4.0967    0.9692   -1.1466 H       1  UNL1        0.0611
     49 H          -5.2980    1.9525   -3.5303 H       1  UNL1        0.0255
     50 H          -6.6725    1.2147   -2.6755 H       1  UNL1        0.0255
     51 H          -5.6377    2.5145   -1.8856 H       1  UNL1        0.0255
     52 H          -3.8559   -1.0049   -3.2484 H       1  UNL1        0.0255
     53 H          -2.7415    0.3999   -2.8830 H       1  UNL1        0.0255
     54 H          -4.0951    0.5681   -4.0146 H       1  UNL1        0.0255
     55 H          -2.5207   -1.1012    2.2033 H       1  UNL1        0.0637
     56 H          -0.1722   -0.3120    2.2803 H       1  UNL1        0.0624
     57 H           1.2785    1.2250    1.7560 H       1  UNL1        0.0625
     58 H           3.6363    2.0012    1.7878 H       1  UNL1        0.0654
@<TRIPOS>BOND
     1     1     2    1
     2     2     3    1
     3     3     4    1
     4     4     5    1
     5     5     6    1
     6     6     7   ar
     7     7     8   ar
     8     8     9   ar
     9     9    10    1
    10    10    11   ar
    11    11    12   ar
    12    12    13   ar
    13    13    14    1
    14    14    15    2
    15    14    16    2
    16    14    17    1
    17    17    18    1
    18    18    19    1
    19    19    20    2
    20    19    21   am
    21    21    22    1
    22    17    23    1
    23    23    24    1
    24    24    25    1
    25    24    26    1
    26    13    27   ar
    27    27    28   ar
    28     9    29   ar
    29    29    30   ar
    30    30     6   ar
    31    28    10   ar
    32     1    31    1
    33     1    32    1
    34     1    33    1
    35     2    34    1
    36     2    35    1
    37     3    36    1
    38     3    37    1
    39     4    38    1
    40     4    39    1
    41     7    40    1
    42     8    41    1
    43    11    42    1
    44    12    43    1
    45    18    44    1
    46    18    45    1
    47    21    46    1
    48    22    47    1
    49    24    48    1
    50    25    49    1
    51    25    50    1
    52    25    51    1
    53    26    52    1
    54    26    53    1
    55    26    54    1
    56    27    55    1
    57    28    56    1
    58    29    57    1
    59    30    58    1
