
     RDKit          3D

 58 59  0  0  0  0  0  0  0  0999 V2000
    9.4862    1.6890    1.5646 C   0  0  0  0  0  0  0  0  0  0  0  0
    8.1828    1.0033    1.2144 C   0  0  0  0  0  0  0  0  0  0  0  0
    7.8314    1.2169   -0.2439 C   0  0  0  0  0  0  0  0  0  0  0  0
    6.5388    0.5174   -0.5253 C   0  0  0  0  0  0  0  0  0  0  0  0
    5.5238    1.0522    0.2990 O   0  0  0  0  0  0  0  0  0  0  0  0
    4.2127    0.5960    0.2576 C   0  0  0  0  0  0  0  0  0  0  0  0
    3.7981   -0.4049   -0.5816 C   0  0  0  0  0  0  0  0  0  0  0  0
    2.4655   -0.8268   -0.5835 C   0  0  0  0  0  0  0  0  0  0  0  0
    1.5710   -0.2221    0.2713 C   0  0  0  0  0  0  0  0  0  0  0  0
    0.1867   -0.6884    0.2406 C   0  0  0  0  0  0  0  0  0  0  0  0
   -0.3746   -1.1566   -0.9301 C   0  0  0  0  0  0  0  0  0  0  0  0
   -1.6824   -1.5933   -0.9606 C   0  0  0  0  0  0  0  0  0  0  0  0
   -2.4911   -1.5879    0.1563 C   0  0  0  0  0  0  0  0  0  0  0  0
   -4.1396   -2.1427    0.0784 S   0  0  0  0  0  6  0  0  0  0  0  0
   -4.4587   -2.8141    1.3954 O   0  0  0  0  0  0  0  0  0  0  0  0
   -4.2876   -3.2155   -0.9812 O   0  0  0  0  0  0  0  0  0  0  0  0
   -5.2488   -0.9083   -0.2731 N   0  0  0  0  0  0  0  0  0  0  0  0
   -5.3066    0.1398    0.6800 C   0  0  0  0  0  0  0  0  0  0  0  0
   -6.3629   -0.1661    1.6811 C   0  0  0  0  0  0  0  0  0  0  0  0
   -6.6007    0.6215    2.6444 O   0  0  0  0  0  0  0  0  0  0  0  0
   -7.1503   -1.3482    1.6042 N   0  0  0  0  0  0  0  0  0  0  0  0
   -8.1087   -1.5724    2.5599 O   0  0  0  0  0  0  0  0  0  0  0  0
   -5.4214   -0.5864   -1.5320 O   0  0  0  0  0  0  0  0  0  0  0  0
   -4.7179    0.5350   -1.9587 C   0  0  0  0  0  0  0  0  0  0  0  0
   -5.6391    1.5935   -2.5266 C   0  0  0  0  0  0  0  0  0  0  0  0
   -3.7915    0.0906   -3.0645 C   0  0  0  0  0  0  0  0  0  0  0  0
   -1.9071   -1.1140    1.3206 C   0  0  0  0  0  0  0  0  0  0  0  0
   -0.6108   -0.6765    1.3696 C   0  0  0  0  0  0  0  0  0  0  0  0
    2.0025    0.7728    1.0997 C   0  0  0  0  0  0  0  0  0  0  0  0
    3.3164    1.1986    1.1111 C   0  0  0  0  0  0  0  0  0  0  0  0
   10.2909    0.9317    1.7076 H   0  0  0  0  0  0  0  0  0  0  0  0
    9.3786    2.2599    2.5175 H   0  0  0  0  0  0  0  0  0  0  0  0
    9.8011    2.4206    0.7891 H   0  0  0  0  0  0  0  0  0  0  0  0
    7.3790    1.4627    1.8185 H   0  0  0  0  0  0  0  0  0  0  0  0
    8.2679   -0.0781    1.4120 H   0  0  0  0  0  0  0  0  0  0  0  0
    7.6845    2.3014   -0.4298 H   0  0  0  0  0  0  0  0  0  0  0  0
    8.6279    0.8441   -0.9164 H   0  0  0  0  0  0  0  0  0  0  0  0
    6.2281    0.6338   -1.5799 H   0  0  0  0  0  0  0  0  0  0  0  0
    6.6217   -0.5591   -0.2570 H   0  0  0  0  0  0  0  0  0  0  0  0
    4.5179   -0.8668   -1.2456 H   0  0  0  0  0  0  0  0  0  0  0  0
    2.1336   -1.6185   -1.2463 H   0  0  0  0  0  0  0  0  0  0  0  0
    0.2253   -1.1786   -1.8318 H   0  0  0  0  0  0  0  0  0  0  0  0
   -2.1362   -1.9654   -1.8765 H   0  0  0  0  0  0  0  0  0  0  0  0
   -5.6112    1.0994    0.2093 H   0  0  0  0  0  0  0  0  0  0  0  0
   -4.3540    0.2488    1.2680 H   0  0  0  0  0  0  0  0  0  0  0  0
   -7.0233   -2.0467    0.8436 H   0  0  0  0  0  0  0  0  0  0  0  0
   -8.6729   -2.3187    2.2799 H   0  0  0  0  0  0  0  0  0  0  0  0
   -4.0967    0.9692   -1.1466 H   0  0  0  0  0  0  0  0  0  0  0  0
   -5.2980    1.9525   -3.5303 H   0  0  0  0  0  0  0  0  0  0  0  0
   -6.6725    1.2147   -2.6755 H   0  0  0  0  0  0  0  0  0  0  0  0
   -5.6377    2.5145   -1.8856 H   0  0  0  0  0  0  0  0  0  0  0  0
   -3.8559   -1.0049   -3.2484 H   0  0  0  0  0  0  0  0  0  0  0  0
   -2.7415    0.3999   -2.8830 H   0  0  0  0  0  0  0  0  0  0  0  0
   -4.0951    0.5681   -4.0146 H   0  0  0  0  0  0  0  0  0  0  0  0
   -2.5207   -1.1012    2.2033 H   0  0  0  0  0  0  0  0  0  0  0  0
   -0.1722   -0.3120    2.2803 H   0  0  0  0  0  0  0  0  0  0  0  0
    1.2785    1.2250    1.7560 H   0  0  0  0  0  0  0  0  0  0  0  0
    3.6363    2.0012    1.7878 H   0  0  0  0  0  0  0  0  0  0  0  0
  1  2  1  0
  2  3  1  0
  3  4  1  0
  4  5  1  0
  5  6  1  0
  6  7  2  0
  7  8  1  0
  8  9  2  0
  9 10  1  0
 10 11  2  0
 11 12  1  0
 12 13  2  0
 13 14  1  0
 14 15  2  0
 14 16  2  0
 14 17  1  0
 17 18  1  0
 18 19  1  0
 19 20  2  0
 19 21  1  0
 21 22  1  0
 17 23  1  0
 23 24  1  0
 24 25  1  0
 24 26  1  0
 13 27  1  0
 27 28  2  0
  9 29  1  0
 29 30  2  0
 30  6  1  0
 28 10  1  0
  1 31  1  0
  1 32  1  0
  1 33  1  0
  2 34  1  0
  2 35  1  0
  3 36  1  0
  3 37  1  0
  4 38  1  0
  4 39  1  0
  7 40  1  0
  8 41  1  0
 11 42  1  0
 12 43  1  0
 18 44  1  0
 18 45  1  0
 21 46  1  0
 22 47  1  0
 24 48  1  0
 25 49  1  0
 25 50  1  0
 25 51  1  0
 26 52  1  0
 26 53  1  0
 26 54  1  0
 27 55  1  0
 28 56  1  0
 29 57  1  0
 30 58  1  0
M  END
$$$$
