
     RDKit          3D

 70 73  0  0  0  0  0  0  0  0999 V2000
    7.5178   -3.3599   -0.1572 C   0  0  0  0  0  0  0  0  0  0  0  0
    6.8605   -2.2426   -0.8083 N   0  0  0  0  0  0  0  0  0  0  0  0
    6.0478   -2.7183   -1.8966 C   0  0  0  0  0  0  0  0  0  0  0  0
    4.8581   -1.7937   -2.1555 C   0  0  0  0  0  0  0  0  0  0  0  0
    3.9168   -1.9390   -0.9771 C   0  0  0  0  0  0  0  0  0  0  0  0
    3.1979   -0.7198   -0.7103 N   0  0  0  0  0  0  0  0  0  0  0  0
    1.7750   -0.7381   -0.7533 C   0  0  0  0  0  0  0  0  0  0  0  0
    1.2068   -1.8257   -1.0245 O   0  0  0  0  0  0  0  0  0  0  0  0
    0.9867    0.4443   -0.4968 C   0  0  0  0  0  0  0  0  0  0  0  0
    1.6029    1.6597   -0.1835 C   0  0  0  0  0  0  0  0  0  0  0  0
    0.8598    2.7445    0.0547 N   0  0  0  0  0  0  0  0  0  0  0  0
   -0.4736    2.7537    0.0144 C   0  0  0  0  0  0  0  0  0  0  0  0
   -1.2761    3.9058    0.2663 N   0  0  0  0  0  0  0  0  0  0  0  0
   -0.8145    5.1868    0.5383 C   0  0  0  0  0  0  0  0  0  0  0  0
   -1.7575    6.1352    0.9952 C   0  0  0  0  0  0  0  0  0  0  0  0
   -1.3815    7.4208    1.2733 C   0  0  0  0  0  0  0  0  0  0  0  0
   -2.5651    8.6025    1.8441 Cl  0  0  0  0  0  0  0  0  0  0  0  0
   -0.0623    7.8085    1.1083 C   0  0  0  0  0  0  0  0  0  0  0  0
    0.8866    6.9150    0.6653 C   0  0  0  0  0  0  0  0  0  0  0  0
    2.5568    7.3912    0.4528 Cl  0  0  0  0  0  0  0  0  0  0  0  0
    0.4876    5.5949    0.3822 C   0  0  0  0  0  0  0  0  0  0  0  0
   -1.0504    1.5770   -0.2883 N   0  0  0  0  0  0  0  0  0  0  0  0
   -0.3778    0.4169   -0.5470 C   0  0  0  0  0  0  0  0  0  0  0  0
   -1.1748   -0.7156   -0.8516 N   0  0  0  0  0  0  0  0  0  0  0  0
   -2.6293   -0.5685   -0.8508 C   0  0  0  0  0  0  0  0  0  0  0  0
   -3.2858   -1.8783   -1.2163 C   0  0  0  0  0  0  0  0  0  0  0  0
   -4.7711   -1.6586   -1.1350 C   0  0  0  0  0  0  0  0  0  0  0  0
   -5.2419   -1.3058    0.2456 C   0  0  0  0  0  0  0  0  0  0  0  0
   -5.8471   -2.4762    0.8510 N   0  0  0  0  0  0  0  0  0  0  0  0
   -4.9828   -3.5909    0.9695 C   0  0  0  0  0  0  0  0  0  0  0  0
   -6.4508   -2.1666    2.1338 C   0  0  0  0  0  0  0  0  0  0  0  0
   -4.2219   -0.6877    1.1247 C   0  0  0  0  0  0  0  0  0  0  0  0
   -3.0705   -0.0283    0.4486 C   0  0  0  0  0  0  0  0  0  0  0  0
    4.7268   -2.2459    0.2798 C   0  0  0  0  0  0  0  0  0  0  0  0
    6.0547   -1.5613    0.2081 C   0  0  0  0  0  0  0  0  0  0  0  0
    8.4684   -3.6320   -0.6893 H   0  0  0  0  0  0  0  0  0  0  0  0
    7.7441   -3.1240    0.9015 H   0  0  0  0  0  0  0  0  0  0  0  0
    6.8867   -4.2725   -0.1611 H   0  0  0  0  0  0  0  0  0  0  0  0
    5.6279   -3.7150   -1.6704 H   0  0  0  0  0  0  0  0  0  0  0  0
    6.6477   -2.7861   -2.8182 H   0  0  0  0  0  0  0  0  0  0  0  0
    4.3431   -2.2159   -3.0547 H   0  0  0  0  0  0  0  0  0  0  0  0
    5.1573   -0.7632   -2.3525 H   0  0  0  0  0  0  0  0  0  0  0  0
    3.1910   -2.7446   -1.1871 H   0  0  0  0  0  0  0  0  0  0  0  0
    3.7288    0.1278   -0.4968 H   0  0  0  0  0  0  0  0  0  0  0  0
    2.6877    1.6941   -0.1405 H   0  0  0  0  0  0  0  0  0  0  0  0
   -2.3265    3.7610    0.2386 H   0  0  0  0  0  0  0  0  0  0  0  0
   -2.8051    5.8560    1.1344 H   0  0  0  0  0  0  0  0  0  0  0  0
    0.1801    8.8336    1.3419 H   0  0  0  0  0  0  0  0  0  0  0  0
    1.2386    4.9087    0.0276 H   0  0  0  0  0  0  0  0  0  0  0  0
   -0.7878   -1.6237   -1.0715 H   0  0  0  0  0  0  0  0  0  0  0  0
   -2.9321    0.1422   -1.6716 H   0  0  0  0  0  0  0  0  0  0  0  0
   -2.9106   -2.7437   -0.6779 H   0  0  0  0  0  0  0  0  0  0  0  0
   -3.0540   -2.0442   -2.3059 H   0  0  0  0  0  0  0  0  0  0  0  0
   -5.2611   -2.5817   -1.5092 H   0  0  0  0  0  0  0  0  0  0  0  0
   -5.0197   -0.8606   -1.8782 H   0  0  0  0  0  0  0  0  0  0  0  0
   -6.0907   -0.5817    0.1045 H   0  0  0  0  0  0  0  0  0  0  0  0
   -5.5110   -4.3755    1.5573 H   0  0  0  0  0  0  0  0  0  0  0  0
   -4.8530   -4.0283   -0.0634 H   0  0  0  0  0  0  0  0  0  0  0  0
   -3.9867   -3.4168    1.3570 H   0  0  0  0  0  0  0  0  0  0  0  0
   -5.7383   -1.6958    2.8323 H   0  0  0  0  0  0  0  0  0  0  0  0
   -6.7090   -3.1612    2.5992 H   0  0  0  0  0  0  0  0  0  0  0  0
   -7.3865   -1.5998    2.0472 H   0  0  0  0  0  0  0  0  0  0  0  0
   -4.7188    0.0914    1.7674 H   0  0  0  0  0  0  0  0  0  0  0  0
   -3.8614   -1.4465    1.8498 H   0  0  0  0  0  0  0  0  0  0  0  0
   -3.2831    1.0737    0.3101 H   0  0  0  0  0  0  0  0  0  0  0  0
   -2.1982   -0.0312    1.1542 H   0  0  0  0  0  0  0  0  0  0  0  0
    4.1973   -1.8476    1.1883 H   0  0  0  0  0  0  0  0  0  0  0  0
    4.7749   -3.3332    0.3759 H   0  0  0  0  0  0  0  0  0  0  0  0
    5.8943   -0.5006   -0.0402 H   0  0  0  0  0  0  0  0  0  0  0  0
    6.5576   -1.6989    1.1975 H   0  0  0  0  0  0  0  0  0  0  0  0
  1  2  1  0
  2  3  1  0
  3  4  1  0
  4  5  1  0
  5  6  1  0
  6  7  1  0
  7  8  2  0
  7  9  1  0
  9 10  2  0
 10 11  1  0
 11 12  2  0
 12 13  1  0
 13 14  1  0
 14 15  2  0
 15 16  1  0
 16 17  1  0
 16 18  2  0
 18 19  1  0
 19 20  1  0
 19 21  2  0
 12 22  1  0
 22 23  2  0
 23 24  1  0
 24 25  1  0
 25 26  1  0
 26 27  1  0
 27 28  1  0
 28 29  1  0
 29 30  1  0
 29 31  1  0
 28 32  1  0
 32 33  1  0
  5 34  1  0
 34 35  1  0
 35  2  1  0
 23  9  1  0
 33 25  1  0
 21 14  1  0
  1 36  1  0
  1 37  1  0
  1 38  1  0
  3 39  1  0
  3 40  1  0
  4 41  1  0
  4 42  1  0
  5 43  1  0
  6 44  1  0
 10 45  1  0
 13 46  1  0
 15 47  1  0
 18 48  1  0
 21 49  1  0
 24 50  1  0
 25 51  1  0
 26 52  1  0
 26 53  1  0
 27 54  1  0
 27 55  1  0
 28 56  1  0
 30 57  1  0
 30 58  1  0
 30 59  1  0
 31 60  1  0
 31 61  1  0
 31 62  1  0
 32 63  1  0
 32 64  1  0
 33 65  1  0
 33 66  1  0
 34 67  1  0
 34 68  1  0
 35 69  1  0
 35 70  1  0
M  END
$$$$
