@<TRIPOS>MOLECULE
*****
 70 73 0 0 0
SMALL
GASTEIGER

@<TRIPOS>ATOM
      1 C           7.5178   -3.3599   -0.1572 C.3     1  UNL1       -0.0128
      2 N           6.8605   -2.2426   -0.8083 N.3     1  UNL1       -0.3052
      3 C           6.0478   -2.7183   -1.8966 C.3     1  UNL1        0.0003
      4 C           4.8581   -1.7937   -2.1555 C.3     1  UNL1       -0.0216
      5 C           3.9168   -1.9390   -0.9771 C.3     1  UNL1        0.0257
      6 N           3.1979   -0.7198   -0.7103 N.am    1  UNL1       -0.3083
      7 C           1.7750   -0.7381   -0.7533 C.2     1  UNL1        0.2491
      8 O           1.2068   -1.8257   -1.0245 O.2     1  UNL1       -0.2700
      9 C           0.9867    0.4443   -0.4968 C.ar    1  UNL1        0.0945
     10 C           1.6029    1.6597   -0.1835 C.ar    1  UNL1        0.0466
     11 N           0.8598    2.7445    0.0547 N.ar    1  UNL1       -0.2218
     12 C          -0.4736    2.7537    0.0144 C.ar    1  UNL1        0.2212
     13 N          -1.2761    3.9058    0.2663 N.pl3   1  UNL1       -0.2835
     14 C          -0.8145    5.1868    0.5383 C.ar    1  UNL1        0.0363
     15 C          -1.7575    6.1352    0.9952 C.ar    1  UNL1       -0.0220
     16 C          -1.3815    7.4208    1.2733 C.ar    1  UNL1        0.0441
     17 CL         -2.5651    8.6025    1.8441 Cl      1  UNL1       -0.0834
     18 C          -0.0623    7.8085    1.1083 C.ar    1  UNL1       -0.0249
     19 C           0.8866    6.9150    0.6653 C.ar    1  UNL1        0.0441
     20 CL          2.5568    7.3912    0.4528 Cl      1  UNL1       -0.0834
     21 C           0.4876    5.5949    0.3822 C.ar    1  UNL1       -0.0220
     22 N          -1.0504    1.5770   -0.2883 N.ar    1  UNL1       -0.1987
     23 C          -0.3778    0.4169   -0.5470 C.ar    1  UNL1        0.1363
     24 N          -1.1748   -0.7156   -0.8516 N.pl3   1  UNL1       -0.3255
     25 C          -2.6293   -0.5685   -0.8508 C.3     1  UNL1        0.0221
     26 C          -3.2858   -1.8783   -1.2163 C.3     1  UNL1       -0.0331
     27 C          -4.7711   -1.6586   -1.1350 C.3     1  UNL1       -0.0357
     28 C          -5.2419   -1.3058    0.2456 C.3     1  UNL1        0.0100
     29 N          -5.8471   -2.4762    0.8510 N.3     1  UNL1       -0.3054
     30 C          -4.9828   -3.5909    0.9695 C.3     1  UNL1       -0.0128
     31 C          -6.4508   -2.1666    2.1338 C.3     1  UNL1       -0.0128
     32 C          -4.2219   -0.6877    1.1247 C.3     1  UNL1       -0.0357
     33 C          -3.0705   -0.0283    0.4486 C.3     1  UNL1       -0.0331
     34 C           4.7268   -2.2459    0.2798 C.3     1  UNL1       -0.0216
     35 C           6.0547   -1.5613    0.2081 C.3     1  UNL1        0.0003
     36 H           8.4684   -3.6320   -0.6893 H       1  UNL1        0.0391
     37 H           7.7441   -3.1240    0.9015 H       1  UNL1        0.0391
     38 H           6.8867   -4.2725   -0.1611 H       1  UNL1        0.0391
     39 H           5.6279   -3.7150   -1.6704 H       1  UNL1        0.0427
     40 H           6.6477   -2.7861   -2.8182 H       1  UNL1        0.0427
     41 H           4.3431   -2.2159   -3.0547 H       1  UNL1        0.0295
     42 H           5.1573   -0.7632   -2.3525 H       1  UNL1        0.0295
     43 H           3.1910   -2.7446   -1.1871 H       1  UNL1        0.0499
     44 H           3.7288    0.1278   -0.4968 H       1  UNL1        0.1493
     45 H           2.6877    1.6941   -0.1405 H       1  UNL1        0.0839
     46 H          -2.3265    3.7610    0.2386 H       1  UNL1        0.1550
     47 H          -2.8051    5.8560    1.1344 H       1  UNL1        0.0651
     48 H           0.1801    8.8336    1.3419 H       1  UNL1        0.0647
     49 H           1.2386    4.9087    0.0276 H       1  UNL1        0.0651
     50 H          -0.7878   -1.6237   -1.0715 H       1  UNL1        0.1478
     51 H          -2.9321    0.1422   -1.6716 H       1  UNL1        0.0498
     52 H          -2.9106   -2.7437   -0.6779 H       1  UNL1        0.0284
     53 H          -3.0540   -2.0442   -2.3059 H       1  UNL1        0.0284
     54 H          -5.2611   -2.5817   -1.5092 H       1  UNL1        0.0281
     55 H          -5.0197   -0.8606   -1.8782 H       1  UNL1        0.0281
     56 H          -6.0907   -0.5817    0.1045 H       1  UNL1        0.0462
     57 H          -5.5110   -4.3755    1.5573 H       1  UNL1        0.0391
     58 H          -4.8530   -4.0283   -0.0634 H       1  UNL1        0.0391
     59 H          -3.9867   -3.4168    1.3570 H       1  UNL1        0.0391
     60 H          -5.7383   -1.6958    2.8323 H       1  UNL1        0.0391
     61 H          -6.7090   -3.1612    2.5992 H       1  UNL1        0.0391
     62 H          -7.3865   -1.5998    2.0472 H       1  UNL1        0.0391
     63 H          -4.7188    0.0914    1.7674 H       1  UNL1        0.0281
     64 H          -3.8614   -1.4465    1.8498 H       1  UNL1        0.0281
     65 H          -3.2831    1.0737    0.3101 H       1  UNL1        0.0284
     66 H          -2.1982   -0.0312    1.1542 H       1  UNL1        0.0284
     67 H           4.1973   -1.8476    1.1883 H       1  UNL1        0.0295
     68 H           4.7749   -3.3332    0.3759 H       1  UNL1        0.0295
     69 H           5.8943   -0.5006   -0.0402 H       1  UNL1        0.0427
     70 H           6.5576   -1.6989    1.1975 H       1  UNL1        0.0427
@<TRIPOS>BOND
     1     1     2    1
     2     2     3    1
     3     3     4    1
     4     4     5    1
     5     5     6    1
     6     6     7   am
     7     7     8    2
     8     7     9    1
     9     9    10   ar
    10    10    11   ar
    11    11    12   ar
    12    12    13    1
    13    13    14    1
    14    14    15   ar
    15    15    16   ar
    16    16    17    1
    17    16    18   ar
    18    18    19   ar
    19    19    20    1
    20    19    21   ar
    21    12    22   ar
    22    22    23   ar
    23    23    24    1
    24    24    25    1
    25    25    26    1
    26    26    27    1
    27    27    28    1
    28    28    29    1
    29    29    30    1
    30    29    31    1
    31    28    32    1
    32    32    33    1
    33     5    34    1
    34    34    35    1
    35    35     2    1
    36    23     9   ar
    37    33    25    1
    38    21    14   ar
    39     1    36    1
    40     1    37    1
    41     1    38    1
    42     3    39    1
    43     3    40    1
    44     4    41    1
    45     4    42    1
    46     5    43    1
    47     6    44    1
    48    10    45    1
    49    13    46    1
    50    15    47    1
    51    18    48    1
    52    21    49    1
    53    24    50    1
    54    25    51    1
    55    26    52    1
    56    26    53    1
    57    27    54    1
    58    27    55    1
    59    28    56    1
    60    30    57    1
    61    30    58    1
    62    30    59    1
    63    31    60    1
    64    31    61    1
    65    31    62    1
    66    32    63    1
    67    32    64    1
    68    33    65    1
    69    33    66    1
    70    34    67    1
    71    34    68    1
    72    35    69    1
    73    35    70    1
