
     RDKit          3D

 24 23  0  0  0  0  0  0  0  0999 V2000
   -1.0736   -0.4306   -0.3185 C   0  0  1  0  0  0  0  0  0  0  0  0
   -1.5622    0.9723   -0.3422 C   0  0  0  0  0  0  0  0  0  0  0  0
   -1.6105    1.7059    1.3248 S   0  0  0  0  0  0  0  0  0  0  0  0
    0.2914   -0.7073    0.1829 C   0  0  0  0  0  0  0  0  0  0  0  0
    1.4287   -0.1164   -0.5621 C   0  0  0  0  0  0  0  0  0  0  0  0
    1.5070    1.3577   -0.6643 C   0  0  0  0  0  0  0  0  0  0  0  0
    2.7344   -0.7077    0.0054 C   0  0  0  0  0  0  0  0  0  0  0  0
   -2.0587   -1.3294    0.4080 C   0  0  0  0  0  0  0  0  0  0  0  0
   -3.3514   -1.4742   -0.0295 O   0  0  0  0  0  0  0  0  0  0  0  0
   -1.6964   -1.9657    1.4405 O   0  0  0  0  0  0  0  0  0  0  0  0
   -1.1056   -0.8355   -1.3758 H   0  0  0  0  0  0  0  0  0  0  0  0
   -2.6603    0.9356   -0.6495 H   0  0  0  0  0  0  0  0  0  0  0  0
   -1.0352    1.6140   -1.0386 H   0  0  0  0  0  0  0  0  0  0  0  0
   -2.0805    3.0312    1.2084 H   0  0  0  0  0  0  0  0  0  0  0  0
    0.4000   -1.8367    0.2670 H   0  0  0  0  0  0  0  0  0  0  0  0
    0.3754   -0.4078    1.2854 H   0  0  0  0  0  0  0  0  0  0  0  0
    1.3849   -0.4998   -1.6362 H   0  0  0  0  0  0  0  0  0  0  0  0
    1.1911    1.7737   -1.6694 H   0  0  0  0  0  0  0  0  0  0  0  0
    2.6205    1.6564   -0.6641 H   0  0  0  0  0  0  0  0  0  0  0  0
    1.0098    1.9274    0.1377 H   0  0  0  0  0  0  0  0  0  0  0  0
    2.5491   -1.6187    0.5992 H   0  0  0  0  0  0  0  0  0  0  0  0
    3.2372    0.0713    0.6428 H   0  0  0  0  0  0  0  0  0  0  0  0
    3.4424   -0.9265   -0.8184 H   0  0  0  0  0  0  0  0  0  0  0  0
   -3.9379   -2.1891    0.3923 H   0  0  0  0  0  0  0  0  0  0  0  0
  1  2  1  0
  2  3  1  0
  1  4  1  0
  4  5  1  0
  5  6  1  0
  5  7  1  0
  1  8  1  0
  8  9  1  0
  8 10  2  0
  1 11  1  6
  2 12  1  0
  2 13  1  0
  3 14  1  0
  4 15  1  0
  4 16  1  0
  5 17  1  0
  6 18  1  0
  6 19  1  0
  6 20  1  0
  7 21  1  0
  7 22  1  0
  7 23  1  0
  9 24  1  0
M  END
$$$$
