@<TRIPOS>MOLECULE
*****
 24 23 0 0 0
SMALL
GASTEIGER

@<TRIPOS>ATOM
      1 C          -1.0736   -0.4306   -0.3185 C.3     1  UNL1        0.0652
      2 C          -1.5622    0.9723   -0.3422 C.3     1  UNL1        0.0036
      3 S          -1.6105    1.7059    1.3248 S.3     1  UNL1       -0.1774
      4 C           0.2914   -0.7073    0.1829 C.3     1  UNL1       -0.0370
      5 C           1.4287   -0.1164   -0.5621 C.3     1  UNL1       -0.0459
      6 C           1.5070    1.3577   -0.6643 C.3     1  UNL1       -0.0626
      7 C           2.7344   -0.7077    0.0054 C.3     1  UNL1       -0.0626
      8 C          -2.0587   -1.3294    0.4080 C.2     1  UNL1        0.3086
      9 O          -3.3514   -1.4742   -0.0295 O.3     1  UNL1       -0.4804
     10 O          -1.6964   -1.9657    1.4405 O.2     1  UNL1       -0.2507
     11 H          -1.1056   -0.8355   -1.3758 H       1  UNL1        0.0421
     12 H          -2.6603    0.9356   -0.6495 H       1  UNL1        0.0382
     13 H          -1.0352    1.6140   -1.0386 H       1  UNL1        0.0382
     14 H          -2.0805    3.0312    1.2084 H       1  UNL1        0.1017
     15 H           0.4000   -1.8367    0.2670 H       1  UNL1        0.0276
     16 H           0.3754   -0.4078    1.2854 H       1  UNL1        0.0276
     17 H           1.3849   -0.4998   -1.6362 H       1  UNL1        0.0296
     18 H           1.1911    1.7737   -1.6694 H       1  UNL1        0.0232
     19 H           2.6205    1.6564   -0.6641 H       1  UNL1        0.0232
     20 H           1.0098    1.9274    0.1377 H       1  UNL1        0.0232
     21 H           2.5491   -1.6187    0.5992 H       1  UNL1        0.0232
     22 H           3.2372    0.0713    0.6428 H       1  UNL1        0.0232
     23 H           3.4424   -0.9265   -0.8184 H       1  UNL1        0.0232
     24 H          -3.9379   -2.1891    0.3923 H       1  UNL1        0.2951
@<TRIPOS>BOND
     1     1     2    1
     2     2     3    1
     3     1     4    1
     4     4     5    1
     5     5     6    1
     6     5     7    1
     7     1     8    1
     8     8     9    1
     9     8    10    2
    10     1    11    1
    11     2    12    1
    12     2    13    1
    13     3    14    1
    14     4    15    1
    15     4    16    1
    16     5    17    1
    17     6    18    1
    18     6    19    1
    19     6    20    1
    20     7    21    1
    21     7    22    1
    22     7    23    1
    23     9    24    1
