@<TRIPOS>MOLECULE
*****
 52 55 0 0 0
SMALL
GASTEIGER

@<TRIPOS>ATOM
      1 N           0.3474   -4.5766    4.1764 N.1     1  UNL1       -0.1838
      2 C          -0.1150   -4.5308    3.0648 C.1     1  UNL1        0.1330
      3 S          -0.7432   -4.4718    1.4784 S.3     1  UNL1       -0.0440
      4 C          -1.8659   -3.0541    1.3005 C.3     1  UNL1        0.0341
      5 C          -1.1021   -1.7625    1.4229 C.3     1  UNL1        0.0723
      6 C          -1.9235   -0.5275    1.2994 C.3     1  UNL1        0.0080
      7 C          -1.5028    0.4592    0.2759 C.3     1  UNL1        0.1027
      8 O          -1.8679    1.7394    0.7929 O.3     1  UNL1       -0.3832
      9 C          -2.1352    0.3858   -1.0300 C.ar    1  UNL1       -0.0154
     10 C          -1.7854    1.2746   -2.0178 C.ar    1  UNL1       -0.0558
     11 C          -2.3478    1.2559   -3.2747 C.ar    1  UNL1       -0.0614
     12 C          -3.3044    0.3163   -3.5817 C.ar    1  UNL1       -0.0617
     13 C          -3.6707   -0.5830   -2.6104 C.ar    1  UNL1       -0.0614
     14 C          -3.0806   -0.5388   -1.3404 C.ar    1  UNL1       -0.0558
     15 C           0.0082    0.5291    0.1474 C.3     1  UNL1        0.0475
     16 C           0.5801    1.7698    0.7188 C.ar    1  UNL1       -0.0384
     17 C           0.5204    2.0706    2.0741 C.ar    1  UNL1       -0.0581
     18 C           1.0541    3.2300    2.6029 C.ar    1  UNL1       -0.0615
     19 C           1.6774    4.1459    1.7814 C.ar    1  UNL1       -0.0617
     20 C           1.7491    3.8717    0.4388 C.ar    1  UNL1       -0.0615
     21 C           1.2210    2.7292   -0.0692 C.ar    1  UNL1       -0.0581
     22 C           0.7333   -0.6616    0.6832 C.3     1  UNL1        0.0937
     23 C           1.9843   -0.9269   -0.0950 C.ar    1  UNL1       -0.0180
     24 C           3.2347   -0.7255    0.4255 C.ar    1  UNL1       -0.0534
     25 C           4.3599   -0.9892   -0.3453 C.ar    1  UNL1       -0.0261
     26 C           4.2479   -1.4567   -1.6440 C.ar    1  UNL1        0.1234
     27 F           5.3240   -1.7240   -2.4214 F       1  UNL1       -0.2055
     28 C           2.9906   -1.6614   -2.1734 C.ar    1  UNL1       -0.0261
     29 C           1.9022   -1.3947   -1.3952 C.ar    1  UNL1       -0.0534
     30 O          -0.0905   -1.7743    0.4677 O.3     1  UNL1       -0.3671
     31 H          -2.2913   -3.1560    0.2583 H       1  UNL1        0.0412
     32 H          -2.7373   -3.1075    1.9802 H       1  UNL1        0.0412
     33 H          -0.5523   -1.8423    2.4094 H       1  UNL1        0.0606
     34 H          -3.0005   -0.7705    1.2648 H       1  UNL1        0.0322
     35 H          -1.8311   -0.0128    2.3108 H       1  UNL1        0.0322
     36 H          -1.6675    2.3913    0.0624 H       1  UNL1        0.2106
     37 H          -1.0299    2.0589   -1.8610 H       1  UNL1        0.0621
     38 H          -2.0728    1.9553   -4.0496 H       1  UNL1        0.0618
     39 H          -3.7691    0.2838   -4.5854 H       1  UNL1        0.0618
     40 H          -4.4212   -1.3156   -2.8644 H       1  UNL1        0.0618
     41 H          -3.3998   -1.2504   -0.6342 H       1  UNL1        0.0621
     42 H           0.2623    0.5633   -0.9572 H       1  UNL1        0.0409
     43 H           0.0513    1.3956    2.7493 H       1  UNL1        0.0620
     44 H           1.0029    3.4578    3.6671 H       1  UNL1        0.0618
     45 H           2.0987    5.0563    2.1858 H       1  UNL1        0.0618
     46 H           2.2457    4.6089   -0.1985 H       1  UNL1        0.0618
     47 H           1.3045    2.5576   -1.1420 H       1  UNL1        0.0620
     48 H           0.9855   -0.5178    1.7504 H       1  UNL1        0.0653
     49 H           3.3211   -0.3573    1.4476 H       1  UNL1        0.0622
     50 H           5.3593   -0.8385    0.0429 H       1  UNL1        0.0646
     51 H           2.8234   -2.0237   -3.1771 H       1  UNL1        0.0646
     52 H           0.9184   -1.5544   -1.8121 H       1  UNL1        0.0622
@<TRIPOS>BOND
     1     1     2    3
     2     2     3    1
     3     3     4    1
     4     4     5    1
     5     5     6    1
     6     6     7    1
     7     7     8    1
     8     7     9    1
     9     9    10   ar
    10    10    11   ar
    11    11    12   ar
    12    12    13   ar
    13    13    14   ar
    14     7    15    1
    15    15    16    1
    16    16    17   ar
    17    17    18   ar
    18    18    19   ar
    19    19    20   ar
    20    20    21   ar
    21    15    22    1
    22    22    23    1
    23    23    24   ar
    24    24    25   ar
    25    25    26   ar
    26    26    27    1
    27    26    28   ar
    28    28    29   ar
    29    22    30    1
    30    30     5    1
    31    14     9   ar
    32    21    16   ar
    33    29    23   ar
    34     4    31    1
    35     4    32    1
    36     5    33    1
    37     6    34    1
    38     6    35    1
    39     8    36    1
    40    10    37    1
    41    11    38    1
    42    12    39    1
    43    13    40    1
    44    14    41    1
    45    15    42    1
    46    17    43    1
    47    18    44    1
    48    19    45    1
    49    20    46    1
    50    21    47    1
    51    22    48    1
    52    24    49    1
    53    25    50    1
    54    28    51    1
    55    29    52    1
