
     RDKit          3D

 52 55  0  0  0  0  0  0  0  0999 V2000
    0.3474   -4.5766    4.1764 N   0  0  0  0  0  0  0  0  0  0  0  0
   -0.1150   -4.5308    3.0648 C   0  0  0  0  0  0  0  0  0  0  0  0
   -0.7432   -4.4718    1.4784 S   0  0  0  0  0  0  0  0  0  0  0  0
   -1.8659   -3.0541    1.3005 C   0  0  0  0  0  0  0  0  0  0  0  0
   -1.1021   -1.7625    1.4229 C   0  0  2  0  0  0  0  0  0  0  0  0
   -1.9235   -0.5275    1.2994 C   0  0  0  0  0  0  0  0  0  0  0  0
   -1.5028    0.4592    0.2759 C   0  0  2  0  0  0  0  0  0  0  0  0
   -1.8679    1.7394    0.7929 O   0  0  0  0  0  0  0  0  0  0  0  0
   -2.1352    0.3858   -1.0300 C   0  0  0  0  0  0  0  0  0  0  0  0
   -1.7854    1.2746   -2.0178 C   0  0  0  0  0  0  0  0  0  0  0  0
   -2.3478    1.2559   -3.2747 C   0  0  0  0  0  0  0  0  0  0  0  0
   -3.3044    0.3163   -3.5817 C   0  0  0  0  0  0  0  0  0  0  0  0
   -3.6707   -0.5830   -2.6104 C   0  0  0  0  0  0  0  0  0  0  0  0
   -3.0806   -0.5388   -1.3404 C   0  0  0  0  0  0  0  0  0  0  0  0
    0.0082    0.5291    0.1474 C   0  0  1  0  0  0  0  0  0  0  0  0
    0.5801    1.7698    0.7188 C   0  0  0  0  0  0  0  0  0  0  0  0
    0.5204    2.0706    2.0741 C   0  0  0  0  0  0  0  0  0  0  0  0
    1.0541    3.2300    2.6029 C   0  0  0  0  0  0  0  0  0  0  0  0
    1.6774    4.1459    1.7814 C   0  0  0  0  0  0  0  0  0  0  0  0
    1.7491    3.8717    0.4388 C   0  0  0  0  0  0  0  0  0  0  0  0
    1.2210    2.7292   -0.0692 C   0  0  0  0  0  0  0  0  0  0  0  0
    0.7333   -0.6616    0.6832 C   0  0  2  0  0  0  0  0  0  0  0  0
    1.9843   -0.9269   -0.0950 C   0  0  0  0  0  0  0  0  0  0  0  0
    3.2347   -0.7255    0.4255 C   0  0  0  0  0  0  0  0  0  0  0  0
    4.3599   -0.9892   -0.3453 C   0  0  0  0  0  0  0  0  0  0  0  0
    4.2479   -1.4567   -1.6440 C   0  0  0  0  0  0  0  0  0  0  0  0
    5.3240   -1.7240   -2.4214 F   0  0  0  0  0  0  0  0  0  0  0  0
    2.9906   -1.6614   -2.1734 C   0  0  0  0  0  0  0  0  0  0  0  0
    1.9022   -1.3947   -1.3952 C   0  0  0  0  0  0  0  0  0  0  0  0
   -0.0905   -1.7743    0.4677 O   0  0  0  0  0  0  0  0  0  0  0  0
   -2.2913   -3.1560    0.2583 H   0  0  0  0  0  0  0  0  0  0  0  0
   -2.7373   -3.1075    1.9802 H   0  0  0  0  0  0  0  0  0  0  0  0
   -0.5523   -1.8423    2.4094 H   0  0  0  0  0  0  0  0  0  0  0  0
   -3.0005   -0.7705    1.2648 H   0  0  0  0  0  0  0  0  0  0  0  0
   -1.8311   -0.0128    2.3108 H   0  0  0  0  0  0  0  0  0  0  0  0
   -1.6675    2.3913    0.0624 H   0  0  0  0  0  0  0  0  0  0  0  0
   -1.0299    2.0589   -1.8610 H   0  0  0  0  0  0  0  0  0  0  0  0
   -2.0728    1.9553   -4.0496 H   0  0  0  0  0  0  0  0  0  0  0  0
   -3.7691    0.2838   -4.5854 H   0  0  0  0  0  0  0  0  0  0  0  0
   -4.4212   -1.3156   -2.8644 H   0  0  0  0  0  0  0  0  0  0  0  0
   -3.3998   -1.2504   -0.6342 H   0  0  0  0  0  0  0  0  0  0  0  0
    0.2623    0.5633   -0.9572 H   0  0  0  0  0  0  0  0  0  0  0  0
    0.0513    1.3956    2.7493 H   0  0  0  0  0  0  0  0  0  0  0  0
    1.0029    3.4578    3.6671 H   0  0  0  0  0  0  0  0  0  0  0  0
    2.0987    5.0563    2.1858 H   0  0  0  0  0  0  0  0  0  0  0  0
    2.2457    4.6089   -0.1985 H   0  0  0  0  0  0  0  0  0  0  0  0
    1.3045    2.5576   -1.1420 H   0  0  0  0  0  0  0  0  0  0  0  0
    0.9855   -0.5178    1.7504 H   0  0  0  0  0  0  0  0  0  0  0  0
    3.3211   -0.3573    1.4476 H   0  0  0  0  0  0  0  0  0  0  0  0
    5.3593   -0.8385    0.0429 H   0  0  0  0  0  0  0  0  0  0  0  0
    2.8234   -2.0237   -3.1771 H   0  0  0  0  0  0  0  0  0  0  0  0
    0.9184   -1.5544   -1.8121 H   0  0  0  0  0  0  0  0  0  0  0  0
  1  2  3  0
  2  3  1  0
  3  4  1  0
  4  5  1  0
  5  6  1  0
  6  7  1  0
  7  8  1  1
  7  9  1  0
  9 10  2  0
 10 11  1  0
 11 12  2  0
 12 13  1  0
 13 14  2  0
  7 15  1  0
 15 16  1  0
 16 17  2  0
 17 18  1  0
 18 19  2  0
 19 20  1  0
 20 21  2  0
 15 22  1  0
 22 23  1  0
 23 24  2  0
 24 25  1  0
 25 26  2  0
 26 27  1  0
 26 28  1  0
 28 29  2  0
 22 30  1  0
 30  5  1  0
 14  9  1  0
 21 16  1  0
 29 23  1  0
  4 31  1  0
  4 32  1  0
  5 33  1  1
  6 34  1  0
  6 35  1  0
  8 36  1  0
 10 37  1  0
 11 38  1  0
 12 39  1  0
 13 40  1  0
 14 41  1  0
 15 42  1  6
 17 43  1  0
 18 44  1  0
 19 45  1  0
 20 46  1  0
 21 47  1  0
 22 48  1  1
 24 49  1  0
 25 50  1  0
 28 51  1  0
 29 52  1  0
M  END
$$$$
