
     RDKit          3D

 38 40  0  0  0  0  0  0  0  0999 V2000
    5.7386    0.1763    1.3195 N   0  0  0  0  0  0  0  0  0  0  0  0
    4.6057   -0.6322    1.4737 C   0  0  0  0  0  0  0  0  0  0  0  0
    4.6277   -1.6504    2.2115 O   0  0  0  0  0  0  0  0  0  0  0  0
    3.3519   -0.3026    0.7671 C   0  0  0  0  0  0  0  0  0  0  0  0
    2.2351   -1.0817    0.9063 C   0  0  0  0  0  0  0  0  0  0  0  0
    1.0653   -0.7517    0.2309 C   0  0  0  0  0  0  0  0  0  0  0  0
    0.9723    0.3566   -0.5971 C   0  0  0  0  0  0  0  0  0  0  0  0
   -0.2127    0.6436   -1.2857 N   0  0  0  0  0  0  0  0  0  0  0  0
   -1.4415   -0.1215   -1.1595 C   0  0  0  0  0  0  0  0  0  0  0  0
   -2.0496    0.2282    0.1634 C   0  0  0  0  0  0  0  0  0  0  0  0
   -3.2941   -0.4717    0.4701 C   0  0  0  0  0  0  0  0  0  0  0  0
   -3.3306   -1.6812    1.1385 C   0  0  0  0  0  0  0  0  0  0  0  0
   -4.5265   -2.2990    1.3997 C   0  0  0  0  0  0  0  0  0  0  0  0
   -5.7398   -1.7328    1.0029 C   0  0  0  0  0  0  0  0  0  0  0  0
   -7.2272   -2.5584    1.3594 Cl  0  0  0  0  0  0  0  0  0  0  0  0
   -5.7166   -0.5261    0.3351 C   0  0  0  0  0  0  0  0  0  0  0  0
   -7.2437    0.1809   -0.1612 Cl  0  0  0  0  0  0  0  0  0  0  0  0
   -4.5003    0.0712    0.0867 C   0  0  0  0  0  0  0  0  0  0  0  0
    2.1130    1.1225   -0.7182 C   0  0  0  0  0  0  0  0  0  0  0  0
    2.1614    2.2379   -1.4979 C   0  0  0  0  0  0  0  0  0  0  0  0
    3.3148    2.9622   -1.5835 N   0  0  0  0  0  0  0  0  0  0  0  0
    4.4349    2.6315   -0.9270 C   0  0  0  0  0  0  0  0  0  0  0  0
    4.4081    1.5355   -0.1529 N   0  0  0  0  0  0  0  0  0  0  0  0
    3.2885    0.7912   -0.0403 C   0  0  0  0  0  0  0  0  0  0  0  0
    6.3716   -0.0187    0.4941 H   0  0  0  0  0  0  0  0  0  0  0  0
    6.0221    0.9546    1.9395 H   0  0  0  0  0  0  0  0  0  0  0  0
    2.2978   -1.9457    1.5488 H   0  0  0  0  0  0  0  0  0  0  0  0
    0.2079   -1.4064    0.3555 H   0  0  0  0  0  0  0  0  0  0  0  0
   -0.2559    1.4511   -1.9434 H   0  0  0  0  0  0  0  0  0  0  0  0
   -2.1103    0.0156   -2.0115 H   0  0  0  0  0  0  0  0  0  0  0  0
   -1.1555   -1.1980   -1.1456 H   0  0  0  0  0  0  0  0  0  0  0  0
   -1.2855    0.2317    0.9498 H   0  0  0  0  0  0  0  0  0  0  0  0
   -2.3348    1.3314    0.0772 H   0  0  0  0  0  0  0  0  0  0  0  0
   -2.3644   -2.0920    1.4323 H   0  0  0  0  0  0  0  0  0  0  0  0
   -4.5511   -3.2419    1.9210 H   0  0  0  0  0  0  0  0  0  0  0  0
   -4.5141    1.0189   -0.4399 H   0  0  0  0  0  0  0  0  0  0  0  0
    1.2866    2.5371   -2.0384 H   0  0  0  0  0  0  0  0  0  0  0  0
    5.3509    3.2339   -1.0145 H   0  0  0  0  0  0  0  0  0  0  0  0
  1  2  1  0
  2  3  2  0
  2  4  1  0
  4  5  2  0
  5  6  1  0
  6  7  2  0
  7  8  1  0
  8  9  1  0
  9 10  1  0
 10 11  1  0
 11 12  2  0
 12 13  1  0
 13 14  2  0
 14 15  1  0
 14 16  1  0
 16 17  1  0
 16 18  2  0
  7 19  1  0
 19 20  2  0
 20 21  1  0
 21 22  2  0
 22 23  1  0
 23 24  2  0
 24  4  1  0
 18 11  1  0
 24 19  1  0
  1 25  1  0
  1 26  1  0
  5 27  1  0
  6 28  1  0
  8 29  1  0
  9 30  1  0
  9 31  1  0
 10 32  1  0
 10 33  1  0
 12 34  1  0
 13 35  1  0
 18 36  1  0
 20 37  1  0
 22 38  1  0
M  END
$$$$
