@<TRIPOS>MOLECULE
*****
 38 40 0 0 0
SMALL
GASTEIGER

@<TRIPOS>ATOM
      1 N           5.7386    0.1763    1.3195 N.am    1  UNL1       -0.3253
      2 C           4.6057   -0.6322    1.4737 C.2     1  UNL1        0.2436
      3 O           4.6277   -1.6504    2.2115 O.2     1  UNL1       -0.2703
      4 C           3.3519   -0.3026    0.7671 C.ar    1  UNL1        0.0626
      5 C           2.2351   -1.0817    0.9063 C.ar    1  UNL1       -0.0458
      6 C           1.0653   -0.7517    0.2309 C.ar    1  UNL1       -0.0394
      7 C           0.9723    0.3566   -0.5971 C.ar    1  UNL1        0.0379
      8 N          -0.2127    0.6436   -1.2857 N.pl3   1  UNL1       -0.3430
      9 C          -1.4415   -0.1215   -1.1595 C.3     1  UNL1        0.0131
     10 C          -2.0496    0.2282    0.1634 C.3     1  UNL1       -0.0121
     11 C          -3.2941   -0.4717    0.4701 C.ar    1  UNL1       -0.0444
     12 C          -3.3306   -1.6812    1.1385 C.ar    1  UNL1       -0.0571
     13 C          -4.5265   -2.2990    1.3997 C.ar    1  UNL1       -0.0417
     14 C          -5.7398   -1.7328    1.0029 C.ar    1  UNL1        0.0593
     15 CL         -7.2272   -2.5584    1.3594 Cl      1  UNL1       -0.0820
     16 C          -5.7166   -0.5261    0.3351 C.ar    1  UNL1        0.0595
     17 CL         -7.2437    0.1809   -0.1612 Cl      1  UNL1       -0.0820
     18 C          -4.5003    0.0712    0.0867 C.ar    1  UNL1       -0.0387
     19 C           2.1130    1.1225   -0.7182 C.ar    1  UNL1        0.0400
     20 C           2.1614    2.2379   -1.4979 C.ar    1  UNL1        0.0403
     21 N           3.3148    2.9622   -1.5835 N.ar    1  UNL1       -0.2430
     22 C           4.4349    2.6315   -0.9270 C.ar    1  UNL1        0.1166
     23 N           4.4081    1.5355   -0.1529 N.ar    1  UNL1       -0.2346
     24 C           3.2885    0.7912   -0.0403 C.ar    1  UNL1        0.0880
     25 H           6.3716   -0.0187    0.4941 H       1  UNL1        0.1453
     26 H           6.0221    0.9546    1.9395 H       1  UNL1        0.1453
     27 H           2.2978   -1.9457    1.5488 H       1  UNL1        0.0626
     28 H           0.2079   -1.4064    0.3555 H       1  UNL1        0.0636
     29 H          -0.2559    1.4511   -1.9434 H       1  UNL1        0.1461
     30 H          -2.1103    0.0156   -2.0115 H       1  UNL1        0.0464
     31 H          -1.1555   -1.1980   -1.1456 H       1  UNL1        0.0464
     32 H          -1.2855    0.2317    0.9498 H       1  UNL1        0.0328
     33 H          -2.3348    1.3314    0.0772 H       1  UNL1        0.0328
     34 H          -2.3644   -2.0920    1.4323 H       1  UNL1        0.0621
     35 H          -4.5511   -3.2419    1.9210 H       1  UNL1        0.0633
     36 H          -4.5141    1.0189   -0.4399 H       1  UNL1        0.0635
     37 H           1.2866    2.5371   -2.0384 H       1  UNL1        0.0837
     38 H           5.3509    3.2339   -1.0145 H       1  UNL1        0.1047
@<TRIPOS>BOND
     1     1     2   am
     2     2     3    2
     3     2     4    1
     4     4     5   ar
     5     5     6   ar
     6     6     7   ar
     7     7     8    1
     8     8     9    1
     9     9    10    1
    10    10    11    1
    11    11    12   ar
    12    12    13   ar
    13    13    14   ar
    14    14    15    1
    15    14    16   ar
    16    16    17    1
    17    16    18   ar
    18     7    19   ar
    19    19    20   ar
    20    20    21   ar
    21    21    22   ar
    22    22    23   ar
    23    23    24   ar
    24    24     4   ar
    25    18    11   ar
    26    24    19   ar
    27     1    25    1
    28     1    26    1
    29     5    27    1
    30     6    28    1
    31     8    29    1
    32     9    30    1
    33     9    31    1
    34    10    32    1
    35    10    33    1
    36    12    34    1
    37    13    35    1
    38    18    36    1
    39    20    37    1
    40    22    38    1
