@<TRIPOS>MOLECULE
*****
 46 47 0 0 0
SMALL
GASTEIGER

@<TRIPOS>ATOM
      1 C           3.2952    3.0646   -0.0431 C.3     1  UNL1       -0.0641
      2 C           2.7905    1.7925    0.6064 C.3     1  UNL1       -0.0430
      3 C           2.2765    0.8956   -0.4895 C.3     1  UNL1       -0.0006
      4 N           1.7647   -0.3495   -0.0440 N.3     1  UNL1       -0.2915
      5 C           2.7183   -1.2561    0.4905 C.3     1  UNL1       -0.0004
      6 C           3.0706   -2.3827   -0.4655 C.3     1  UNL1       -0.0401
      7 C           1.8195   -3.1591   -0.6887 C.3     1  UNL1       -0.0500
      8 C           0.6953   -2.3093   -1.1418 C.3     1  UNL1       -0.0288
      9 C           0.7813   -0.8548   -0.9145 C.3     1  UNL1        0.0875
     10 C          -0.5555   -0.3620   -0.4107 C.2     1  UNL1        0.2345
     11 O          -1.4879   -0.8148   -1.1578 O.2     1  UNL1       -0.2737
     12 N          -0.8972    0.4797    0.7055 N.am    1  UNL1       -0.2837
     13 C          -2.3344    0.5557    0.6250 C.ar    1  UNL1        0.0393
     14 C          -2.9577    1.5362   -0.1011 C.ar    1  UNL1       -0.0290
     15 C          -2.1751    2.5623   -0.8333 C.3     1  UNL1       -0.0379
     16 C          -4.3446    1.5447   -0.1323 C.ar    1  UNL1       -0.0571
     17 C          -4.9978    0.5585    0.5748 C.ar    1  UNL1       -0.0611
     18 C          -4.3432   -0.4093    1.2922 C.ar    1  UNL1       -0.0571
     19 C          -2.9739   -0.4568    1.3517 C.ar    1  UNL1       -0.0290
     20 C          -2.2581   -1.4850    2.1153 C.3     1  UNL1       -0.0379
     21 H           4.2407    2.8558   -0.6210 H       1  UNL1        0.0230
     22 H           3.4380    3.8772    0.6778 H       1  UNL1        0.0230
     23 H           2.5188    3.3777   -0.7889 H       1  UNL1        0.0230
     24 H           1.9920    2.0776    1.3058 H       1  UNL1        0.0275
     25 H           3.6999    1.3579    1.1015 H       1  UNL1        0.0275
     26 H           1.4154    1.4587   -0.9456 H       1  UNL1        0.0427
     27 H           3.0529    0.8392   -1.2731 H       1  UNL1        0.0427
     28 H           2.2471   -1.7329    1.3754 H       1  UNL1        0.0427
     29 H           3.6595   -0.8142    0.8140 H       1  UNL1        0.0427
     30 H           3.7750   -3.0387    0.1022 H       1  UNL1        0.0278
     31 H           3.5617   -2.0301   -1.3711 H       1  UNL1        0.0278
     32 H           1.9862   -4.0294   -1.3752 H       1  UNL1        0.0266
     33 H           1.5708   -3.6435    0.2998 H       1  UNL1        0.0266
     34 H           0.5580   -2.5210   -2.2447 H       1  UNL1        0.0285
     35 H          -0.2438   -2.7531   -0.6962 H       1  UNL1        0.0285
     36 H           0.8860   -0.3273   -1.9100 H       1  UNL1        0.0559
     37 H          -0.0272    0.7608    1.2053 H       1  UNL1        0.1549
     38 H          -2.4994    2.5865   -1.8940 H       1  UNL1        0.0278
     39 H          -2.4743    3.5426   -0.3699 H       1  UNL1        0.0278
     40 H          -1.1045    2.4111   -0.6957 H       1  UNL1        0.0278
     41 H          -4.7865    2.3268   -0.7121 H       1  UNL1        0.0621
     42 H          -6.0862    0.6476    0.4905 H       1  UNL1        0.0618
     43 H          -4.9671   -1.1442    1.8167 H       1  UNL1        0.0621
     44 H          -2.7043   -1.5270    3.1359 H       1  UNL1        0.0278
     45 H          -1.1632   -1.2327    2.1720 H       1  UNL1        0.0278
     46 H          -2.4320   -2.4759    1.6485 H       1  UNL1        0.0278
@<TRIPOS>BOND
     1     1     2    1
     2     2     3    1
     3     3     4    1
     4     4     5    1
     5     5     6    1
     6     6     7    1
     7     7     8    1
     8     8     9    1
     9     9    10    1
    10    10    11    2
    11    10    12   am
    12    12    13    1
    13    13    14   ar
    14    14    15    1
    15    14    16   ar
    16    16    17   ar
    17    17    18   ar
    18    18    19   ar
    19    19    20    1
    20     9     4    1
    21    19    13   ar
    22     1    21    1
    23     1    22    1
    24     1    23    1
    25     2    24    1
    26     2    25    1
    27     3    26    1
    28     3    27    1
    29     5    28    1
    30     5    29    1
    31     6    30    1
    32     6    31    1
    33     7    32    1
    34     7    33    1
    35     8    34    1
    36     8    35    1
    37     9    36    1
    38    12    37    1
    39    15    38    1
    40    15    39    1
    41    15    40    1
    42    16    41    1
    43    17    42    1
    44    18    43    1
    45    20    44    1
    46    20    45    1
    47    20    46    1
