
     RDKit          3D

 43 46  0  0  0  0  0  0  0  0999 V2000
    1.2143    0.8152    1.9765 C   0  0  0  0  0  0  0  0  0  0  0  0
    0.7517    0.1708    0.7335 N   0  0  0  0  0  0  0  0  0  0  0  0
   -0.5241   -0.0608    0.3835 C   0  0  0  0  0  0  0  0  0  0  0  0
   -0.5417   -0.6800   -0.8480 C   0  0  0  0  0  0  0  0  0  0  0  0
    0.7669   -0.8082   -1.2175 C   0  0  0  0  0  0  0  0  0  0  0  0
    1.1305   -1.3369   -2.3020 O   0  0  0  0  0  0  0  0  0  0  0  0
    1.5174   -0.2852   -0.2413 N   0  0  0  0  0  0  0  0  0  0  0  0
    2.9450   -0.2270   -0.2500 C   0  0  0  0  0  0  0  0  0  0  0  0
    3.6109    0.9976   -0.3024 C   0  0  0  0  0  0  0  0  0  0  0  0
    4.9872    1.0807   -0.3119 C   0  0  0  0  0  0  0  0  0  0  0  0
    5.7567   -0.0616   -0.2693 C   0  0  0  0  0  0  0  0  0  0  0  0
    5.1072   -1.2630   -0.2179 C   0  0  0  0  0  0  0  0  0  0  0  0
    3.7363   -1.3550   -0.2081 C   0  0  0  0  0  0  0  0  0  0  0  0
   -1.9857   -0.9234   -1.2038 C   0  0  1  0  0  0  0  0  0  0  0  0
   -2.4838   -1.9763   -0.2707 C   0  0  0  0  0  0  0  0  0  0  0  0
   -2.4953   -1.2817    1.1000 C   0  0  0  0  0  0  0  0  0  0  0  0
   -1.9433    0.0887    0.8039 C   0  0  1  0  0  0  0  0  0  0  0  0
   -2.2094    1.1231    1.7922 C   0  0  0  0  0  0  0  0  0  0  0  0
   -2.5949    0.3369   -0.5685 C   0  0  0  0  0  0  0  0  0  0  0  0
   -4.0800    0.2609   -0.4795 C   0  0  0  0  0  0  0  0  0  0  0  0
   -2.0690    1.5817   -1.2042 C   0  0  0  0  0  0  0  0  0  0  0  0
    1.4883    1.8575    1.8227 H   0  0  0  0  0  0  0  0  0  0  0  0
    2.0957    0.2367    2.3812 H   0  0  0  0  0  0  0  0  0  0  0  0
    0.4064    0.6569    2.7153 H   0  0  0  0  0  0  0  0  0  0  0  0
    2.9898    1.8874   -0.3355 H   0  0  0  0  0  0  0  0  0  0  0  0
    5.5052    2.0289   -0.3525 H   0  0  0  0  0  0  0  0  0  0  0  0
    6.8461   -0.0121   -0.2761 H   0  0  0  0  0  0  0  0  0  0  0  0
    5.7234   -2.1633   -0.1843 H   0  0  0  0  0  0  0  0  0  0  0  0
    3.2694   -2.3263   -0.1668 H   0  0  0  0  0  0  0  0  0  0  0  0
   -2.1800   -1.0350   -2.2426 H   0  0  0  0  0  0  0  0  0  0  0  0
   -3.4408   -2.4179   -0.5225 H   0  0  0  0  0  0  0  0  0  0  0  0
   -1.7254   -2.7824   -0.2060 H   0  0  0  0  0  0  0  0  0  0  0  0
   -1.8276   -1.7821    1.8137 H   0  0  0  0  0  0  0  0  0  0  0  0
   -3.5307   -1.1710    1.4690 H   0  0  0  0  0  0  0  0  0  0  0  0
   -1.3998    1.9084    1.7425 H   0  0  0  0  0  0  0  0  0  0  0  0
   -3.1593    1.6791    1.6711 H   0  0  0  0  0  0  0  0  0  0  0  0
   -2.2073    0.6894    2.8274 H   0  0  0  0  0  0  0  0  0  0  0  0
   -4.5200   -0.7011   -0.7537 H   0  0  0  0  0  0  0  0  0  0  0  0
   -4.4533    0.4962    0.5602 H   0  0  0  0  0  0  0  0  0  0  0  0
   -4.5847    1.0320   -1.1247 H   0  0  0  0  0  0  0  0  0  0  0  0
   -1.9794    1.4352   -2.3202 H   0  0  0  0  0  0  0  0  0  0  0  0
   -1.0960    1.8962   -0.7835 H   0  0  0  0  0  0  0  0  0  0  0  0
   -2.8168    2.3911   -1.0730 H   0  0  0  0  0  0  0  0  0  0  0  0
  1  2  1  0
  2  3  1  0
  3  4  2  0
  4  5  1  0
  5  6  2  0
  5  7  1  0
  7  8  1  0
  8  9  2  0
  9 10  1  0
 10 11  2  0
 11 12  1  0
 12 13  2  0
  4 14  1  0
 14 15  1  0
 15 16  1  0
 16 17  1  0
 17 18  1  1
 17 19  1  0
 19 20  1  0
 19 21  1  0
  7  2  1  0
 13  8  1  0
 19 14  1  0
 17  3  1  0
  1 22  1  0
  1 23  1  0
  1 24  1  0
  9 25  1  0
 10 26  1  0
 11 27  1  0
 12 28  1  0
 13 29  1  0
 14 30  1  6
 15 31  1  0
 15 32  1  0
 16 33  1  0
 16 34  1  0
 18 35  1  0
 18 36  1  0
 18 37  1  0
 20 38  1  0
 20 39  1  0
 20 40  1  0
 21 41  1  0
 21 42  1  0
 21 43  1  0
M  END
$$$$
