@<TRIPOS>MOLECULE
*****
 43 46 0 0 0
SMALL
GASTEIGER

@<TRIPOS>ATOM
      1 C           1.2143    0.8152    1.9765 C.3     1  UNL1        0.0291
      2 N           0.7517    0.1708    0.7335 N.ar    1  UNL1       -0.2830
      3 C          -0.5241   -0.0608    0.3835 C.ar    1  UNL1        0.0511
      4 C          -0.5417   -0.6800   -0.8480 C.ar    1  UNL1        0.0437
      5 C           0.7669   -0.8082   -1.2175 C.ar    1  UNL1        0.2755
      6 O           1.1305   -1.3369   -2.3020 O.2     1  UNL1       -0.2655
      7 N           1.5174   -0.2852   -0.2413 N.ar    1  UNL1       -0.2170
      8 C           2.9450   -0.2270   -0.2500 C.ar    1  UNL1        0.0673
      9 C           3.6109    0.9976   -0.3024 C.ar    1  UNL1       -0.0362
     10 C           4.9872    1.0807   -0.3119 C.ar    1  UNL1       -0.0598
     11 C           5.7567   -0.0616   -0.2693 C.ar    1  UNL1       -0.0616
     12 C           5.1072   -1.2630   -0.2179 C.ar    1  UNL1       -0.0598
     13 C           3.7363   -1.3550   -0.2081 C.ar    1  UNL1       -0.0362
     14 C          -1.9857   -0.9234   -1.2038 C.3     1  UNL1       -0.0029
     15 C          -2.4838   -1.9763   -0.2707 C.3     1  UNL1       -0.0446
     16 C          -2.4953   -1.2817    1.1000 C.3     1  UNL1       -0.0411
     17 C          -1.9433    0.0887    0.8039 C.3     1  UNL1        0.0158
     18 C          -2.2094    1.1231    1.7922 C.3     1  UNL1       -0.0536
     19 C          -2.5949    0.3369   -0.5685 C.3     1  UNL1       -0.0171
     20 C          -4.0800    0.2609   -0.4795 C.3     1  UNL1       -0.0584
     21 C          -2.0690    1.5817   -1.2042 C.3     1  UNL1       -0.0584
     22 H           1.4883    1.8575    1.8227 H       1  UNL1        0.0472
     23 H           2.0957    0.2367    2.3812 H       1  UNL1        0.0472
     24 H           0.4064    0.6569    2.7153 H       1  UNL1        0.0472
     25 H           2.9898    1.8874   -0.3355 H       1  UNL1        0.0639
     26 H           5.5052    2.0289   -0.3525 H       1  UNL1        0.0618
     27 H           6.8461   -0.0121   -0.2761 H       1  UNL1        0.0618
     28 H           5.7234   -2.1633   -0.1843 H       1  UNL1        0.0618
     29 H           3.2694   -2.3263   -0.1668 H       1  UNL1        0.0639
     30 H          -2.1800   -1.0350   -2.2426 H       1  UNL1        0.0357
     31 H          -3.4408   -2.4179   -0.5225 H       1  UNL1        0.0272
     32 H          -1.7254   -2.7824   -0.2060 H       1  UNL1        0.0272
     33 H          -1.8276   -1.7821    1.8137 H       1  UNL1        0.0274
     34 H          -3.5307   -1.1710    1.4690 H       1  UNL1        0.0274
     35 H          -1.3998    1.9084    1.7425 H       1  UNL1        0.0239
     36 H          -3.1593    1.6791    1.6711 H       1  UNL1        0.0239
     37 H          -2.2073    0.6894    2.8274 H       1  UNL1        0.0239
     38 H          -4.5200   -0.7011   -0.7537 H       1  UNL1        0.0235
     39 H          -4.4533    0.4962    0.5602 H       1  UNL1        0.0235
     40 H          -4.5847    1.0320   -1.1247 H       1  UNL1        0.0235
     41 H          -1.9794    1.4352   -2.3202 H       1  UNL1        0.0235
     42 H          -1.0960    1.8962   -0.7835 H       1  UNL1        0.0235
     43 H          -2.8168    2.3911   -1.0730 H       1  UNL1        0.0235
@<TRIPOS>BOND
     1     1     2    1
     2     2     3   ar
     3     3     4   ar
     4     4     5   ar
     5     5     6    2
     6     5     7   ar
     7     7     8    1
     8     8     9   ar
     9     9    10   ar
    10    10    11   ar
    11    11    12   ar
    12    12    13   ar
    13     4    14    1
    14    14    15    1
    15    15    16    1
    16    16    17    1
    17    17    18    1
    18    17    19    1
    19    19    20    1
    20    19    21    1
    21     7     2   ar
    22    13     8   ar
    23    19    14    1
    24    17     3    1
    25     1    22    1
    26     1    23    1
    27     1    24    1
    28     9    25    1
    29    10    26    1
    30    11    27    1
    31    12    28    1
    32    13    29    1
    33    14    30    1
    34    15    31    1
    35    15    32    1
    36    16    33    1
    37    16    34    1
    38    18    35    1
    39    18    36    1
    40    18    37    1
    41    20    38    1
    42    20    39    1
    43    20    40    1
    44    21    41    1
    45    21    42    1
    46    21    43    1
