@<TRIPOS>MOLECULE
*****
 62 65 0 0 0
SMALL
GASTEIGER

@<TRIPOS>ATOM
      1 N          -5.3340    2.3555    0.7258 N.pl3   1  UNL1       -0.3566
      2 C          -5.2911    2.4298   -0.6720 C.ar    1  UNL1        0.0464
      3 C          -6.3100    3.1852   -1.2588 C.ar    1  UNL1       -0.0379
      4 C          -6.3440    3.3123   -2.6220 C.ar    1  UNL1       -0.0418
      5 C          -5.3526    2.6747   -3.3480 C.ar    1  UNL1        0.0280
      6 N          -4.3966    1.9621   -2.7525 N.ar    1  UNL1       -0.2578
      7 C          -4.3249    1.8096   -1.3939 C.ar    1  UNL1        0.0649
      8 C          -3.2575    1.0199   -0.8091 C.3     1  UNL1        0.0032
      9 C          -2.0214    1.9202   -0.5807 C.3     1  UNL1       -0.0433
     10 C          -0.8342    1.0772   -0.2464 C.3     1  UNL1       -0.0367
     11 C          -1.0819   -0.3486    0.0216 C.3     1  UNL1        0.0106
     12 N          -1.0594   -1.2337   -1.1247 N.3     1  UNL1       -0.2958
     13 C           0.0917   -1.3273   -1.9255 C.3     1  UNL1        0.0189
     14 C           0.3810   -2.7656   -1.5569 C.3     1  UNL1        0.0486
     15 N           1.7051   -2.8258   -0.9450 N.am    1  UNL1       -0.3087
     16 C           2.6921   -3.7337   -1.3473 C.2     1  UNL1        0.2305
     17 O           2.3763   -4.5333   -2.2824 O.2     1  UNL1       -0.2741
     18 C           4.0362   -3.7871   -0.7350 C.3     1  UNL1        0.0884
     19 N           4.2050   -2.7468    0.2527 N.am    1  UNL1       -0.3028
     20 C           4.1655   -1.3551   -0.0691 C.2     1  UNL1        0.2445
     21 O           3.9815   -1.0484   -1.2798 O.2     1  UNL1       -0.2702
     22 C           4.3245   -0.3077    0.9230 C.ar    1  UNL1        0.0372
     23 C           4.1270    1.0049    0.4998 C.ar    1  UNL1       -0.0496
     24 C           4.2604    2.0522    1.3840 C.ar    1  UNL1       -0.0605
     25 C           4.5919    1.7753    2.6897 C.ar    1  UNL1       -0.0501
     26 C           4.7873    0.4999    3.1150 C.ar    1  UNL1        0.0555
     27 C           5.1480    0.1954    4.5214 C.3     1  UNL1        0.4174
     28 F           4.3120   -0.7897    5.0078 F       1  UNL1       -0.1659
     29 F           5.0408    1.3242    5.2810 F       1  UNL1       -0.1659
     30 F           6.4837   -0.2267    4.5613 F       1  UNL1       -0.1659
     31 C           4.6530   -0.5400    2.2285 C.ar    1  UNL1       -0.0380
     32 C          -0.7654   -2.5883   -0.6223 C.3     1  UNL1        0.0189
     33 C          -2.3574   -0.6093    0.7429 C.3     1  UNL1       -0.0367
     34 C          -3.4777    0.3741    0.5070 C.3     1  UNL1       -0.0433
     35 H          -5.8045    1.6395    1.2952 H       1  UNL1        0.1424
     36 H          -4.8283    3.1210    1.2632 H       1  UNL1        0.1424
     37 H          -7.0747    3.6727   -0.6508 H       1  UNL1        0.0637
     38 H          -7.1285    3.8962   -3.1319 H       1  UNL1        0.0633
     39 H          -5.4036    2.7953   -4.4369 H       1  UNL1        0.0829
     40 H          -2.8531    0.2620   -1.5652 H       1  UNL1        0.0364
     41 H          -1.8861    2.6495   -1.3744 H       1  UNL1        0.0272
     42 H          -2.3023    2.4967    0.3491 H       1  UNL1        0.0272
     43 H          -0.0718    1.2563   -1.0490 H       1  UNL1        0.0280
     44 H          -0.3315    1.5260    0.6639 H       1  UNL1        0.0280
     45 H          -0.2581   -0.6803    0.7397 H       1  UNL1        0.0462
     46 H           0.9097   -0.6319   -1.7915 H       1  UNL1        0.0445
     47 H          -0.2005   -1.2950   -3.0207 H       1  UNL1        0.0445
     48 H           0.2287   -3.4967   -2.3643 H       1  UNL1        0.0523
     49 H           1.8610   -2.1587   -0.1720 H       1  UNL1        0.1491
     50 H           4.8286   -3.6971   -1.5257 H       1  UNL1        0.0558
     51 H           4.2049   -4.7589   -0.2034 H       1  UNL1        0.0558
     52 H           4.3674   -2.9852    1.2688 H       1  UNL1        0.1495
     53 H           3.8691    1.2331   -0.5094 H       1  UNL1        0.0625
     54 H           4.1057    3.0859    1.0586 H       1  UNL1        0.0618
     55 H           4.6902    2.6013    3.3629 H       1  UNL1        0.0623
     56 H           4.8115   -1.5429    2.5786 H       1  UNL1        0.0631
     57 H          -1.5716   -3.3047   -0.8129 H       1  UNL1        0.0445
     58 H          -0.4512   -2.6245    0.4471 H       1  UNL1        0.0445
     59 H          -2.7612   -1.6417    0.4995 H       1  UNL1        0.0280
     60 H          -2.2225   -0.6272    1.8655 H       1  UNL1        0.0280
     61 H          -3.4595    1.1675    1.2995 H       1  UNL1        0.0272
     62 H          -4.4231   -0.1635    0.6170 H       1  UNL1        0.0272
@<TRIPOS>BOND
     1     1     2    1
     2     2     3   ar
     3     3     4   ar
     4     4     5   ar
     5     5     6   ar
     6     6     7   ar
     7     7     8    1
     8     8     9    1
     9     9    10    1
    10    10    11    1
    11    11    12    1
    12    12    13    1
    13    13    14    1
    14    14    15    1
    15    15    16   am
    16    16    17    2
    17    16    18    1
    18    18    19    1
    19    19    20   am
    20    20    21    2
    21    20    22    1
    22    22    23   ar
    23    23    24   ar
    24    24    25   ar
    25    25    26   ar
    26    26    27    1
    27    27    28    1
    28    27    29    1
    29    27    30    1
    30    26    31   ar
    31    14    32    1
    32    11    33    1
    33    33    34    1
    34     7     2   ar
    35    34     8    1
    36    32    12    1
    37    31    22   ar
    38     1    35    1
    39     1    36    1
    40     3    37    1
    41     4    38    1
    42     5    39    1
    43     8    40    1
    44     9    41    1
    45     9    42    1
    46    10    43    1
    47    10    44    1
    48    11    45    1
    49    13    46    1
    50    13    47    1
    51    14    48    1
    52    15    49    1
    53    18    50    1
    54    18    51    1
    55    19    52    1
    56    23    53    1
    57    24    54    1
    58    25    55    1
    59    31    56    1
    60    32    57    1
    61    32    58    1
    62    33    59    1
    63    33    60    1
    64    34    61    1
    65    34    62    1
