@<TRIPOS>MOLECULE
*****
 64 67 0 0 0
SMALL
GASTEIGER

@<TRIPOS>ATOM
      1 C          -6.7525    2.1397   -0.8769 C.3     1  UNL1       -0.0130
      2 N          -6.5867    1.8221   -2.2794 N.3     1  UNL1       -0.3083
      3 C          -7.8536    1.8363   -2.9685 C.3     1  UNL1       -0.0130
      4 C          -5.9979    0.5227   -2.3896 C.3     1  UNL1       -0.0000
      5 C          -4.5513    0.5217   -1.8921 C.3     1  UNL1       -0.0205
      6 C          -3.9333   -0.8434   -1.9929 C.3     1  UNL1        0.0434
      7 N          -2.5654   -0.7872   -1.5172 N.ar    1  UNL1       -0.2630
      8 N          -1.5198   -0.5477   -2.2850 N.ar    1  UNL1       -0.1685
      9 C          -0.3800   -0.5582   -1.5786 C.ar    1  UNL1        0.1202
     10 C           0.9855   -0.3314   -2.0377 C.ar    1  UNL1        0.1104
     11 C           1.1823   -0.0458   -3.3846 C.ar    1  UNL1        0.0575
     12 N           2.4143    0.1854   -3.8945 N.ar    1  UNL1       -0.2338
     13 C           3.4711    0.1344   -3.0656 C.ar    1  UNL1        0.1574
     14 N           4.7991    0.3097   -3.2428 N.ar    1  UNL1       -0.3438
     15 C           5.4458    0.1442   -2.0590 C.ar    1  UNL1        0.0178
     16 C           4.5228   -0.1461   -1.0836 C.ar    1  UNL1        0.0815
     17 C           4.7511   -0.4097    0.3212 C.2     1  UNL1        0.2480
     18 O           4.6058   -1.5878    0.7195 O.2     1  UNL1       -0.2701
     19 N           5.1258    0.5862    1.2550 N.am    1  UNL1       -0.3065
     20 C           5.3466    0.2955    2.6525 C.3     1  UNL1        0.0265
     21 C           4.1042   -0.2748    3.3044 C.3     1  UNL1       -0.0442
     22 C           6.4036   -0.7851    2.7266 C.3     1  UNL1       -0.0442
     23 C           5.7471    1.5456    3.3618 C.3     1  UNL1       -0.0442
     24 C           3.2943   -0.1499   -1.7158 C.ar    1  UNL1        0.1202
     25 N           2.0624   -0.3693   -1.2632 N.ar    1  UNL1       -0.2397
     26 C          -0.7818   -0.8284   -0.2651 C.ar    1  UNL1        0.0326
     27 C          -0.1107   -0.9635    0.9191 C.ar    1  UNL1       -0.0084
     28 C          -0.7401   -1.2323    2.1247 C.ar    1  UNL1        0.1276
     29 O           0.0479   -1.3422    3.2433 O.3     1  UNL1       -0.4342
     30 C          -0.3271   -1.5860    4.5549 C.3     1  UNL1        0.3893
     31 F           0.3009   -2.7096    5.1167 F       1  UNL1       -0.1663
     32 F          -0.0941   -0.4870    5.3806 F       1  UNL1       -0.1663
     33 C          -2.1086   -1.3696    2.1253 C.ar    1  UNL1       -0.0177
     34 C          -2.8308   -1.2384    0.9364 C.ar    1  UNL1       -0.0326
     35 C          -2.1591   -0.9709   -0.2356 C.ar    1  UNL1        0.0698
     36 H          -6.0048    2.9146   -0.5922 H       1  UNL1        0.0391
     37 H          -6.6077    1.2218   -0.2279 H       1  UNL1        0.0391
     38 H          -7.7888    2.4794   -0.6348 H       1  UNL1        0.0391
     39 H          -8.6913    1.4332   -2.3565 H       1  UNL1        0.0391
     40 H          -7.8295    1.2864   -3.9306 H       1  UNL1        0.0391
     41 H          -8.0584    2.9102   -3.2572 H       1  UNL1        0.0391
     42 H          -6.6187   -0.2038   -1.8647 H       1  UNL1        0.0427
     43 H          -6.0189    0.2416   -3.4780 H       1  UNL1        0.0427
     44 H          -4.0222    1.2587   -2.5052 H       1  UNL1        0.0295
     45 H          -4.6205    0.7785   -0.8138 H       1  UNL1        0.0295
     46 H          -4.5162   -1.6151   -1.4499 H       1  UNL1        0.0509
     47 H          -3.9332   -1.1529   -3.0554 H       1  UNL1        0.0509
     48 H           0.2980   -0.0136   -4.0268 H       1  UNL1        0.0853
     49 H           5.2687    0.5375   -4.1454 H       1  UNL1        0.1668
     50 H           6.5201    0.2345   -1.9433 H       1  UNL1        0.0816
     51 H           5.2428    1.5638    0.9247 H       1  UNL1        0.1495
     52 H           4.1187   -1.3683    3.2619 H       1  UNL1        0.0250
     53 H           4.1857    0.0092    4.3940 H       1  UNL1        0.0250
     54 H           3.1738    0.1636    2.9463 H       1  UNL1        0.0250
     55 H           7.1808   -0.5468    3.5134 H       1  UNL1        0.0250
     56 H           6.9110   -0.9043    1.7616 H       1  UNL1        0.0250
     57 H           5.9911   -1.7672    3.0502 H       1  UNL1        0.0250
     58 H           6.8650    1.6233    3.4419 H       1  UNL1        0.0250
     59 H           5.3015    2.4646    2.8978 H       1  UNL1        0.0250
     60 H           5.3068    1.5144    4.3872 H       1  UNL1        0.0250
     61 H           0.9746   -0.8544    0.8943 H       1  UNL1        0.0661
     62 H          -1.4155   -1.7599    4.6161 H       1  UNL1        0.1520
     63 H          -2.6282   -1.5759    3.0328 H       1  UNL1        0.0655
     64 H          -3.9026   -1.3520    0.9758 H       1  UNL1        0.0640
@<TRIPOS>BOND
     1     1     2    1
     2     2     3    1
     3     2     4    1
     4     4     5    1
     5     5     6    1
     6     6     7    1
     7     7     8   ar
     8     8     9   ar
     9     9    10    1
    10    10    11   ar
    11    11    12   ar
    12    12    13   ar
    13    13    14   ar
    14    14    15   ar
    15    15    16   ar
    16    16    17    1
    17    17    18    2
    18    17    19   am
    19    19    20    1
    20    20    21    1
    21    20    22    1
    22    20    23    1
    23    16    24   ar
    24    24    25   ar
    25     9    26   ar
    26    26    27   ar
    27    27    28   ar
    28    28    29    1
    29    29    30    1
    30    30    31    1
    31    30    32    1
    32    28    33   ar
    33    33    34   ar
    34    34    35   ar
    35    35     7   ar
    36    25    10   ar
    37    35    26   ar
    38    24    13   ar
    39     1    36    1
    40     1    37    1
    41     1    38    1
    42     3    39    1
    43     3    40    1
    44     3    41    1
    45     4    42    1
    46     4    43    1
    47     5    44    1
    48     5    45    1
    49     6    46    1
    50     6    47    1
    51    11    48    1
    52    14    49    1
    53    15    50    1
    54    19    51    1
    55    21    52    1
    56    21    53    1
    57    21    54    1
    58    22    55    1
    59    22    56    1
    60    22    57    1
    61    23    58    1
    62    23    59    1
    63    23    60    1
    64    27    61    1
    65    30    62    1
    66    33    63    1
    67    34    64    1
