@<TRIPOS>MOLECULE
*****
 37 38 0 0 0
SMALL
GASTEIGER

@<TRIPOS>ATOM
      1 C           5.7565    1.1066    0.8112 C.3     1  UNL1       -0.0305
      2 C           5.0735    1.4193   -0.5016 C.3     1  UNL1        0.0913
      3 O           3.7085    1.0698   -0.3739 O.3     1  UNL1       -0.4505
      4 C           3.2207   -0.1786   -0.0976 C.2     1  UNL1        0.4029
      5 O           3.9910   -1.1562    0.0710 O.2     1  UNL1       -0.2263
      6 N           1.8232   -0.3891    0.0036 N.am    1  UNL1       -0.2673
      7 C           1.2099   -1.6485    0.2875 C.3     1  UNL1        0.0195
      8 C           0.0553   -1.9384   -0.6631 C.3     1  UNL1       -0.0185
      9 C          -0.9522   -0.8098   -0.6736 C.3     1  UNL1        0.0248
     10 C          -0.4944    0.2885    0.2946 C.3     1  UNL1       -0.0185
     11 C           0.8852    0.7017   -0.1816 C.3     1  UNL1        0.0195
     12 N          -2.2800   -1.2487   -0.3824 N.pl3   1  UNL1       -0.3261
     13 C          -3.4195   -0.3994   -0.3361 C.ar    1  UNL1        0.1203
     14 N          -3.3816    0.9246   -0.5632 N.ar    1  UNL1       -0.2404
     15 C          -4.4457    1.7311   -0.5222 C.ar    1  UNL1        0.0311
     16 C          -5.6914    1.2477   -0.2361 C.ar    1  UNL1       -0.0251
     17 C          -5.8053   -0.1087    0.0089 C.ar    1  UNL1        0.0456
     18 CL         -7.3697   -0.7551    0.3746 Cl      1  UNL1       -0.0834
     19 C          -4.6688   -0.9028   -0.0461 C.ar    1  UNL1       -0.0036
     20 H           6.7672    0.6747    0.6620 H       1  UNL1        0.0262
     21 H           5.8117    2.0159    1.4537 H       1  UNL1        0.0262
     22 H           5.1327    0.3943    1.3873 H       1  UNL1        0.0262
     23 H           5.0849    2.5239   -0.6180 H       1  UNL1        0.0695
     24 H           5.5585    0.9067   -1.3557 H       1  UNL1        0.0695
     25 H           0.7950   -1.7236    1.3210 H       1  UNL1        0.0466
     26 H           1.9084   -2.5088    0.1885 H       1  UNL1        0.0466
     27 H           0.4850   -2.1200   -1.6735 H       1  UNL1        0.0298
     28 H          -0.3986   -2.8966   -0.2982 H       1  UNL1        0.0298
     29 H          -0.9191   -0.3578   -1.6862 H       1  UNL1        0.0499
     30 H          -0.3959   -0.0675    1.3277 H       1  UNL1        0.0298
     31 H          -1.1392    1.1645    0.1769 H       1  UNL1        0.0298
     32 H           1.2280    1.6230    0.3315 H       1  UNL1        0.0466
     33 H           0.8080    0.8750   -1.2765 H       1  UNL1        0.0466
     34 H          -2.4090   -2.2603   -0.1932 H       1  UNL1        0.1477
     35 H          -4.2168    2.7875   -0.7361 H       1  UNL1        0.0830
     36 H          -6.4908    1.9593   -0.2229 H       1  UNL1        0.0647
     37 H          -4.8250   -1.9442    0.1534 H       1  UNL1        0.0666
@<TRIPOS>BOND
     1     1     2    1
     2     2     3    1
     3     3     4    1
     4     4     5    2
     5     4     6   am
     6     6     7    1
     7     7     8    1
     8     8     9    1
     9     9    10    1
    10    10    11    1
    11     9    12    1
    12    12    13    1
    13    13    14   ar
    14    14    15   ar
    15    15    16   ar
    16    16    17   ar
    17    17    18    1
    18    17    19   ar
    19    11     6    1
    20    19    13   ar
    21     1    20    1
    22     1    21    1
    23     1    22    1
    24     2    23    1
    25     2    24    1
    26     7    25    1
    27     7    26    1
    28     8    27    1
    29     8    28    1
    30     9    29    1
    31    10    30    1
    32    10    31    1
    33    11    32    1
    34    11    33    1
    35    12    34    1
    36    15    35    1
    37    16    36    1
    38    19    37    1
