@<TRIPOS>MOLECULE
*****
 54 54 0 0 0
SMALL
GASTEIGER

@<TRIPOS>ATOM
      1 C          -4.9415   -2.5959    0.1834 C.3     1  UNK1        0.1037
      2 N          -5.6017   -2.2411   -1.0417 N.3     1  UNK1       -0.3184
      3 C          -4.2947   -1.3639    0.8173 C.3     1  UNK1       -0.0190
      4 C          -3.2990   -0.8538   -0.2076 C.3     1  UNK1        0.0249
      5 C          -2.5728    0.3577    0.2531 C.2     1  UNK1        0.1832
      6 O          -3.4075    1.4465    0.5403 O.2     1  UNK1       -0.4956
      7 N          -1.3136    0.3294    0.3513 N.2     1  UNK1       -0.2411
      8 C          -0.4225    1.3704    0.7700 C.3     1  UNK1        0.1379
      9 C           0.6103    0.8043    1.6909 C.3     1  UNK1        0.0290
     10 S           1.6264   -0.4985    1.0184 S.3     1  UNK1       -0.1035
     11 C           2.6816    0.1227   -0.2990 C.3     1  UNK1        0.2009
     12 O           3.5915    1.0386    0.2765 O.3     1  UNK1       -0.3621
     13 N           3.4867   -1.0229   -0.7430 N.3     1  UNK1       -0.2171
     14 O           2.4521   -1.8496   -1.0799 O.3     1  UNK1       -0.2836
     15 C           4.8143   -1.4501   -0.8995 C.ar    1  UNK1        0.0682
     16 C           5.0378   -2.7145   -1.3919 C.ar    1  UNK1       -0.0352
     17 C           6.3620   -3.0647   -1.5194 C.ar    1  UNK1       -0.0466
     18 C           7.4116   -2.2573   -1.1964 C.ar    1  UNK1        0.0135
     19 I           9.3717   -2.9724   -1.4621 I       1  UNK1       -0.0438
     20 C           7.1560   -0.9978   -0.7062 C.ar    1  UNK1       -0.0466
     21 C           5.8547   -0.6077   -0.5632 C.ar    1  UNK1       -0.0352
     22 C           0.1005    2.2269   -0.2940 C.2     1  UNK1        0.2092
     23 O           0.6724    2.8532   -1.3946 O.2     1  UNK1       -0.4942
     24 N          -0.0289    3.4861   -0.3244 N.2     2  GLY2       -0.2416
     25 CA         -0.6598    4.3753    0.5762 C.3     2  GLY2        0.1398
     26 C          -1.9174    4.8599   -0.0962 C.2     2  GLY2        0.3264
     27 O          -2.6224    5.7496    0.7022 O.3     2  GLY2       -0.4793
     28 OXT        -2.3803    4.5703   -1.2339 O.2     2  GLY2       -0.2489
     29 C          -5.8390   -3.2927    1.1280 C.2     1  UNK1        0.3217
     30 O          -5.2911   -3.6761    2.3460 O.3     1  UNK1       -0.4795
     31 O          -7.0524   -3.5852    0.9641 O.2     1  UNK1       -0.2493
     32 H          -4.1102   -3.3083   -0.0427 H       1  UNK1        0.0574
     33 H          -4.9333   -2.3897   -1.8387 H       1  UNK1        0.1190
     34 H          -5.8684   -1.2294   -1.0268 H       1  UNK1        0.1190
     35 H          -3.7510   -1.6768    1.7185 H       1  UNK1        0.0290
     36 H          -5.0608   -0.6091    1.0600 H       1  UNK1        0.0290
     37 H          -2.6195   -1.7055   -0.4492 H       1  UNK1        0.0360
     38 H          -3.8714   -0.6486   -1.1294 H       1  UNK1        0.0360
     39 H          -2.9853    2.3225    0.7898 H       1  UNK1        0.2934
     40 H          -1.0774    2.0480    1.4207 H       1  UNK1        0.0651
     41 H           0.1418    0.4019    2.6273 H       1  UNK1        0.0403
     42 H           1.2785    1.6283    2.0761 H       1  UNK1        0.0403
     43 H           2.1406    0.5828   -1.1249 H       1  UNK1        0.0980
     44 H           3.4736    1.8918   -0.1816 H       1  UNK1        0.2129
     45 H           2.2058   -2.4453   -0.3229 H       1  UNK1        0.2445
     46 H           4.2021   -3.3395   -1.6420 H       1  UNK1        0.0639
     47 H           6.5447   -4.0762   -1.9134 H       1  UNK1        0.0629
     48 H           8.0439   -0.4105   -0.4706 H       1  UNK1        0.0629
     49 H           5.7475    0.3841   -0.1767 H       1  UNK1        0.0639
     50 H           0.9111    2.3029   -2.2336 H       1  UNK1        0.2935
     51 HA1        -0.0213    5.3075    0.6590 H       2  GLY2        0.0625
     52 HA2        -0.8162    4.0434    1.5999 H       2  GLY2        0.0625
     53 H          -3.3152    6.4050    0.3286 H       2  GLY2        0.2951
     54 H          -5.8446   -4.0261    3.1078 H       1  UNK1        0.2951
@<TRIPOS>BOND
     1     1     2    1
     2     1     3    1
     3     3     4    1
     4     4     5    1
     5     5     6    1
     6     5     7    2
     7     7     8    1
     8     8     9    1
     9     9    10    1
    10    10    11    1
    11    11    12    1
    12    11    13    1
    13    13    14    1
    14    13    15    1
    15    15    16   ar
    16    16    17   ar
    17    17    18   ar
    18    18    19    1
    19    18    20   ar
    20    20    21   ar
    21     8    22    1
    22    22    23    1
    23    22    24    2
    24    24    25    1
    25    25    26    1
    26    26    27    1
    27    26    28    2
    28     1    29    1
    29    29    30    1
    30    29    31    2
    31    21    15   ar
    32     1    32    1
    33     2    33    1
    34     2    34    1
    35     3    35    1
    36     3    36    1
    37     4    37    1
    38     4    38    1
    39     6    39    1
    40     8    40    1
    41     9    41    1
    42     9    42    1
    43    11    43    1
    44    12    44    1
    45    14    45    1
    46    16    46    1
    47    17    47    1
    48    20    48    1
    49    21    49    1
    50    23    50    1
    51    25    51    1
    52    25    52    1
    53    27    53    1
    54    30    54    1
