@<TRIPOS>MOLECULE
*****
 32 32 0 0 0
SMALL
GASTEIGER

@<TRIPOS>ATOM
      1 C          -5.3510   -0.5272    1.3458 C.1     1  UNL1       -0.1179
      2 C          -4.7398    0.1137    0.5794 C.1     1  UNL1       -0.0900
      3 C          -3.9437    0.9767   -0.4618 C.3     1  UNL1        0.0604
      4 N          -2.7224    0.2513   -0.6707 N.3     1  UNL1       -0.2945
      5 C          -2.9151   -0.8328   -1.5775 C.3     1  UNL1       -0.0119
      6 C          -1.5491    1.0301   -0.7688 C.3     1  UNL1        0.0026
      7 C          -0.2052    0.3835   -0.7362 C.3     1  UNL1       -0.0058
      8 C           0.0849   -0.4719    0.5063 C.3     1  UNL1        0.0908
      9 O           1.3848   -0.8648    0.5434 O.3     1  UNL1       -0.4905
     10 C           2.6333   -0.4288    0.6651 C.ar    1  UNL1        0.1388
     11 C           3.0412    0.8777    0.9308 C.ar    1  UNL1       -0.0171
     12 C           4.3194    1.2086    1.0416 C.ar    1  UNL1       -0.0398
     13 C           5.3542    0.2558    0.9043 C.ar    1  UNL1        0.0426
     14 CL          6.9983    0.7192    1.0313 Cl      1  UNL1       -0.0835
     15 C           4.9440   -1.0257    0.6459 C.ar    1  UNL1       -0.0215
     16 C           3.6397   -1.4163    0.5202 C.ar    1  UNL1        0.0839
     17 CL          3.2298   -3.0935    0.2001 Cl      1  UNL1       -0.0797
     18 H          -5.9209   -1.1116    2.0736 H       1  UNL1        0.1228
     19 H          -3.8469    1.9745   -0.0381 H       1  UNL1        0.0563
     20 H          -4.6293    1.0104   -1.3102 H       1  UNL1        0.0563
     21 H          -3.5682   -0.5147   -2.4915 H       1  UNL1        0.0391
     22 H          -1.9244   -1.1288   -2.0611 H       1  UNL1        0.0391
     23 H          -3.3751   -1.7436   -1.1736 H       1  UNL1        0.0391
     24 H          -1.5942    1.9052   -0.0643 H       1  UNL1        0.0428
     25 H          -1.5578    1.6005   -1.7991 H       1  UNL1        0.0428
     26 H           0.5438    1.1534   -0.8626 H       1  UNL1        0.0310
     27 H          -0.1360   -0.3228   -1.6268 H       1  UNL1        0.0310
     28 H          -0.2513    0.0195    1.4348 H       1  UNL1        0.0697
     29 H          -0.5369   -1.4393    0.3508 H       1  UNL1        0.0697
     30 H           2.2118    1.6351    1.0718 H       1  UNL1        0.0655
     31 H           4.6625    2.2096    1.2614 H       1  UNL1        0.0633
     32 H           5.7196   -1.8314    0.5360 H       1  UNL1        0.0648
@<TRIPOS>BOND
     1     1     2    3
     2     2     3    1
     3     3     4    1
     4     4     5    1
     5     4     6    1
     6     6     7    1
     7     7     8    1
     8     8     9    1
     9     9    10    1
    10    10    11   ar
    11    11    12   ar
    12    12    13   ar
    13    13    14    1
    14    13    15   ar
    15    15    16   ar
    16    16    17    1
    17    16    10   ar
    18     1    18    1
    19     3    19    1
    20     3    20    1
    21     5    21    1
    22     5    22    1
    23     5    23    1
    24     6    24    1
    25     6    25    1
    26     7    26    1
    27     7    27    1
    28     8    28    1
    29     8    29    1
    30    11    30    1
    31    12    31    1
    32    15    32    1
