
     RDKit          3D

 32 32  0  0  0  0  0  0  0  0999 V2000
   -5.3510   -0.5272    1.3458 C   0  0  0  0  0  0  0  0  0  0  0  0
   -4.7398    0.1137    0.5794 C   0  0  0  0  0  0  0  0  0  0  0  0
   -3.9437    0.9767   -0.4618 C   0  0  0  0  0  0  0  0  0  0  0  0
   -2.7224    0.2513   -0.6707 N   0  0  0  0  0  0  0  0  0  0  0  0
   -2.9151   -0.8328   -1.5775 C   0  0  0  0  0  0  0  0  0  0  0  0
   -1.5491    1.0301   -0.7688 C   0  0  0  0  0  0  0  0  0  0  0  0
   -0.2052    0.3835   -0.7362 C   0  0  0  0  0  0  0  0  0  0  0  0
    0.0849   -0.4719    0.5063 C   0  0  0  0  0  0  0  0  0  0  0  0
    1.3848   -0.8648    0.5434 O   0  0  0  0  0  0  0  0  0  0  0  0
    2.6333   -0.4288    0.6651 C   0  0  0  0  0  0  0  0  0  0  0  0
    3.0412    0.8777    0.9308 C   0  0  0  0  0  0  0  0  0  0  0  0
    4.3194    1.2086    1.0416 C   0  0  0  0  0  0  0  0  0  0  0  0
    5.3542    0.2558    0.9043 C   0  0  0  0  0  0  0  0  0  0  0  0
    6.9983    0.7192    1.0313 Cl  0  0  0  0  0  0  0  0  0  0  0  0
    4.9440   -1.0257    0.6459 C   0  0  0  0  0  0  0  0  0  0  0  0
    3.6397   -1.4163    0.5202 C   0  0  0  0  0  0  0  0  0  0  0  0
    3.2298   -3.0935    0.2001 Cl  0  0  0  0  0  0  0  0  0  0  0  0
   -5.9209   -1.1116    2.0736 H   0  0  0  0  0  0  0  0  0  0  0  0
   -3.8469    1.9745   -0.0381 H   0  0  0  0  0  0  0  0  0  0  0  0
   -4.6293    1.0104   -1.3102 H   0  0  0  0  0  0  0  0  0  0  0  0
   -3.5682   -0.5147   -2.4915 H   0  0  0  0  0  0  0  0  0  0  0  0
   -1.9244   -1.1288   -2.0611 H   0  0  0  0  0  0  0  0  0  0  0  0
   -3.3751   -1.7436   -1.1736 H   0  0  0  0  0  0  0  0  0  0  0  0
   -1.5942    1.9052   -0.0643 H   0  0  0  0  0  0  0  0  0  0  0  0
   -1.5578    1.6005   -1.7991 H   0  0  0  0  0  0  0  0  0  0  0  0
    0.5438    1.1534   -0.8626 H   0  0  0  0  0  0  0  0  0  0  0  0
   -0.1360   -0.3228   -1.6268 H   0  0  0  0  0  0  0  0  0  0  0  0
   -0.2513    0.0195    1.4348 H   0  0  0  0  0  0  0  0  0  0  0  0
   -0.5369   -1.4393    0.3508 H   0  0  0  0  0  0  0  0  0  0  0  0
    2.2118    1.6351    1.0718 H   0  0  0  0  0  0  0  0  0  0  0  0
    4.6625    2.2096    1.2614 H   0  0  0  0  0  0  0  0  0  0  0  0
    5.7196   -1.8314    0.5360 H   0  0  0  0  0  0  0  0  0  0  0  0
  1  2  3  0
  2  3  1  0
  3  4  1  0
  4  5  1  0
  4  6  1  0
  6  7  1  0
  7  8  1  0
  8  9  1  0
  9 10  1  0
 10 11  2  0
 11 12  1  0
 12 13  2  0
 13 14  1  0
 13 15  1  0
 15 16  2  0
 16 17  1  0
 16 10  1  0
  1 18  1  0
  3 19  1  0
  3 20  1  0
  5 21  1  0
  5 22  1  0
  5 23  1  0
  6 24  1  0
  6 25  1  0
  7 26  1  0
  7 27  1  0
  8 28  1  0
  8 29  1  0
 11 30  1  0
 12 31  1  0
 15 32  1  0
M  END
$$$$
