@<TRIPOS>MOLECULE
*****
 41 42 0 0 0
SMALL
GASTEIGER

@<TRIPOS>ATOM
      1 C          -4.8160    0.3164    1.9153 C.3     1  UNL1       -0.0253
      2 C          -3.7490    1.4343    1.9646 C.3     1  UNL1        0.1068
      3 C          -4.0494    2.4597    0.9157 C.3     1  UNL1       -0.0253
      4 C          -3.9553    2.1012    3.3326 C.3     1  UNL1       -0.0253
      5 O          -2.5087    0.8014    1.8463 O.3     1  UNL1       -0.4445
      6 C          -1.3129    1.3794    1.7838 C.2     1  UNL1        0.4036
      7 O          -1.1071    2.5994    1.8002 O.2     1  UNL1       -0.2262
      8 N          -0.1096    0.5626    1.6809 N.am    1  UNL1       -0.2633
      9 C          -0.2776   -0.8889    1.6853 C.3     1  UNL1        0.0370
     10 C           0.4880   -1.3094    0.4676 C.2     1  UNL1       -0.0553
     11 C           1.6259   -0.8169    0.1645 C.2     1  UNL1        0.0020
     12 C           2.3622   -1.2287   -1.0569 C.1     1  UNL1       -0.0641
     13 C           2.8847   -1.4997   -1.9040 C.1     1  UNL1       -0.0415
     14 C           3.6450   -1.8660   -3.1306 C.ar    1  UNL1        0.1137
     15 C           3.0663   -1.7144   -4.4020 C.ar    1  UNL1       -0.0278
     16 C           3.7405   -2.0567   -5.5981 C.ar    1  UNL1       -0.0577
     17 C           5.0338   -2.5615   -5.4481 C.ar    1  UNL1       -0.0435
     18 C           5.6536   -2.7259   -4.1220 C.ar    1  UNL1        0.0290
     19 N           4.8272   -2.3392   -3.2190 N.ar    1  UNL1       -0.2467
     20 C           2.2255    0.2755    0.9857 C.3     1  UNL1       -0.0041
     21 C           1.1549    1.1896    1.5409 C.3     1  UNL1        0.0227
     22 H          -4.6247   -0.3604    1.0657 H       1  UNL1        0.0268
     23 H          -4.7446   -0.2647    2.8590 H       1  UNL1        0.0268
     24 H          -5.8138    0.7449    1.8106 H       1  UNL1        0.0268
     25 H          -4.5503    1.9733    0.0499 H       1  UNL1        0.0268
     26 H          -4.6008    3.3338    1.2809 H       1  UNL1        0.0268
     27 H          -3.0662    2.9027    0.5785 H       1  UNL1        0.0268
     28 H          -3.8699    3.1955    3.3084 H       1  UNL1        0.0268
     29 H          -5.0018    1.8838    3.6158 H       1  UNL1        0.0268
     30 H          -3.3058    1.6585    4.1212 H       1  UNL1        0.0268
     31 H          -1.3697   -1.0771    1.4801 H       1  UNL1        0.0509
     32 H           0.1466   -1.3953    2.5485 H       1  UNL1        0.0509
     33 H          -0.0156   -2.0734   -0.1298 H       1  UNL1        0.0597
     34 H           2.0562   -1.2716   -4.4602 H       1  UNL1        0.0645
     35 H           3.3106   -1.9686   -6.5489 H       1  UNL1        0.0619
     36 H           5.6219   -2.8443   -6.2583 H       1  UNL1        0.0633
     37 H           6.6346   -3.1202   -4.1222 H       1  UNL1        0.0830
     38 H           2.8597    0.8736    0.2423 H       1  UNL1        0.0335
     39 H           2.9293   -0.0660    1.7353 H       1  UNL1        0.0335
     40 H           1.5408    1.7008    2.4441 H       1  UNL1        0.0469
     41 H           1.0416    2.0624    0.8199 H       1  UNL1        0.0469
@<TRIPOS>BOND
     1     1     2    1
     2     2     3    1
     3     2     4    1
     4     2     5    1
     5     5     6    1
     6     6     7    2
     7     6     8   am
     8     8     9    1
     9     9    10    1
    10    10    11    2
    11    11    12    1
    12    12    13    3
    13    13    14    1
    14    14    15   ar
    15    15    16   ar
    16    16    17   ar
    17    17    18   ar
    18    18    19   ar
    19    11    20    1
    20    20    21    1
    21    21     8    1
    22    19    14   ar
    23     1    22    1
    24     1    23    1
    25     1    24    1
    26     3    25    1
    27     3    26    1
    28     3    27    1
    29     4    28    1
    30     4    29    1
    31     4    30    1
    32     9    31    1
    33     9    32    1
    34    10    33    1
    35    15    34    1
    36    16    35    1
    37    17    36    1
    38    18    37    1
    39    20    38    1
    40    20    39    1
    41    21    40    1
    42    21    41    1
