@<TRIPOS>MOLECULE
*****
 63 66 0 0 0
SMALL
GASTEIGER

@<TRIPOS>ATOM
      1 C           0.2499   -3.8366   -1.2454 C.3     1  UNL1       -0.0421
      2 C           0.1563   -2.8128   -0.1882 C.3     1  UNL1        0.0515
      3 C           1.4084   -1.9744   -0.2179 C.ar    1  UNL1       -0.0271
      4 C           2.4619   -2.3893    0.6047 C.ar    1  UNL1       -0.0562
      5 C           3.6284   -1.6998    0.6514 C.ar    1  UNL1       -0.0537
      6 C           3.7714   -0.5691   -0.1299 C.ar    1  UNL1       -0.0165
      7 C           5.0244    0.1491   -0.0645 C.ar    1  UNL1       -0.0015
      8 C           6.1783   -0.5634    0.1713 C.ar    1  UNL1       -0.0475
      9 C           7.3790    0.1169    0.2348 C.ar    1  UNL1        0.0036
     10 C           7.3655    1.4855    0.0579 C.ar    1  UNL1        0.2511
     11 O           8.4534    2.1283    0.1120 O.2     1  UNL1       -0.2677
     12 N           6.2203    2.1600   -0.1720 N.ar    1  UNL1       -0.3177
     13 C           6.2856    3.6127   -0.3495 C.3     1  UNL1        0.0147
     14 C           5.0398    1.5209   -0.2382 C.ar    1  UNL1        0.0153
     15 C           2.7604   -0.1329   -0.9478 C.ar    1  UNL1       -0.0537
     16 C           1.5715   -0.8647   -0.9734 C.ar    1  UNL1       -0.0562
     17 N          -1.0038   -1.9676   -0.2028 N.am    1  UNL1       -0.2605
     18 C          -1.7696   -1.8551    1.0271 C.3     1  UNL1        0.0224
     19 C          -2.3229   -0.4864    1.2460 C.3     1  UNL1        0.0075
     20 C          -2.8088    0.2540    0.0637 C.3     1  UNL1        0.1415
     21 C          -2.7364    1.7544    0.2606 C.3     1  UNL1       -0.0064
     22 C          -3.5647    2.2230    1.4270 C.3     1  UNL1       -0.0258
     23 C          -3.4240    3.7450    1.5435 C.3     1  UNL1        0.0443
     24 O          -2.0918    4.1102    1.7506 O.3     1  UNL1       -0.3950
     25 C          -4.1791   -0.1700   -0.3559 C.ar    1  UNL1       -0.0041
     26 C          -4.4712   -0.3560   -1.7055 C.ar    1  UNL1       -0.0548
     27 C          -5.7081   -0.7393   -2.1413 C.ar    1  UNL1       -0.0614
     28 C          -6.7142   -0.9546   -1.2335 C.ar    1  UNL1       -0.0617
     29 C          -6.4573   -0.7795    0.1023 C.ar    1  UNL1       -0.0614
     30 C          -5.2149   -0.3953    0.5283 C.ar    1  UNL1       -0.0548
     31 O          -1.9719    0.0125   -1.0981 O.3     1  UNL1       -0.4388
     32 C          -1.4413   -1.2192   -1.3288 C.2     1  UNL1        0.4042
     33 O          -1.3380   -1.6877   -2.4701 O.2     1  UNL1       -0.2262
     34 H          -0.7284   -4.3595   -1.4108 H       1  UNL1        0.0251
     35 H           0.9378   -4.6516   -0.8804 H       1  UNL1        0.0251
     36 H           0.6961   -3.4942   -2.2002 H       1  UNL1        0.0251
     37 H           0.1869   -3.3709    0.8240 H       1  UNL1        0.0549
     38 H           2.3239   -3.2923    1.2156 H       1  UNL1        0.0621
     39 H           4.4391   -2.0416    1.3014 H       1  UNL1        0.0624
     40 H           6.1764   -1.6401    0.3089 H       1  UNL1        0.0626
     41 H           8.2950   -0.4428    0.4214 H       1  UNL1        0.0672
     42 H           7.1125    3.9784    0.3133 H       1  UNL1        0.0457
     43 H           6.5197    3.8075   -1.4296 H       1  UNL1        0.0457
     44 H           5.3362    4.0943   -0.0495 H       1  UNL1        0.0457
     45 H           4.1106    2.0629   -0.4240 H       1  UNL1        0.0816
     46 H           2.9026    0.7494   -1.5425 H       1  UNL1        0.0624
     47 H           0.8207   -0.4692   -1.6310 H       1  UNL1        0.0621
     48 H          -2.5661   -2.6185    0.9889 H       1  UNL1        0.0467
     49 H          -1.0962   -2.1166    1.8622 H       1  UNL1        0.0467
     50 H          -1.4956    0.1227    1.7134 H       1  UNL1        0.0322
     51 H          -3.1101   -0.5402    2.0150 H       1  UNL1        0.0322
     52 H          -1.6679    1.9914    0.4785 H       1  UNL1        0.0308
     53 H          -2.9895    2.2504   -0.6771 H       1  UNL1        0.0308
     54 H          -3.2656    1.8015    2.3811 H       1  UNL1        0.0289
     55 H          -4.6371    2.0638    1.1672 H       1  UNL1        0.0289
     56 H          -3.7848    4.2020    0.5860 H       1  UNL1        0.0557
     57 H          -4.0587    4.1324    2.3691 H       1  UNL1        0.0557
     58 H          -1.6173    3.4935    2.3465 H       1  UNL1        0.2094
     59 H          -3.6823   -0.1879   -2.4264 H       1  UNL1        0.0622
     60 H          -5.9155   -0.8797   -3.2074 H       1  UNL1        0.0618
     61 H          -7.7065   -1.2608   -1.5623 H       1  UNL1        0.0618
     62 H          -7.2416   -0.9450    0.8369 H       1  UNL1        0.0618
     63 H          -5.0307   -0.2580    1.5930 H       1  UNL1        0.0622
@<TRIPOS>BOND
     1     1     2    1
     2     2     3    1
     3     3     4   ar
     4     4     5   ar
     5     5     6   ar
     6     6     7    1
     7     7     8   ar
     8     8     9   ar
     9     9    10   ar
    10    10    11    2
    11    10    12   ar
    12    12    13    1
    13    12    14   ar
    14     6    15   ar
    15    15    16   ar
    16     2    17    1
    17    17    18    1
    18    18    19    1
    19    19    20    1
    20    20    21    1
    21    21    22    1
    22    22    23    1
    23    23    24    1
    24    20    25    1
    25    25    26   ar
    26    26    27   ar
    27    27    28   ar
    28    28    29   ar
    29    29    30   ar
    30    20    31    1
    31    31    32    1
    32    32    33    2
    33    16     3   ar
    34    32    17   am
    35    14     7   ar
    36    30    25   ar
    37     1    34    1
    38     1    35    1
    39     1    36    1
    40     2    37    1
    41     4    38    1
    42     5    39    1
    43     8    40    1
    44     9    41    1
    45    13    42    1
    46    13    43    1
    47    13    44    1
    48    14    45    1
    49    15    46    1
    50    16    47    1
    51    18    48    1
    52    18    49    1
    53    19    50    1
    54    19    51    1
    55    21    52    1
    56    21    53    1
    57    22    54    1
    58    22    55    1
    59    23    56    1
    60    23    57    1
    61    24    58    1
    62    26    59    1
    63    27    60    1
    64    28    61    1
    65    29    62    1
    66    30    63    1
