@<TRIPOS>MOLECULE
*****
 42 45 0 0 0
SMALL
GASTEIGER

@<TRIPOS>ATOM
      1 C           5.2285   -0.0421   -1.2552 C.3     1  UNL1        0.0365
      2 C           6.0134   -1.3093   -1.0007 C.3     1  UNL1       -0.0450
      3 C           5.3551    1.0507   -0.2895 C.3     1  UNL1        0.0309
      4 N           4.1032    0.2050   -0.3726 N.pl3   1  UNL1       -0.3208
      5 C           2.8184    0.0846    0.2516 C.2     1  UNL1        0.0817
      6 C           2.7076   -0.1879    1.5362 C.2     1  UNL1        0.0120
      7 C           1.3614   -0.2911    2.0829 C.2     1  UNL1        0.2049
      8 O           1.2265   -0.5497    3.3037 O.2     1  UNL1       -0.2856
      9 C           0.1451   -0.1095    1.2852 C.ar    1  UNL1        0.1007
     10 C           0.3296    0.1764   -0.0662 C.ar    1  UNL1        0.0581
     11 C          -0.9399    0.3113   -0.6312 C.ar    1  UNL1        0.0148
     12 C          -1.1171    0.6210   -2.0785 C.3     1  UNL1        0.0719
     13 O          -0.8839   -0.4892   -2.8732 O.3     1  UNL1       -0.3903
     14 C          -1.8477    0.1076    0.3747 C.ar    1  UNL1        0.0555
     15 N          -1.1819   -0.1404    1.5016 N.ar    1  UNL1       -0.3396
     16 C          -1.7515   -0.4133    2.7956 C.3     1  UNL1        0.0125
     17 C          -3.2662    0.1776    0.1305 C.ar    1  UNL1       -0.0012
     18 C          -3.8846   -0.4242   -0.9482 C.ar    1  UNL1       -0.0526
     19 C          -5.2608   -0.3080   -1.1159 C.ar    1  UNL1       -0.0611
     20 C          -6.0030    0.4167   -0.1911 C.ar    1  UNL1       -0.0617
     21 C          -5.4055    1.0355    0.9082 C.ar    1  UNL1       -0.0611
     22 C          -4.0283    0.8964    1.0412 C.ar    1  UNL1       -0.0526
     23 C           1.6763    0.2815   -0.6213 C.2     1  UNL1        0.2095
     24 O           1.8262    0.5417   -1.8509 O.2     1  UNL1       -0.2852
     25 H           5.0263    0.1663   -2.3095 H       1  UNL1        0.0512
     26 H           5.3264   -2.1791   -1.0296 H       1  UNL1        0.0248
     27 H           6.7988   -1.4387   -1.7486 H       1  UNL1        0.0248
     28 H           6.5142   -1.2652   -0.0017 H       1  UNL1        0.0248
     29 H           5.8719    0.8751    0.6699 H       1  UNL1        0.0482
     30 H           5.2131    2.1092   -0.5986 H       1  UNL1        0.0482
     31 H           3.5940   -0.3263    2.1463 H       1  UNL1        0.0676
     32 H          -2.1417    1.0417   -2.2265 H       1  UNL1        0.0608
     33 H          -0.4179    1.4085   -2.4051 H       1  UNL1        0.0608
     34 H          -1.6708   -0.6682   -3.4123 H       1  UNL1        0.2098
     35 H          -2.8252   -0.6599    2.7569 H       1  UNL1        0.0456
     36 H          -1.4940    0.4266    3.4714 H       1  UNL1        0.0456
     37 H          -1.2311   -1.3243    3.1895 H       1  UNL1        0.0456
     38 H          -3.3006   -0.9850   -1.6621 H       1  UNL1        0.0624
     39 H          -5.7128   -0.7923   -1.9722 H       1  UNL1        0.0618
     40 H          -7.0709    0.5105   -0.3150 H       1  UNL1        0.0618
     41 H          -6.0344    1.5864    1.5960 H       1  UNL1        0.0618
     42 H          -3.6665    1.4217    1.9338 H       1  UNL1        0.0624
@<TRIPOS>BOND
     1     1     2    1
     2     1     3    1
     3     3     4    1
     4     4     5    1
     5     5     6    2
     6     6     7    1
     7     7     8    2
     8     7     9    1
     9     9    10   ar
    10    10    11   ar
    11    11    12    1
    12    12    13    1
    13    11    14   ar
    14    14    15   ar
    15    15    16    1
    16    14    17    1
    17    17    18   ar
    18    18    19   ar
    19    19    20   ar
    20    20    21   ar
    21    21    22   ar
    22    10    23    1
    23    23    24    2
    24     4     1    1
    25    23     5    1
    26    15     9   ar
    27    22    17   ar
    28     1    25    1
    29     2    26    1
    30     2    27    1
    31     2    28    1
    32     3    29    1
    33     3    30    1
    34     6    31    1
    35    12    32    1
    36    12    33    1
    37    13    34    1
    38    16    35    1
    39    16    36    1
    40    16    37    1
    41    18    38    1
    42    19    39    1
    43    20    40    1
    44    21    41    1
    45    22    42    1
