
     RDKit          3D

 42 45  0  0  0  0  0  0  0  0999 V2000
    5.2285   -0.0421   -1.2552 C   0  0  2  0  0  0  0  0  0  0  0  0
    6.0134   -1.3093   -1.0007 C   0  0  0  0  0  0  0  0  0  0  0  0
    5.3551    1.0507   -0.2895 C   0  0  0  0  0  0  0  0  0  0  0  0
    4.1032    0.2050   -0.3726 N   0  0  0  0  0  0  0  0  0  0  0  0
    2.8184    0.0846    0.2516 C   0  0  0  0  0  0  0  0  0  0  0  0
    2.7076   -0.1879    1.5362 C   0  0  0  0  0  0  0  0  0  0  0  0
    1.3614   -0.2911    2.0829 C   0  0  0  0  0  0  0  0  0  0  0  0
    1.2265   -0.5497    3.3037 O   0  0  0  0  0  0  0  0  0  0  0  0
    0.1451   -0.1095    1.2852 C   0  0  0  0  0  0  0  0  0  0  0  0
    0.3296    0.1764   -0.0662 C   0  0  0  0  0  0  0  0  0  0  0  0
   -0.9399    0.3113   -0.6312 C   0  0  0  0  0  0  0  0  0  0  0  0
   -1.1171    0.6210   -2.0785 C   0  0  0  0  0  0  0  0  0  0  0  0
   -0.8839   -0.4892   -2.8732 O   0  0  0  0  0  0  0  0  0  0  0  0
   -1.8477    0.1076    0.3747 C   0  0  0  0  0  0  0  0  0  0  0  0
   -1.1819   -0.1404    1.5016 N   0  0  0  0  0  0  0  0  0  0  0  0
   -1.7515   -0.4133    2.7956 C   0  0  0  0  0  0  0  0  0  0  0  0
   -3.2662    0.1776    0.1305 C   0  0  0  0  0  0  0  0  0  0  0  0
   -3.8846   -0.4242   -0.9482 C   0  0  0  0  0  0  0  0  0  0  0  0
   -5.2608   -0.3080   -1.1159 C   0  0  0  0  0  0  0  0  0  0  0  0
   -6.0030    0.4167   -0.1911 C   0  0  0  0  0  0  0  0  0  0  0  0
   -5.4055    1.0355    0.9082 C   0  0  0  0  0  0  0  0  0  0  0  0
   -4.0283    0.8964    1.0412 C   0  0  0  0  0  0  0  0  0  0  0  0
    1.6763    0.2815   -0.6213 C   0  0  0  0  0  0  0  0  0  0  0  0
    1.8262    0.5417   -1.8509 O   0  0  0  0  0  0  0  0  0  0  0  0
    5.0263    0.1663   -2.3095 H   0  0  0  0  0  0  0  0  0  0  0  0
    5.3264   -2.1791   -1.0296 H   0  0  0  0  0  0  0  0  0  0  0  0
    6.7988   -1.4387   -1.7486 H   0  0  0  0  0  0  0  0  0  0  0  0
    6.5142   -1.2652   -0.0017 H   0  0  0  0  0  0  0  0  0  0  0  0
    5.8719    0.8751    0.6699 H   0  0  0  0  0  0  0  0  0  0  0  0
    5.2131    2.1092   -0.5986 H   0  0  0  0  0  0  0  0  0  0  0  0
    3.5940   -0.3263    2.1463 H   0  0  0  0  0  0  0  0  0  0  0  0
   -2.1417    1.0417   -2.2265 H   0  0  0  0  0  0  0  0  0  0  0  0
   -0.4179    1.4085   -2.4051 H   0  0  0  0  0  0  0  0  0  0  0  0
   -1.6708   -0.6682   -3.4123 H   0  0  0  0  0  0  0  0  0  0  0  0
   -2.8252   -0.6599    2.7569 H   0  0  0  0  0  0  0  0  0  0  0  0
   -1.4940    0.4266    3.4714 H   0  0  0  0  0  0  0  0  0  0  0  0
   -1.2311   -1.3243    3.1895 H   0  0  0  0  0  0  0  0  0  0  0  0
   -3.3006   -0.9850   -1.6621 H   0  0  0  0  0  0  0  0  0  0  0  0
   -5.7128   -0.7923   -1.9722 H   0  0  0  0  0  0  0  0  0  0  0  0
   -7.0709    0.5105   -0.3150 H   0  0  0  0  0  0  0  0  0  0  0  0
   -6.0344    1.5864    1.5960 H   0  0  0  0  0  0  0  0  0  0  0  0
   -3.6665    1.4217    1.9338 H   0  0  0  0  0  0  0  0  0  0  0  0
  1  2  1  0
  1  3  1  0
  3  4  1  0
  4  5  1  0
  5  6  2  0
  6  7  1  0
  7  8  2  0
  7  9  1  0
  9 10  2  0
 10 11  1  0
 11 12  1  0
 12 13  1  0
 11 14  2  0
 14 15  1  0
 15 16  1  0
 14 17  1  0
 17 18  2  0
 18 19  1  0
 19 20  2  0
 20 21  1  0
 21 22  2  0
 10 23  1  0
 23 24  2  0
  4  1  1  0
 23  5  1  0
 15  9  1  0
 22 17  1  0
  1 25  1  6
  2 26  1  0
  2 27  1  0
  2 28  1  0
  3 29  1  0
  3 30  1  0
  6 31  1  0
 12 32  1  0
 12 33  1  0
 13 34  1  0
 16 35  1  0
 16 36  1  0
 16 37  1  0
 18 38  1  0
 19 39  1  0
 20 40  1  0
 21 41  1  0
 22 42  1  0
M  END
$$$$
