@<TRIPOS>MOLECULE
*****
 47 49 0 0 0
SMALL
GASTEIGER

@<TRIPOS>ATOM
      1 C          -2.7861   -1.2217    2.1989 C.3     1  UNL1        0.0780
      2 O          -2.7216   -0.9878    0.7945 O.2     1  UNL1       -0.5018
      3 C          -3.8008   -0.4472    0.1568 C.2     1  UNL1        0.0987
      4 C          -3.6652    0.8079   -0.1563 C.2     1  UNL1        0.1037
      5 C          -4.9447    1.1160   -0.8035 C.2     1  UNL1        0.3426
      6 O          -5.6317    2.0017   -1.3643 O.2     1  UNL1       -0.2448
      7 O          -6.0640    0.3859   -1.0750 O.3     1  UNL1       -0.4644
      8 C          -7.2224    0.8583   -1.7191 C.3     1  UNL1        0.0820
      9 C          -2.6084    1.7820   -0.1039 C.ar    1  UNL1        0.0342
     10 C          -3.1199    3.0888   -0.1952 C.ar    1  UNL1       -0.0502
     11 C          -2.3393    4.2213   -0.2090 C.ar    1  UNL1       -0.0610
     12 C          -0.9806    4.0253   -0.1269 C.ar    1  UNL1       -0.0582
     13 C          -0.4929    2.7447   -0.0392 C.ar    1  UNL1       -0.0187
     14 C          -1.2426    1.5948   -0.0241 C.ar    1  UNL1        0.1383
     15 O          -0.8154    0.3436    0.0504 O.3     1  UNL1       -0.4372
     16 C           0.3406   -0.3253    0.1198 C.ar    1  UNL1        0.2270
     17 N           0.1553   -1.6500    0.1661 N.ar    1  UNL1       -0.2009
     18 C           1.1200   -2.5678    0.2382 C.ar    1  UNL1        0.1236
     19 N           2.4135   -2.1692    0.2697 N.ar    1  UNL1       -0.2009
     20 C           2.7128   -0.8361    0.2272 C.ar    1  UNL1        0.2270
     21 O           3.9953   -0.3728    0.2557 O.3     1  UNL1       -0.4365
     22 C           5.1273   -1.1247    0.3278 C.ar    1  UNL1        0.1476
     23 C           5.9435   -0.9039    1.4265 C.ar    1  UNL1       -0.0180
     24 C           7.1355   -1.5877    1.6506 C.ar    1  UNL1       -0.0582
     25 C           7.4675   -2.5200    0.6952 C.ar    1  UNL1       -0.0603
     26 C           6.7171   -2.8056   -0.4281 C.ar    1  UNL1       -0.0408
     27 C           5.5463   -2.0821   -0.5772 C.ar    1  UNL1        0.0940
     28 C           4.6713   -2.2870   -1.7114 C.1     1  UNL1        0.1028
     29 N           3.9858   -2.4575   -2.6305 N.1     1  UNL1       -0.1907
     30 C           1.6452    0.0237    0.1536 C.ar    1  UNL1        0.0623
     31 H          -1.8202   -1.6701    2.5750 H       1  UNL1        0.0660
     32 H          -3.5793   -1.9063    2.5010 H       1  UNL1        0.0660
     33 H          -2.8914   -0.2709    2.7612 H       1  UNL1        0.0660
     34 H          -4.5435   -1.2017    0.0526 H       1  UNL1        0.1031
     35 H          -8.0026    0.0370   -1.7475 H       1  UNL1        0.0661
     36 H          -7.0088    1.1995   -2.7535 H       1  UNL1        0.0661
     37 H          -7.7159    1.6983   -1.1907 H       1  UNL1        0.0661
     38 H          -4.1946    3.3408   -0.2560 H       1  UNL1        0.0625
     39 H          -2.7522    5.2089   -0.2782 H       1  UNL1        0.0618
     40 H          -0.3746    4.9217   -0.1373 H       1  UNL1        0.0619
     41 H           0.5800    2.7679    0.0181 H       1  UNL1        0.0654
     42 H           1.0001   -3.6399    0.2768 H       1  UNL1        0.1049
     43 H           5.6928   -0.1632    2.1982 H       1  UNL1        0.0655
     44 H           7.7534   -1.3956    2.5166 H       1  UNL1        0.0619
     45 H           8.4062   -3.0708    0.8549 H       1  UNL1        0.0618
     46 H           7.0078   -3.5462   -1.1608 H       1  UNL1        0.0632
     47 H           1.9012    1.0431    0.1210 H       1  UNL1        0.0725
@<TRIPOS>BOND
     1     1     2    1
     2     2     3    1
     3     3     4    2
     4     4     5    1
     5     5     6    2
     6     5     7    1
     7     7     8    1
     8     4     9    1
     9     9    10   ar
    10    10    11   ar
    11    11    12   ar
    12    12    13   ar
    13    13    14   ar
    14    14    15    1
    15    15    16    1
    16    16    17   ar
    17    17    18   ar
    18    18    19   ar
    19    19    20   ar
    20    20    21    1
    21    21    22    1
    22    22    23   ar
    23    23    24   ar
    24    24    25   ar
    25    25    26   ar
    26    26    27   ar
    27    27    28    1
    28    28    29    3
    29    20    30   ar
    30    14     9   ar
    31    30    16   ar
    32    27    22   ar
    33     1    31    1
    34     1    32    1
    35     1    33    1
    36     3    34    1
    37     8    35    1
    38     8    36    1
    39     8    37    1
    40    10    38    1
    41    11    39    1
    42    12    40    1
    43    13    41    1
    44    18    42    1
    45    23    43    1
    46    24    44    1
    47    25    45    1
    48    26    46    1
    49    30    47    1
