@<TRIPOS>MOLECULE
*****
 54 56 0 0 0
SMALL
GASTEIGER

@<TRIPOS>ATOM
      1 C           1.8535    0.1475    0.4121 C.3     1  UNL1        0.0172
      2 N           2.1510    0.6188   -0.9392 N.3     1  UNL1       -0.3265
      3 C           0.6987   -0.8240    0.3422 C.3     1  UNL1        0.0411
      4 C          -0.5246   -0.2127   -0.2218 C.2     1  UNL1        0.2333
      5 O          -0.1946    0.9757   -0.3516 O.2     1  UNL1       -0.2740
      6 N          -1.5430   -1.2309   -0.3760 N.am    1  UNL1       -0.2176
      7 C          -1.4074   -2.6301   -0.0107 C.3     1  UNL1        0.0342
      8 C          -1.2882   -3.5557   -1.1657 C.3     1  UNL1       -0.0354
      9 C          -2.2488   -3.2867   -2.3014 C.3     1  UNL1       -0.0501
     10 C          -3.5676   -2.7735   -1.7774 C.3     1  UNL1       -0.0354
     11 C          -3.5851   -1.2698   -1.9689 C.3     1  UNL1        0.0345
     12 N          -2.7070   -0.6618   -0.9560 N.am    1  UNL1       -0.2139
     13 C          -3.1567    0.6175   -0.5847 C.2     1  UNL1        0.2629
     14 O          -4.1808    0.8857   -1.2458 O.2     1  UNL1       -0.2684
     15 C          -3.0624    1.8364    0.1873 C.ar    1  UNL1        0.0384
     16 C          -3.4971    1.5756    1.4935 C.ar    1  UNL1       -0.0496
     17 C          -3.5219    2.5567    2.4608 C.ar    1  UNL1       -0.0610
     18 C          -3.0858    3.8102    2.0463 C.ar    1  UNL1       -0.0617
     19 C          -2.6624    4.0441    0.7574 C.ar    1  UNL1       -0.0610
     20 C          -2.6359    3.0695   -0.2147 C.ar    1  UNL1       -0.0496
     21 C           3.0549   -0.6584    0.9296 C.3     1  UNL1       -0.0092
     22 C           4.2603    0.2119    0.9403 C.ar    1  UNL1       -0.0078
     23 C           4.5601    1.1679    1.8612 C.ar    1  UNL1        0.1295
     24 F           3.7068    1.3571    2.8811 F       1  UNL1       -0.2051
     25 C           5.7089    1.9423    1.7765 C.ar    1  UNL1        0.0119
     26 C           6.6219    1.7807    0.7342 C.ar    1  UNL1        0.1611
     27 F           7.7097    2.5627    0.7144 F       1  UNL1       -0.2024
     28 C           6.3185    0.8134   -0.1958 C.ar    1  UNL1        0.1588
     29 F           7.1990    0.6413   -1.2204 F       1  UNL1       -0.2025
     30 C           5.1600    0.0461   -0.0909 C.ar    1  UNL1       -0.0176
     31 H           1.6022    0.9517    1.0944 H       1  UNL1        0.0466
     32 H           1.5445    0.1786   -1.6502 H       1  UNL1        0.1185
     33 H           2.0731    1.6493   -0.9747 H       1  UNL1        0.1185
     34 H           0.5157   -1.1267    1.4117 H       1  UNL1        0.0374
     35 H           1.0337   -1.6783   -0.2573 H       1  UNL1        0.0374
     36 H          -2.1812   -2.9725    0.7240 H       1  UNL1        0.0483
     37 H          -0.4509   -2.7280    0.5865 H       1  UNL1        0.0483
     38 H          -0.2581   -3.5575   -1.5868 H       1  UNL1        0.0281
     39 H          -1.4805   -4.5937   -0.8269 H       1  UNL1        0.0281
     40 H          -1.7504   -2.5643   -3.0018 H       1  UNL1        0.0266
     41 H          -2.4573   -4.2340   -2.8180 H       1  UNL1        0.0266
     42 H          -3.6291   -3.0485   -0.6956 H       1  UNL1        0.0281
     43 H          -4.4445   -3.2258   -2.2524 H       1  UNL1        0.0281
     44 H          -3.1801   -1.0585   -2.9718 H       1  UNL1        0.0483
     45 H          -4.5965   -0.8527   -1.8806 H       1  UNL1        0.0483
     46 H          -3.8548    0.6144    1.8945 H       1  UNL1        0.0625
     47 H          -3.8421    2.4378    3.4760 H       1  UNL1        0.0618
     48 H          -3.0855    4.6164    2.7683 H       1  UNL1        0.0618
     49 H          -2.3274    5.0339    0.4608 H       1  UNL1        0.0618
     50 H          -2.3271    3.1540   -1.2300 H       1  UNL1        0.0625
     51 H           3.2046   -1.4916    0.2214 H       1  UNL1        0.0329
     52 H           2.8341   -1.0749    1.9267 H       1  UNL1        0.0329
     53 H           5.8783    2.6842    2.5502 H       1  UNL1        0.0676
     54 H           5.0455   -0.6709   -0.8840 H       1  UNL1        0.0651
@<TRIPOS>BOND
     1     1     2    1
     2     1     3    1
     3     3     4    1
     4     4     5    2
     5     4     6   am
     6     6     7    1
     7     7     8    1
     8     8     9    1
     9     9    10    1
    10    10    11    1
    11    11    12    1
    12    12    13   am
    13    13    14    2
    14    13    15    1
    15    15    16   ar
    16    16    17   ar
    17    17    18   ar
    18    18    19   ar
    19    19    20   ar
    20     1    21    1
    21    21    22    1
    22    22    23   ar
    23    23    24    1
    24    23    25   ar
    25    25    26   ar
    26    26    27    1
    27    26    28   ar
    28    28    29    1
    29    28    30   ar
    30    12     6    1
    31    20    15   ar
    32    30    22   ar
    33     1    31    1
    34     2    32    1
    35     2    33    1
    36     3    34    1
    37     3    35    1
    38     7    36    1
    39     7    37    1
    40     8    38    1
    41     8    39    1
    42     9    40    1
    43     9    41    1
    44    10    42    1
    45    10    43    1
    46    11    44    1
    47    11    45    1
    48    16    46    1
    49    17    47    1
    50    18    48    1
    51    19    49    1
    52    20    50    1
    53    21    51    1
    54    21    52    1
    55    25    53    1
    56    30    54    1
