
     RDKit          3D

 54 56  0  0  0  0  0  0  0  0999 V2000
    1.8535    0.1475    0.4121 C   0  0  1  0  0  0  0  0  0  0  0  0
    2.1510    0.6188   -0.9392 N   0  0  0  0  0  0  0  0  0  0  0  0
    0.6987   -0.8240    0.3422 C   0  0  0  0  0  0  0  0  0  0  0  0
   -0.5246   -0.2127   -0.2218 C   0  0  0  0  0  0  0  0  0  0  0  0
   -0.1946    0.9757   -0.3516 O   0  0  0  0  0  0  0  0  0  0  0  0
   -1.5430   -1.2309   -0.3760 N   0  0  0  0  0  0  0  0  0  0  0  0
   -1.4074   -2.6301   -0.0107 C   0  0  0  0  0  0  0  0  0  0  0  0
   -1.2882   -3.5557   -1.1657 C   0  0  0  0  0  0  0  0  0  0  0  0
   -2.2488   -3.2867   -2.3014 C   0  0  0  0  0  0  0  0  0  0  0  0
   -3.5676   -2.7735   -1.7774 C   0  0  0  0  0  0  0  0  0  0  0  0
   -3.5851   -1.2698   -1.9689 C   0  0  0  0  0  0  0  0  0  0  0  0
   -2.7070   -0.6618   -0.9560 N   0  0  0  0  0  0  0  0  0  0  0  0
   -3.1567    0.6175   -0.5847 C   0  0  0  0  0  0  0  0  0  0  0  0
   -4.1808    0.8857   -1.2458 O   0  0  0  0  0  0  0  0  0  0  0  0
   -3.0624    1.8364    0.1873 C   0  0  0  0  0  0  0  0  0  0  0  0
   -3.4971    1.5756    1.4935 C   0  0  0  0  0  0  0  0  0  0  0  0
   -3.5219    2.5567    2.4608 C   0  0  0  0  0  0  0  0  0  0  0  0
   -3.0858    3.8102    2.0463 C   0  0  0  0  0  0  0  0  0  0  0  0
   -2.6624    4.0441    0.7574 C   0  0  0  0  0  0  0  0  0  0  0  0
   -2.6359    3.0695   -0.2147 C   0  0  0  0  0  0  0  0  0  0  0  0
    3.0549   -0.6584    0.9296 C   0  0  0  0  0  0  0  0  0  0  0  0
    4.2603    0.2119    0.9403 C   0  0  0  0  0  0  0  0  0  0  0  0
    4.5601    1.1679    1.8612 C   0  0  0  0  0  0  0  0  0  0  0  0
    3.7068    1.3571    2.8811 F   0  0  0  0  0  0  0  0  0  0  0  0
    5.7089    1.9423    1.7765 C   0  0  0  0  0  0  0  0  0  0  0  0
    6.6219    1.7807    0.7342 C   0  0  0  0  0  0  0  0  0  0  0  0
    7.7097    2.5627    0.7144 F   0  0  0  0  0  0  0  0  0  0  0  0
    6.3185    0.8134   -0.1958 C   0  0  0  0  0  0  0  0  0  0  0  0
    7.1990    0.6413   -1.2204 F   0  0  0  0  0  0  0  0  0  0  0  0
    5.1600    0.0461   -0.0909 C   0  0  0  0  0  0  0  0  0  0  0  0
    1.6022    0.9517    1.0944 H   0  0  0  0  0  0  0  0  0  0  0  0
    1.5445    0.1786   -1.6502 H   0  0  0  0  0  0  0  0  0  0  0  0
    2.0731    1.6493   -0.9747 H   0  0  0  0  0  0  0  0  0  0  0  0
    0.5157   -1.1267    1.4117 H   0  0  0  0  0  0  0  0  0  0  0  0
    1.0337   -1.6783   -0.2573 H   0  0  0  0  0  0  0  0  0  0  0  0
   -2.1812   -2.9725    0.7240 H   0  0  0  0  0  0  0  0  0  0  0  0
   -0.4509   -2.7280    0.5865 H   0  0  0  0  0  0  0  0  0  0  0  0
   -0.2581   -3.5575   -1.5868 H   0  0  0  0  0  0  0  0  0  0  0  0
   -1.4805   -4.5937   -0.8269 H   0  0  0  0  0  0  0  0  0  0  0  0
   -1.7504   -2.5643   -3.0018 H   0  0  0  0  0  0  0  0  0  0  0  0
   -2.4573   -4.2340   -2.8180 H   0  0  0  0  0  0  0  0  0  0  0  0
   -3.6291   -3.0485   -0.6956 H   0  0  0  0  0  0  0  0  0  0  0  0
   -4.4445   -3.2258   -2.2524 H   0  0  0  0  0  0  0  0  0  0  0  0
   -3.1801   -1.0585   -2.9718 H   0  0  0  0  0  0  0  0  0  0  0  0
   -4.5965   -0.8527   -1.8806 H   0  0  0  0  0  0  0  0  0  0  0  0
   -3.8548    0.6144    1.8945 H   0  0  0  0  0  0  0  0  0  0  0  0
   -3.8421    2.4378    3.4760 H   0  0  0  0  0  0  0  0  0  0  0  0
   -3.0855    4.6164    2.7683 H   0  0  0  0  0  0  0  0  0  0  0  0
   -2.3274    5.0339    0.4608 H   0  0  0  0  0  0  0  0  0  0  0  0
   -2.3271    3.1540   -1.2300 H   0  0  0  0  0  0  0  0  0  0  0  0
    3.2046   -1.4916    0.2214 H   0  0  0  0  0  0  0  0  0  0  0  0
    2.8341   -1.0749    1.9267 H   0  0  0  0  0  0  0  0  0  0  0  0
    5.8783    2.6842    2.5502 H   0  0  0  0  0  0  0  0  0  0  0  0
    5.0455   -0.6709   -0.8840 H   0  0  0  0  0  0  0  0  0  0  0  0
  1  2  1  0
  1  3  1  0
  3  4  1  0
  4  5  2  0
  4  6  1  0
  6  7  1  0
  7  8  1  0
  8  9  1  0
  9 10  1  0
 10 11  1  0
 11 12  1  0
 12 13  1  0
 13 14  2  0
 13 15  1  0
 15 16  2  0
 16 17  1  0
 17 18  2  0
 18 19  1  0
 19 20  2  0
  1 21  1  0
 21 22  1  0
 22 23  2  0
 23 24  1  0
 23 25  1  0
 25 26  2  0
 26 27  1  0
 26 28  1  0
 28 29  1  0
 28 30  2  0
 12  6  1  0
 20 15  1  0
 30 22  1  0
  1 31  1  1
  2 32  1  0
  2 33  1  0
  3 34  1  0
  3 35  1  0
  7 36  1  0
  7 37  1  0
  8 38  1  0
  8 39  1  0
  9 40  1  0
  9 41  1  0
 10 42  1  0
 10 43  1  0
 11 44  1  0
 11 45  1  0
 16 46  1  0
 17 47  1  0
 18 48  1  0
 19 49  1  0
 20 50  1  0
 21 51  1  0
 21 52  1  0
 25 53  1  0
 30 54  1  0
M  END
$$$$
