
     RDKit          3D

 50 52  0  0  0  0  0  0  0  0999 V2000
    2.6479    1.9576   -0.5440 C   0  0  0  0  0  0  0  0  0  0  0  0
    2.1634    0.5389   -0.7536 C   0  0  0  0  0  0  0  0  0  0  0  0
    2.6940    0.0157   -2.0779 C   0  0  0  0  0  0  0  0  0  0  0  0
    2.6246   -0.3277    0.2563 O   0  0  0  0  0  0  0  0  0  0  0  0
    3.9609   -0.5696    0.5363 C   0  0  0  0  0  0  0  0  0  0  0  0
    4.3288   -1.4501    1.5568 C   0  0  0  0  0  0  0  0  0  0  0  0
    5.6567   -1.6853    1.8292 C   0  0  0  0  0  0  0  0  0  0  0  0
    6.6671   -1.0738    1.1203 C   0  0  0  0  0  0  0  0  0  0  0  0
    8.3621   -1.3718    1.4655 Cl  0  0  0  0  0  0  0  0  0  0  0  0
    6.3352   -0.2106    0.1200 C   0  0  0  0  0  0  0  0  0  0  0  0
    4.9885    0.0275   -0.1558 C   0  0  0  0  0  0  0  0  0  0  0  0
    0.6725    0.6063   -0.7669 C   0  0  0  0  0  0  0  0  0  0  0  0
    0.1066    1.3402   -1.6140 O   0  0  0  0  0  0  0  0  0  0  0  0
   -0.1567   -0.1155    0.1284 N   0  0  0  0  0  0  0  0  0  0  0  0
   -1.5867   -0.0588    0.1258 C   0  0  0  0  0  0  0  0  0  0  0  0
   -2.0945   -0.9701    1.2235 C   0  0  0  0  0  0  0  0  0  0  0  0
   -3.5784   -0.9823    1.3511 C   0  0  0  0  0  0  0  0  0  0  0  0
   -4.1643   -0.1186    0.2702 C   0  0  0  0  0  0  0  0  0  0  0  0
   -5.6277   -0.1175    0.4043 C   0  0  0  0  0  0  0  0  0  0  0  0
   -6.4467    0.6220   -0.4924 N   0  0  0  0  0  0  0  0  0  0  0  0
   -6.2055   -0.7674    1.3124 O   0  0  0  0  0  0  0  0  0  0  0  0
   -3.6146    1.2795    0.4558 C   0  0  0  0  0  0  0  0  0  0  0  0
   -2.1183    1.3312    0.4030 C   0  0  0  0  0  0  0  0  0  0  0  0
   -3.6955   -0.6473   -1.0537 C   0  0  0  0  0  0  0  0  0  0  0  0
   -2.1951   -0.5228   -1.1716 C   0  0  0  0  0  0  0  0  0  0  0  0
    3.3033    2.0528    0.3572 H   0  0  0  0  0  0  0  0  0  0  0  0
    1.8004    2.6734   -0.3325 H   0  0  0  0  0  0  0  0  0  0  0  0
    3.1138    2.3344   -1.4665 H   0  0  0  0  0  0  0  0  0  0  0  0
    3.1661    0.8033   -2.6929 H   0  0  0  0  0  0  0  0  0  0  0  0
    3.3197   -0.8864   -1.9360 H   0  0  0  0  0  0  0  0  0  0  0  0
    1.8067   -0.3197   -2.6900 H   0  0  0  0  0  0  0  0  0  0  0  0
    3.5745   -1.9367    2.1209 H   0  0  0  0  0  0  0  0  0  0  0  0
    5.9524   -2.3754    2.6290 H   0  0  0  0  0  0  0  0  0  0  0  0
    7.1294    0.2743   -0.4422 H   0  0  0  0  0  0  0  0  0  0  0  0
    4.7991    0.7121   -0.9477 H   0  0  0  0  0  0  0  0  0  0  0  0
    0.3570   -0.7142    0.8166 H   0  0  0  0  0  0  0  0  0  0  0  0
   -1.6808   -0.5387    2.1820 H   0  0  0  0  0  0  0  0  0  0  0  0
   -1.6422   -1.9866    1.1618 H   0  0  0  0  0  0  0  0  0  0  0  0
   -3.9453   -0.6860    2.3500 H   0  0  0  0  0  0  0  0  0  0  0  0
   -3.9214   -2.0365    1.1452 H   0  0  0  0  0  0  0  0  0  0  0  0
   -7.4563    0.8092   -0.3078 H   0  0  0  0  0  0  0  0  0  0  0  0
   -6.0565    1.0077   -1.3791 H   0  0  0  0  0  0  0  0  0  0  0  0
   -4.0568    1.9225   -0.3338 H   0  0  0  0  0  0  0  0  0  0  0  0
   -3.9817    1.6317    1.4603 H   0  0  0  0  0  0  0  0  0  0  0  0
   -1.7693    2.0048   -0.4003 H   0  0  0  0  0  0  0  0  0  0  0  0
   -1.6736    1.7007    1.3494 H   0  0  0  0  0  0  0  0  0  0  0  0
   -3.9886   -1.7289   -1.1739 H   0  0  0  0  0  0  0  0  0  0  0  0
   -4.1772   -0.0798   -1.9031 H   0  0  0  0  0  0  0  0  0  0  0  0
   -1.7592   -1.5122   -1.4227 H   0  0  0  0  0  0  0  0  0  0  0  0
   -1.9378    0.1449   -2.0205 H   0  0  0  0  0  0  0  0  0  0  0  0
  1  2  1  0
  2  3  1  0
  2  4  1  0
  4  5  1  0
  5  6  2  0
  6  7  1  0
  7  8  2  0
  8  9  1  0
  8 10  1  0
 10 11  2  0
  2 12  1  0
 12 13  2  0
 12 14  1  0
 14 15  1  0
 15 16  1  0
 16 17  1  0
 17 18  1  0
 18 19  1  0
 19 20  1  0
 19 21  2  0
 18 22  1  0
 22 23  1  0
 18 24  1  0
 24 25  1  0
 11  5  1  0
 23 15  1  0
 25 15  1  0
  1 26  1  0
  1 27  1  0
  1 28  1  0
  3 29  1  0
  3 30  1  0
  3 31  1  0
  6 32  1  0
  7 33  1  0
 10 34  1  0
 11 35  1  0
 14 36  1  0
 16 37  1  0
 16 38  1  0
 17 39  1  0
 17 40  1  0
 20 41  1  0
 20 42  1  0
 22 43  1  0
 22 44  1  0
 23 45  1  0
 23 46  1  0
 24 47  1  0
 24 48  1  0
 25 49  1  0
 25 50  1  0
M  END
$$$$
