@<TRIPOS>MOLECULE
*****
 50 52 0 0 0
SMALL
GASTEIGER

@<TRIPOS>ATOM
      1 C           2.6479    1.9576   -0.5440 C.3     1  UNL1       -0.0165
      2 C           2.1634    0.5389   -0.7536 C.3     1  UNL1        0.1799
      3 C           2.6940    0.0157   -2.0779 C.3     1  UNL1       -0.0165
      4 O           2.6246   -0.3277    0.2563 O.3     1  UNL1       -0.4770
      5 C           3.9609   -0.5696    0.5363 C.ar    1  UNL1        0.1221
      6 C           4.3288   -1.4501    1.5568 C.ar    1  UNL1       -0.0185
      7 C           5.6567   -1.6853    1.8292 C.ar    1  UNL1       -0.0399
      8 C           6.6671   -1.0738    1.1203 C.ar    1  UNL1        0.0412
      9 CL          8.3621   -1.3718    1.4655 Cl      1  UNL1       -0.0835
     10 C           6.3352   -0.2106    0.1200 C.ar    1  UNL1       -0.0399
     11 C           4.9885    0.0275   -0.1558 C.ar    1  UNL1       -0.0185
     12 C           0.6725    0.6063   -0.7669 C.2     1  UNL1        0.2568
     13 O           0.1066    1.3402   -1.6140 O.2     1  UNL1       -0.2714
     14 N          -0.1567   -0.1155    0.1284 N.am    1  UNL1       -0.3065
     15 C          -1.5867   -0.0588    0.1258 C.3     1  UNL1        0.0348
     16 C          -2.0945   -0.9701    1.2235 C.3     1  UNL1       -0.0307
     17 C          -3.5784   -0.9823    1.3511 C.3     1  UNL1       -0.0371
     18 C          -4.1643   -0.1186    0.2702 C.3     1  UNL1        0.0470
     19 C          -5.6277   -0.1175    0.4043 C.2     1  UNL1        0.2167
     20 N          -6.4467    0.6220   -0.4924 N.am    1  UNL1       -0.3289
     21 O          -6.2055   -0.7674    1.3124 O.2     1  UNL1       -0.2754
     22 C          -3.6146    1.2795    0.4558 C.3     1  UNL1       -0.0371
     23 C          -2.1183    1.3312    0.4030 C.3     1  UNL1       -0.0307
     24 C          -3.6955   -0.6473   -1.0537 C.3     1  UNL1       -0.0371
     25 C          -2.1951   -0.5228   -1.1716 C.3     1  UNL1       -0.0307
     26 H           3.3033    2.0528    0.3572 H       1  UNL1        0.0273
     27 H           1.8004    2.6734   -0.3325 H       1  UNL1        0.0273
     28 H           3.1138    2.3344   -1.4665 H       1  UNL1        0.0273
     29 H           3.1661    0.8033   -2.6929 H       1  UNL1        0.0273
     30 H           3.3197   -0.8864   -1.9360 H       1  UNL1        0.0273
     31 H           1.8067   -0.3197   -2.6900 H       1  UNL1        0.0273
     32 H           3.5745   -1.9367    2.1209 H       1  UNL1        0.0654
     33 H           5.9524   -2.3754    2.6290 H       1  UNL1        0.0633
     34 H           7.1294    0.2743   -0.4422 H       1  UNL1        0.0633
     35 H           4.7991    0.7121   -0.9477 H       1  UNL1        0.0654
     36 H           0.3570   -0.7142    0.8166 H       1  UNL1        0.1493
     37 H          -1.6808   -0.5387    2.1820 H       1  UNL1        0.0286
     38 H          -1.6422   -1.9866    1.1618 H       1  UNL1        0.0286
     39 H          -3.9453   -0.6860    2.3500 H       1  UNL1        0.0276
     40 H          -3.9214   -2.0365    1.1452 H       1  UNL1        0.0276
     41 H          -7.4563    0.8092   -0.3078 H       1  UNL1        0.1449
     42 H          -6.0565    1.0077   -1.3791 H       1  UNL1        0.1449
     43 H          -4.0568    1.9225   -0.3338 H       1  UNL1        0.0276
     44 H          -3.9817    1.6317    1.4603 H       1  UNL1        0.0276
     45 H          -1.7693    2.0048   -0.4003 H       1  UNL1        0.0286
     46 H          -1.6736    1.7007    1.3494 H       1  UNL1        0.0286
     47 H          -3.9886   -1.7289   -1.1739 H       1  UNL1        0.0276
     48 H          -4.1772   -0.0798   -1.9031 H       1  UNL1        0.0276
     49 H          -1.7592   -1.5122   -1.4227 H       1  UNL1        0.0286
     50 H          -1.9378    0.1449   -2.0205 H       1  UNL1        0.0286
@<TRIPOS>BOND
     1     1     2    1
     2     2     3    1
     3     2     4    1
     4     4     5    1
     5     5     6   ar
     6     6     7   ar
     7     7     8   ar
     8     8     9    1
     9     8    10   ar
    10    10    11   ar
    11     2    12    1
    12    12    13    2
    13    12    14   am
    14    14    15    1
    15    15    16    1
    16    16    17    1
    17    17    18    1
    18    18    19    1
    19    19    20   am
    20    19    21    2
    21    18    22    1
    22    22    23    1
    23    18    24    1
    24    24    25    1
    25    11     5   ar
    26    23    15    1
    27    25    15    1
    28     1    26    1
    29     1    27    1
    30     1    28    1
    31     3    29    1
    32     3    30    1
    33     3    31    1
    34     6    32    1
    35     7    33    1
    36    10    34    1
    37    11    35    1
    38    14    36    1
    39    16    37    1
    40    16    38    1
    41    17    39    1
    42    17    40    1
    43    20    41    1
    44    20    42    1
    45    22    43    1
    46    22    44    1
    47    23    45    1
    48    23    46    1
    49    24    47    1
    50    24    48    1
    51    25    49    1
    52    25    50    1
