
     RDKit          3D

 45 48  0  0  0  0  0  0  0  0999 V2000
    5.8239    4.4235    1.2216 Cl  0  0  0  0  0  0  0  0  0  0  0  0
    5.3585    2.8054    0.7513 C   0  0  0  0  0  0  0  0  0  0  0  0
    6.3037    1.9714    0.2107 C   0  0  0  0  0  0  0  0  0  0  0  0
    5.9276    0.6985   -0.1567 C   0  0  0  0  0  0  0  0  0  0  0  0
    4.6152    0.3320    0.0406 C   0  0  0  0  0  0  0  0  0  0  0  0
    3.6272    1.1163    0.5739 C   0  0  0  0  0  0  0  0  0  0  0  0
    2.2790    0.7355    0.7750 N   0  0  0  0  0  0  0  0  0  0  0  0
    1.6653   -0.4975    0.4821 C   0  0  0  0  0  0  0  0  0  0  0  0
    0.3613   -0.6550    0.7531 N   0  0  0  0  0  0  0  0  0  0  0  0
   -0.3218   -1.7703    0.5203 C   0  0  0  0  0  0  0  0  0  0  0  0
   -1.6568   -1.9934    0.7758 O   0  0  0  0  0  0  0  0  0  0  0  0
   -2.5437   -1.0542    1.3382 C   0  0  0  0  0  0  0  0  0  0  0  0
   -2.5986    0.1434    0.4143 C   0  0  0  0  0  0  0  0  0  0  0  0
   -3.5526    1.1966    0.9770 C   0  0  0  0  0  0  0  0  0  0  0  0
   -3.5214    2.3169   -0.0504 C   0  0  0  0  0  0  0  0  0  0  0  0
   -4.3721    1.8378   -1.1998 C   0  0  0  0  0  0  0  0  0  0  0  0
   -4.1316    0.4185   -1.5814 C   0  0  0  0  0  0  0  0  0  0  0  0
   -2.9560   -0.2549   -0.9741 C   0  0  0  0  0  0  0  0  0  0  0  0
    0.3282   -2.8497   -0.0350 C   0  0  0  0  0  0  0  0  0  0  0  0
   -0.0071   -4.0957   -0.4028 N   0  0  0  0  0  0  0  0  0  0  0  0
    1.0615   -4.7649   -0.9146 C   0  0  0  0  0  0  0  0  0  0  0  0
    2.0960   -3.8978   -0.8603 N   0  0  0  0  0  0  0  0  0  0  0  0
    1.6628   -2.7293   -0.3272 C   0  0  0  0  0  0  0  0  0  0  0  0
    2.2601   -1.5677   -0.0560 N   0  0  0  0  0  0  0  0  0  0  0  0
    4.0749    2.3714    0.9169 C   0  0  0  0  0  0  0  0  0  0  0  0
    7.3288    2.2815    0.0653 H   0  0  0  0  0  0  0  0  0  0  0  0
    6.6623    0.0326   -0.5833 H   0  0  0  0  0  0  0  0  0  0  0  0
    4.3918   -0.6769   -0.2694 H   0  0  0  0  0  0  0  0  0  0  0  0
    1.6686    1.4934    1.2037 H   0  0  0  0  0  0  0  0  0  0  0  0
   -3.5584   -1.4695    1.3912 H   0  0  0  0  0  0  0  0  0  0  0  0
   -2.1388   -0.7602    2.3285 H   0  0  0  0  0  0  0  0  0  0  0  0
   -1.5955    0.6156    0.4523 H   0  0  0  0  0  0  0  0  0  0  0  0
   -3.0702    1.6287    1.8865 H   0  0  0  0  0  0  0  0  0  0  0  0
   -4.5575    0.8041    1.1676 H   0  0  0  0  0  0  0  0  0  0  0  0
   -3.9125    3.2676    0.3092 H   0  0  0  0  0  0  0  0  0  0  0  0
   -2.4605    2.4251   -0.3849 H   0  0  0  0  0  0  0  0  0  0  0  0
   -5.4397    2.0047   -0.8836 H   0  0  0  0  0  0  0  0  0  0  0  0
   -4.2065    2.5568   -2.0334 H   0  0  0  0  0  0  0  0  0  0  0  0
   -5.0694   -0.1584   -1.4005 H   0  0  0  0  0  0  0  0  0  0  0  0
   -3.9892    0.3915   -2.6893 H   0  0  0  0  0  0  0  0  0  0  0  0
   -3.1670   -1.3455   -0.9806 H   0  0  0  0  0  0  0  0  0  0  0  0
   -2.0577   -0.1462   -1.6176 H   0  0  0  0  0  0  0  0  0  0  0  0
   -0.9713   -4.4866   -0.3020 H   0  0  0  0  0  0  0  0  0  0  0  0
    0.9874   -5.7919   -1.2686 H   0  0  0  0  0  0  0  0  0  0  0  0
    3.3718    3.0968    1.3571 H   0  0  0  0  0  0  0  0  0  0  0  0
  1  2  1  0
  2  3  2  0
  3  4  1  0
  4  5  2  0
  5  6  1  0
  6  7  1  0
  7  8  1  0
  8  9  2  0
  9 10  1  0
 10 11  1  0
 11 12  1  0
 12 13  1  0
 13 14  1  0
 14 15  1  0
 15 16  1  0
 16 17  1  0
 17 18  1  0
 10 19  2  0
 19 20  1  0
 20 21  1  0
 21 22  2  0
 22 23  1  0
 23 24  2  0
  6 25  2  0
 25  2  1  0
 24  8  1  0
 18 13  1  0
 23 19  1  0
  3 26  1  0
  4 27  1  0
  5 28  1  0
  7 29  1  0
 12 30  1  0
 12 31  1  0
 13 32  1  0
 14 33  1  0
 14 34  1  0
 15 35  1  0
 15 36  1  0
 16 37  1  0
 16 38  1  0
 17 39  1  0
 17 40  1  0
 18 41  1  0
 18 42  1  0
 20 43  1  0
 21 44  1  0
 25 45  1  0
M  END
$$$$
