@<TRIPOS>MOLECULE
*****
 45 48 0 0 0
SMALL
GASTEIGER

@<TRIPOS>ATOM
      1 CL          5.8239    4.4235    1.2216 Cl      1  UNL1       -0.0835
      2 C           5.3585    2.8054    0.7513 C.ar    1  UNL1        0.0427
      3 C           6.3037    1.9714    0.2107 C.ar    1  UNL1       -0.0433
      4 C           5.9276    0.6985   -0.1567 C.ar    1  UNL1       -0.0586
      5 C           4.6152    0.3320    0.0406 C.ar    1  UNL1       -0.0404
      6 C           3.6272    1.1163    0.5739 C.ar    1  UNL1        0.0350
      7 N           2.2790    0.7355    0.7750 N.pl3   1  UNL1       -0.2834
      8 C           1.6653   -0.4975    0.4821 C.ar    1  UNL1        0.2246
      9 N           0.3613   -0.6550    0.7531 N.ar    1  UNL1       -0.1773
     10 C          -0.3218   -1.7703    0.5203 C.ar    1  UNL1        0.2456
     11 O          -1.6568   -1.9934    0.7758 O.3     1  UNL1       -0.4746
     12 C          -2.5437   -1.0542    1.3382 C.3     1  UNL1        0.0941
     13 C          -2.5986    0.1434    0.4143 C.3     1  UNL1       -0.0067
     14 C          -3.5526    1.1966    0.9770 C.3     1  UNL1       -0.0471
     15 C          -3.5214    2.3169   -0.0504 C.3     1  UNL1       -0.0527
     16 C          -4.3721    1.8378   -1.1998 C.3     1  UNL1       -0.0530
     17 C          -4.1316    0.4185   -1.5814 C.3     1  UNL1       -0.0527
     18 C          -2.9560   -0.2549   -0.9741 C.3     1  UNL1       -0.0471
     19 C           0.3282   -2.8497   -0.0350 C.ar    1  UNL1        0.1475
     20 N          -0.0071   -4.0957   -0.4028 N.ar    1  UNL1       -0.3389
     21 C           1.0615   -4.7649   -0.9146 C.ar    1  UNL1        0.0963
     22 N           2.0960   -3.8978   -0.8603 N.ar    1  UNL1       -0.2163
     23 C           1.6628   -2.7293   -0.3272 C.ar    1  UNL1        0.1862
     24 N           2.2601   -1.5677   -0.0560 N.ar    1  UNL1       -0.1927
     25 C           4.0749    2.3714    0.9169 C.ar    1  UNL1       -0.0221
     26 H           7.3288    2.2815    0.0653 H       1  UNL1        0.0632
     27 H           6.6623    0.0326   -0.5833 H       1  UNL1        0.0619
     28 H           4.3918   -0.6769   -0.2694 H       1  UNL1        0.0636
     29 H           1.6686    1.4934    1.2037 H       1  UNL1        0.1550
     30 H          -3.5584   -1.4695    1.3912 H       1  UNL1        0.0700
     31 H          -2.1388   -0.7602    2.3285 H       1  UNL1        0.0700
     32 H          -1.5955    0.6156    0.4523 H       1  UNL1        0.0334
     33 H          -3.0702    1.6287    1.8865 H       1  UNL1        0.0269
     34 H          -4.5575    0.8041    1.1676 H       1  UNL1        0.0269
     35 H          -3.9125    3.2676    0.3092 H       1  UNL1        0.0265
     36 H          -2.4605    2.4251   -0.3849 H       1  UNL1        0.0265
     37 H          -5.4397    2.0047   -0.8836 H       1  UNL1        0.0265
     38 H          -4.2065    2.5568   -2.0334 H       1  UNL1        0.0265
     39 H          -5.0694   -0.1584   -1.4005 H       1  UNL1        0.0265
     40 H          -3.9892    0.3915   -2.6893 H       1  UNL1        0.0265
     41 H          -3.1670   -1.3455   -0.9806 H       1  UNL1        0.0269
     42 H          -2.0577   -0.1462   -1.6176 H       1  UNL1        0.0269
     43 H          -0.9713   -4.4866   -0.3020 H       1  UNL1        0.1670
     44 H           0.9874   -5.7919   -1.2686 H       1  UNL1        0.1027
     45 H           3.3718    3.0968    1.3571 H       1  UNL1        0.0651
@<TRIPOS>BOND
     1     1     2    1
     2     2     3   ar
     3     3     4   ar
     4     4     5   ar
     5     5     6   ar
     6     6     7    1
     7     7     8    1
     8     8     9   ar
     9     9    10   ar
    10    10    11    1
    11    11    12    1
    12    12    13    1
    13    13    14    1
    14    14    15    1
    15    15    16    1
    16    16    17    1
    17    17    18    1
    18    10    19   ar
    19    19    20   ar
    20    20    21   ar
    21    21    22   ar
    22    22    23   ar
    23    23    24   ar
    24     6    25   ar
    25    25     2   ar
    26    24     8   ar
    27    18    13    1
    28    23    19   ar
    29     3    26    1
    30     4    27    1
    31     5    28    1
    32     7    29    1
    33    12    30    1
    34    12    31    1
    35    13    32    1
    36    14    33    1
    37    14    34    1
    38    15    35    1
    39    15    36    1
    40    16    37    1
    41    16    38    1
    42    17    39    1
    43    17    40    1
    44    18    41    1
    45    18    42    1
    46    20    43    1
    47    21    44    1
    48    25    45    1
