@<TRIPOS>MOLECULE
*****
 75 79 0 0 0
SMALL
GASTEIGER

@<TRIPOS>ATOM
      1 C           8.8159    1.1711   -1.9961 C.3     1  UNL1       -0.0383
      2 C           8.1219    1.1349   -0.6764 C.ar    1  UNL1       -0.0318
      3 C           8.7493    1.4061    0.5034 C.ar    1  UNL1        0.0305
      4 N           8.0385    1.3486    1.6542 N.ar    1  UNL1       -0.2624
      5 C           6.7366    1.0334    1.6734 C.ar    1  UNL1        0.0353
      6 C           6.0537    0.7477    0.4854 C.ar    1  UNL1        0.0025
      7 C           4.6354    0.4403    0.4963 C.ar    1  UNL1        0.0109
      8 C           3.6948    1.3261    0.9961 C.ar    1  UNL1        0.0381
      9 N           2.3832    1.0600    0.9700 N.ar    1  UNL1       -0.2378
     10 C           1.8686   -0.0940    0.4543 C.ar    1  UNL1        0.1432
     11 N           0.4781   -0.3293    0.4477 N.pl3   1  UNL1       -0.3220
     12 C          -0.3777    0.7194    1.0332 C.3     1  UNL1        0.0505
     13 C          -0.0871    0.9071    2.5007 C.3     1  UNL1       -0.0195
     14 C          -1.0019    0.0568    3.3619 C.3     1  UNL1       -0.0023
     15 N          -1.2914   -1.2127    2.7234 N.3     1  UNL1       -0.3134
     16 C          -2.1158   -0.9737    1.5541 C.3     1  UNL1        0.0240
     17 C          -1.8432    0.3493    0.9065 C.3     1  UNL1        0.0893
     18 O          -2.6825    1.3439    1.3159 O.3     1  UNL1       -0.3732
     19 C          -3.4675    1.9297    0.3609 C.3     1  UNL1        0.0511
     20 C          -4.4419    1.0087   -0.3323 C.3     1  UNL1       -0.0141
     21 C          -5.1988    1.8289   -1.3462 C.3     1  UNL1       -0.0260
     22 C          -6.3618    1.1437   -1.9521 C.3     1  UNL1        0.0747
     23 C          -7.5861    2.0459   -1.7422 C.3     1  UNL1       -0.0428
     24 S          -6.7508   -0.4457   -1.3423 S.O2    1  UNL1       -0.0259
     25 O          -6.4516   -1.5075   -2.3940 O.2     1  UNL1       -0.1738
     26 O          -8.2435   -0.5703   -1.0857 O.2     1  UNL1       -0.1738
     27 C          -5.9114   -0.8478    0.1617 C.3     1  UNL1        0.0747
     28 C          -6.8495   -1.5457    1.0888 C.3     1  UNL1       -0.0428
     29 C          -5.3937    0.4619    0.7213 C.3     1  UNL1       -0.0260
     30 C           2.7811   -0.9961   -0.0499 C.ar    1  UNL1        0.0900
     31 N           2.3728   -2.1755   -0.5726 N.ar    1  UNL1       -0.3191
     32 C           3.2416   -3.0579   -1.0504 C.ar    1  UNL1        0.2522
     33 O           2.8024   -4.1373   -1.5240 O.2     1  UNL1       -0.2676
     34 C           4.6000   -2.8660   -1.0607 C.ar    1  UNL1        0.0145
     35 C           5.5691   -3.8610   -1.5977 C.3     1  UNL1       -0.0346
     36 C           5.0439   -1.6697   -0.5330 C.ar    1  UNL1       -0.0438
     37 C           4.1682   -0.7405   -0.0342 C.ar    1  UNL1        0.0113
     38 C           6.7961    0.8126   -0.6727 C.ar    1  UNL1       -0.0482
     39 H           8.9407    0.1397   -2.3466 H       1  UNL1        0.0278
     40 H           8.1579    1.7033   -2.7110 H       1  UNL1        0.0278
     41 H           9.8147    1.6473   -1.9142 H       1  UNL1        0.0278
     42 H           9.8024    1.6604    0.4815 H       1  UNL1        0.0832
     43 H           6.1772    0.9895    2.5949 H       1  UNL1        0.0836
     44 H           4.1012    2.2486    1.4092 H       1  UNL1        0.0836
     45 H          -0.0012   -1.1541    0.0775 H       1  UNL1        0.1479
     46 H          -0.1327    1.6437    0.4905 H       1  UNL1        0.0524
     47 H          -0.3280    1.9754    2.7446 H       1  UNL1        0.0296
     48 H           0.9391    0.7211    2.8042 H       1  UNL1        0.0296
     49 H          -0.5992   -0.1495    4.3550 H       1  UNL1        0.0425
     50 H          -1.9495    0.5923    3.4673 H       1  UNL1        0.0425
     51 H          -1.7055   -1.9025    3.3557 H       1  UNL1        0.1220
     52 H          -3.1567   -1.1336    1.8786 H       1  UNL1        0.0450
     53 H          -1.9097   -1.7773    0.7869 H       1  UNL1        0.0450
     54 H          -1.9984    0.2179   -0.2034 H       1  UNL1        0.0627
     55 H          -4.0106    2.8233    0.7734 H       1  UNL1        0.0563
     56 H          -2.7525    2.3929   -0.3842 H       1  UNL1        0.0563
     57 H          -3.9042    0.1998   -0.8491 H       1  UNL1        0.0324
     58 H          -5.4517    2.7907   -0.8719 H       1  UNL1        0.0287
     59 H          -4.4692    2.0711   -2.1624 H       1  UNL1        0.0287
     60 H          -6.2707    1.0701   -3.0758 H       1  UNL1        0.0533
     61 H          -8.4958    1.4237   -1.5229 H       1  UNL1        0.0248
     62 H          -7.4122    2.6488   -0.8216 H       1  UNL1        0.0248
     63 H          -7.7562    2.7034   -2.6106 H       1  UNL1        0.0248
     64 H          -5.0512   -1.5229   -0.0544 H       1  UNL1        0.0533
     65 H          -7.9164   -1.2101    0.9630 H       1  UNL1        0.0248
     66 H          -6.8565   -2.6454    0.9087 H       1  UNL1        0.0248
     67 H          -6.6029   -1.3570    2.1562 H       1  UNL1        0.0248
     68 H          -6.2856    1.1563    0.7042 H       1  UNL1        0.0287
     69 H          -4.9755    0.3875    1.7162 H       1  UNL1        0.0287
     70 H           1.3375   -2.3432   -0.5742 H       1  UNL1        0.1690
     71 H           5.0526   -4.5034   -2.3182 H       1  UNL1        0.0279
     72 H           6.4850   -3.3758   -1.9768 H       1  UNL1        0.0279
     73 H           5.9010   -4.5261   -0.7527 H       1  UNL1        0.0279
     74 H           6.1006   -1.4561   -0.4934 H       1  UNL1        0.0629
     75 H           6.2873    0.6044   -1.6066 H       1  UNL1        0.0627
@<TRIPOS>BOND
     1     1     2    1
     2     2     3   ar
     3     3     4   ar
     4     4     5   ar
     5     5     6   ar
     6     6     7    1
     7     7     8   ar
     8     8     9   ar
     9     9    10   ar
    10    10    11    1
    11    11    12    1
    12    12    13    1
    13    13    14    1
    14    14    15    1
    15    15    16    1
    16    16    17    1
    17    17    18    1
    18    18    19    1
    19    19    20    1
    20    20    21    1
    21    21    22    1
    22    22    23    1
    23    22    24    1
    24    24    25    2
    25    24    26    2
    26    24    27    1
    27    27    28    1
    28    27    29    1
    29    10    30   ar
    30    30    31   ar
    31    31    32   ar
    32    32    33    2
    33    32    34   ar
    34    34    35    1
    35    34    36   ar
    36    36    37   ar
    37     6    38   ar
    38    38     2   ar
    39    37     7   ar
    40    17    12    1
    41    29    20    1
    42    37    30   ar
    43     1    39    1
    44     1    40    1
    45     1    41    1
    46     3    42    1
    47     5    43    1
    48     8    44    1
    49    11    45    1
    50    12    46    1
    51    13    47    1
    52    13    48    1
    53    14    49    1
    54    14    50    1
    55    15    51    1
    56    16    52    1
    57    16    53    1
    58    17    54    1
    59    19    55    1
    60    19    56    1
    61    20    57    1
    62    21    58    1
    63    21    59    1
    64    22    60    1
    65    23    61    1
    66    23    62    1
    67    23    63    1
    68    27    64    1
    69    28    65    1
    70    28    66    1
    71    28    67    1
    72    29    68    1
    73    29    69    1
    74    31    70    1
    75    35    71    1
    76    35    72    1
    77    35    73    1
    78    36    74    1
    79    38    75    1
