@<TRIPOS>MOLECULE
*****
 31 33 0 0 0
SMALL
GASTEIGER

@<TRIPOS>ATOM
      1 O          -1.7800    2.5442    1.8299 O.2     1  UNL1       -0.2831
      2 C          -1.4715    1.6070    1.0715 C.ar    1  UNL1        0.2343
      3 C          -0.1040    1.3281    0.8943 C.ar    1  UNL1        0.2081
      4 O           0.8162    2.1113    1.5728 O.3     1  UNL1       -0.5007
      5 C           0.2350    0.3027    0.0645 C.ar    1  UNL1        0.1807
      6 C           1.6118   -0.0631   -0.1839 C.ar    1  UNL1        0.0247
      7 C           1.8309   -1.1365   -1.0576 C.ar    1  UNL1       -0.0473
      8 C           3.0933   -1.5735   -1.3687 C.ar    1  UNL1       -0.0159
      9 C           4.1979   -0.9800   -0.8391 C.ar    1  UNL1        0.1583
     10 O           5.4574   -1.4467   -1.1748 O.3     1  UNL1       -0.5033
     11 C           4.0177    0.0663    0.0138 C.ar    1  UNL1        0.1589
     12 O           5.1193    0.6840    0.5632 O.3     1  UNL1       -0.5033
     13 C           2.7311    0.5071    0.3272 C.ar    1  UNL1       -0.0057
     14 O          -0.7442   -0.3824   -0.5357 O.2     1  UNL1       -0.4508
     15 C          -2.0021   -0.1346   -0.3799 C.ar    1  UNL1        0.1430
     16 C          -2.9432   -0.8874   -1.0341 C.ar    1  UNL1        0.0229
     17 C          -4.2969   -0.6694   -0.9064 C.ar    1  UNL1        0.1204
     18 O          -5.2388   -1.4245   -1.5627 O.3     1  UNL1       -0.5066
     19 C          -4.7207    0.3655   -0.0721 C.ar    1  UNL1       -0.0193
     20 C          -3.8021    1.1318    0.5925 C.ar    1  UNL1       -0.0438
     21 C          -2.4576    0.8850    0.4408 C.ar    1  UNL1        0.0679
     22 H           0.6050    2.4454    2.5076 H       1  UNL1        0.2924
     23 H           0.9670   -1.6494   -1.5118 H       1  UNL1        0.0626
     24 H           3.1822   -2.4039   -2.0477 H       1  UNL1        0.0655
     25 H           6.0618   -1.7086   -0.3973 H       1  UNL1        0.2923
     26 H           5.2256    0.6176    1.5759 H       1  UNL1        0.2923
     27 H           2.6427    1.3294    0.9995 H       1  UNL1        0.0662
     28 H          -2.6196   -1.6888   -1.6805 H       1  UNL1        0.0691
     29 H          -5.6896   -2.2467   -1.1805 H       1  UNL1        0.2921
     30 H          -5.7881    0.5451    0.0350 H       1  UNL1        0.0654
     31 H          -4.1366    1.9251    1.2318 H       1  UNL1        0.0627
@<TRIPOS>BOND
     1     1     2    2
     2     2     3   ar
     3     3     4    1
     4     3     5   ar
     5     5     6    1
     6     6     7   ar
     7     7     8   ar
     8     8     9   ar
     9     9    10    1
    10     9    11   ar
    11    11    12    1
    12    11    13   ar
    13     5    14   ar
    14    14    15   ar
    15    15    16   ar
    16    16    17   ar
    17    17    18    1
    18    17    19   ar
    19    19    20   ar
    20    20    21   ar
    21    21     2   ar
    22    13     6   ar
    23    21    15   ar
    24     4    22    1
    25     7    23    1
    26     8    24    1
    27    10    25    1
    28    12    26    1
    29    13    27    1
    30    16    28    1
    31    18    29    1
    32    19    30    1
    33    20    31    1
