@<TRIPOS>MOLECULE
*****
 65 68 0 0 0
SMALL
GASTEIGER

@<TRIPOS>ATOM
      1 C           0.0787   -0.6596   -1.0158 C.3     1  UNL1       -0.0251
      2 C          -0.4920   -1.4971   -2.1200 C.3     1  UNL1       -0.0425
      3 C          -1.8902   -1.6594   -1.5687 C.3     1  UNL1        0.0049
      4 C          -1.8837   -2.8953   -0.7306 C.3     1  UNL1       -0.0583
      5 C          -2.1904   -0.3848   -0.7464 C.3     1  UNL1        0.1890
      6 O          -2.2992   -0.8287    0.5581 O.3     1  UNL1       -0.4486
      7 C          -2.6368   -0.1720    1.6953 C.2     1  UNL1        0.3078
      8 O          -2.9421    1.0422    1.7150 O.2     1  UNL1       -0.2508
      9 C          -2.6133   -1.0259    2.9305 C.3     1  UNL1        0.0421
     10 C          -3.0153   -0.1179    4.0608 C.3     1  UNL1       -0.0552
     11 C          -3.4587    0.1507   -1.3043 C.2     1  UNL1        0.2359
     12 O          -3.9025    0.6432   -2.3582 O.2     1  UNL1       -0.2808
     13 S          -5.0741    0.7521   -1.7876 S.3     1  UNL1       -0.0505
     14 C          -6.2766    0.6015   -0.4437 C.3     1  UNL1        0.1429
     15 F          -5.8930    1.4538    0.5670 F       1  UNL1       -0.2370
     16 C          -0.9856    0.4356   -1.0027 C.3     1  UNL1        0.0216
     17 C          -1.0073    1.1666   -2.3223 C.3     1  UNL1       -0.0551
     18 C          -0.5372    1.3529    0.1086 C.3     1  UNL1       -0.0140
     19 C           0.9060    1.8611   -0.1438 C.3     1  UNL1        0.0910
     20 O           0.8770    2.5574   -1.3004 O.3     1  UNL1       -0.3886
     21 C           1.7827    0.6807   -0.0230 C.3     1  UNL1        0.1528
     22 F           1.3102   -0.0672    1.0684 F       1  UNL1       -0.2377
     23 C           1.4698   -0.2095   -1.2089 C.3     1  UNL1        0.0030
     24 C           2.3573   -1.4302   -1.2602 C.3     1  UNL1       -0.0117
     25 C           3.7939   -1.1201   -0.9299 C.3     1  UNL1        0.1237
     26 F           4.4649   -2.3220   -0.9219 F       1  UNL1       -0.2407
     27 C           3.9597   -0.3793    0.3494 C.2     1  UNL1       -0.0198
     28 C           4.6746   -0.8988    1.3334 C.2     1  UNL1       -0.0121
     29 C           4.7410   -0.0530    2.5187 C.2     1  UNL1        0.1788
     30 O           5.3921   -0.4557    3.5008 O.2     1  UNL1       -0.2879
     31 C           4.0744    1.2413    2.5926 C.2     1  UNL1       -0.0179
     32 C           3.3999    1.6106    1.5157 C.2     1  UNL1       -0.0674
     33 C           3.2183    0.8975    0.2295 C.3     1  UNL1        0.0469
     34 C           3.9205    1.7640   -0.7900 C.3     1  UNL1       -0.0492
     35 H           0.0080   -1.1965   -0.0654 H       1  UNL1        0.0311
     36 H          -0.4702   -0.9925   -3.0898 H       1  UNL1        0.0272
     37 H          -0.0137   -2.4877   -2.2185 H       1  UNL1        0.0272
     38 H          -2.5990   -1.7780   -2.4085 H       1  UNL1        0.0342
     39 H          -2.8667   -3.4342   -0.7579 H       1  UNL1        0.0234
     40 H          -1.6750   -2.6650    0.3270 H       1  UNL1        0.0234
     41 H          -1.1110   -3.6363   -1.0374 H       1  UNL1        0.0234
     42 H          -3.3775   -1.8096    2.7502 H       1  UNL1        0.0375
     43 H          -1.6248   -1.4937    3.0550 H       1  UNL1        0.0375
     44 H          -2.5769    0.8963    3.8518 H       1  UNL1        0.0235
     45 H          -4.1194   -0.0467    4.0548 H       1  UNL1        0.0235
     46 H          -2.5890   -0.5078    5.0057 H       1  UNL1        0.0235
     47 H          -7.2413    0.9890   -0.8298 H       1  UNL1        0.0736
     48 H          -6.4454   -0.4407   -0.1146 H       1  UNL1        0.0736
     49 H          -1.7038    0.7717   -3.0683 H       1  UNL1        0.0237
     50 H          -0.0216    1.1070   -2.8722 H       1  UNL1        0.0237
     51 H          -1.2861    2.2191   -2.1161 H       1  UNL1        0.0237
     52 H          -0.3871    0.7569    1.0354 H       1  UNL1        0.0298
     53 H          -1.1029    2.2758    0.2076 H       1  UNL1        0.0298
     54 H           1.0817    2.5226    0.7576 H       1  UNL1        0.0626
     55 H           1.6693    2.6477   -1.8391 H       1  UNL1        0.2099
     56 H           1.7064    0.3697   -2.0974 H       1  UNL1        0.0336
     57 H           2.3747   -1.8734   -2.2773 H       1  UNL1        0.0300
     58 H           2.0428   -2.2419   -0.5716 H       1  UNL1        0.0300
     59 H           4.2360   -0.4949   -1.7310 H       1  UNL1        0.0699
     60 H           5.1393   -1.8600    1.2095 H       1  UNL1        0.0656
     61 H           4.1270    1.8633    3.4735 H       1  UNL1        0.0653
     62 H           2.9174    2.5841    1.6084 H       1  UNL1        0.0583
     63 H           3.7965    2.8469   -0.5580 H       1  UNL1        0.0242
     64 H           5.0252    1.5906   -0.6205 H       1  UNL1        0.0242
     65 H           3.7639    1.4832   -1.8286 H       1  UNL1        0.0242
@<TRIPOS>BOND
     1     1     2    1
     2     2     3    1
     3     3     4    1
     4     3     5    1
     5     5     6    1
     6     6     7    1
     7     7     8    2
     8     7     9    1
     9     9    10    1
    10     5    11    1
    11    11    12    2
    12    11    13    1
    13    13    14    1
    14    14    15    1
    15     5    16    1
    16    16    17    1
    17    16    18    1
    18    18    19    1
    19    19    20    1
    20    19    21    1
    21    21    22    1
    22    21    23    1
    23    23    24    1
    24    24    25    1
    25    25    26    1
    26    25    27    1
    27    27    28    2
    28    28    29    1
    29    29    30    2
    30    29    31    1
    31    31    32    2
    32    32    33    1
    33    33    34    1
    34    16     1    1
    35    33    21    1
    36    23     1    1
    37    33    27    1
    38     1    35    1
    39     2    36    1
    40     2    37    1
    41     3    38    1
    42     4    39    1
    43     4    40    1
    44     4    41    1
    45     9    42    1
    46     9    43    1
    47    10    44    1
    48    10    45    1
    49    10    46    1
    50    14    47    1
    51    14    48    1
    52    17    49    1
    53    17    50    1
    54    17    51    1
    55    18    52    1
    56    18    53    1
    57    19    54    1
    58    20    55    1
    59    23    56    1
    60    24    57    1
    61    24    58    1
    62    25    59    1
    63    28    60    1
    64    31    61    1
    65    32    62    1
    66    34    63    1
    67    34    64    1
    68    34    65    1
