
     RDKit          3D

 68 72  0  0  0  0  0  0  0  0999 V2000
   -5.3382   -1.8981    4.2581 C   0  0  0  0  0  0  0  0  0  0  0  0
   -3.9428   -1.6443    3.8079 C   0  0  0  0  0  0  0  0  0  0  0  0
   -2.8547   -2.1093    4.4970 C   0  0  0  0  0  0  0  0  0  0  0  0
   -1.5774   -1.8637    4.0653 C   0  0  0  0  0  0  0  0  0  0  0  0
   -1.3499   -1.1444    2.9293 C   0  0  0  0  0  0  0  0  0  0  0  0
   -0.0170   -0.8725    2.4498 N   0  0  0  0  0  0  0  0  0  0  0  0
    0.6278   -1.7749    1.5481 C   0  0  0  0  0  0  0  0  0  0  0  0
   -0.0373   -2.7862    1.2197 O   0  0  0  0  0  0  0  0  0  0  0  0
    1.9676   -1.5667    1.0244 C   0  0  0  0  0  0  0  0  0  0  0  0
    2.7616   -0.4867    1.3284 C   0  0  0  0  0  0  0  0  0  0  0  0
    4.0426   -0.3535    0.7871 C   0  0  0  0  0  0  0  0  0  0  0  0
    4.5551   -1.3010   -0.0712 C   0  0  0  0  0  0  0  0  0  0  0  0
    5.9067   -1.2070   -0.6769 C   0  0  0  0  0  0  0  0  0  0  0  0
    5.9109   -0.5474   -1.9447 N   0  0  0  0  0  0  0  0  0  0  0  0
    5.4247    0.8058   -1.9221 C   0  0  0  0  0  0  0  0  0  0  0  0
    6.4019    1.7630   -1.2891 C   0  0  0  0  0  0  0  0  0  0  0  0
    7.7615    1.4272   -1.5066 N   0  0  0  0  0  0  0  0  0  0  0  0
    8.5958    1.3815   -0.3535 C   0  0  0  0  0  0  0  0  0  0  0  0
    8.0533    0.5015   -2.5358 C   0  0  0  0  0  0  0  0  0  0  0  0
    7.1605   -0.6856   -2.6516 C   0  0  0  0  0  0  0  0  0  0  0  0
    3.7580   -2.3872   -0.3776 C   0  0  0  0  0  0  0  0  0  0  0  0
    2.4892   -2.5080    0.1657 C   0  0  0  0  0  0  0  0  0  0  0  0
   -2.4495   -0.6686    2.2237 C   0  0  0  0  0  0  0  0  0  0  0  0
   -3.7455   -0.8997    2.6335 C   0  0  0  0  0  0  0  0  0  0  0  0
   -4.8899   -0.4424    1.9497 N   0  0  0  0  0  0  0  0  0  0  0  0
   -4.9639    0.3326    0.7766 C   0  0  0  0  0  0  0  0  0  0  0  0
   -3.8743    0.7574    0.1696 N   0  0  0  0  0  0  0  0  0  0  0  0
   -3.8683    1.4943   -0.9429 C   0  0  0  0  0  0  0  0  0  0  0  0
   -5.1150    1.8186   -1.4723 C   0  0  0  0  0  0  0  0  0  0  0  0
   -6.2655    1.3902   -0.8622 C   0  0  0  0  0  0  0  0  0  0  0  0
   -7.5550    1.7369   -1.4293 C   0  0  0  0  0  0  0  0  0  0  0  0
   -7.7405    2.4838   -2.5610 C   0  0  0  0  0  0  0  0  0  0  0  0
   -9.0173    2.7520   -3.0122 C   0  0  0  0  0  0  0  0  0  0  0  0
  -10.1229    2.2881   -2.3545 C   0  0  0  0  0  0  0  0  0  0  0  0
   -9.9216    1.5574   -1.2466 N   0  0  0  0  0  0  0  0  0  0  0  0
   -8.7037    1.2738   -0.7744 C   0  0  0  0  0  0  0  0  0  0  0  0
   -6.1858    0.6600    0.2430 N   0  0  0  0  0  0  0  0  0  0  0  0
   -5.2686   -2.6498    5.0968 H   0  0  0  0  0  0  0  0  0  0  0  0
   -5.9466   -2.4100    3.4784 H   0  0  0  0  0  0  0  0  0  0  0  0
   -5.8199   -0.9791    4.6472 H   0  0  0  0  0  0  0  0  0  0  0  0
   -3.0551   -2.6886    5.4127 H   0  0  0  0  0  0  0  0  0  0  0  0
   -0.7546   -2.2482    4.6379 H   0  0  0  0  0  0  0  0  0  0  0  0
    0.5224   -0.0273    2.7320 H   0  0  0  0  0  0  0  0  0  0  0  0
    2.3943    0.2672    1.9914 H   0  0  0  0  0  0  0  0  0  0  0  0
    4.6601    0.4974    1.0332 H   0  0  0  0  0  0  0  0  0  0  0  0
    6.6325   -0.7482    0.0259 H   0  0  0  0  0  0  0  0  0  0  0  0
    6.2620   -2.2497   -0.8306 H   0  0  0  0  0  0  0  0  0  0  0  0
    4.4928    0.8293   -1.3250 H   0  0  0  0  0  0  0  0  0  0  0  0
    5.1489    1.1645   -2.9299 H   0  0  0  0  0  0  0  0  0  0  0  0
    6.1995    2.7685   -1.7114 H   0  0  0  0  0  0  0  0  0  0  0  0
    6.2342    1.8561   -0.1843 H   0  0  0  0  0  0  0  0  0  0  0  0
    8.1612    2.0710    0.4083 H   0  0  0  0  0  0  0  0  0  0  0  0
    9.5767    1.8634   -0.6383 H   0  0  0  0  0  0  0  0  0  0  0  0
    8.7508    0.3815    0.0795 H   0  0  0  0  0  0  0  0  0  0  0  0
    8.1380    1.0567   -3.4975 H   0  0  0  0  0  0  0  0  0  0  0  0
    9.0966    0.1076   -2.3518 H   0  0  0  0  0  0  0  0  0  0  0  0
    6.9132   -0.8199   -3.7444 H   0  0  0  0  0  0  0  0  0  0  0  0
    7.6249   -1.6436   -2.3396 H   0  0  0  0  0  0  0  0  0  0  0  0
    4.1604   -3.1350   -1.0543 H   0  0  0  0  0  0  0  0  0  0  0  0
    1.8853   -3.3717   -0.0927 H   0  0  0  0  0  0  0  0  0  0  0  0
   -2.2341   -0.1084    1.3352 H   0  0  0  0  0  0  0  0  0  0  0  0
   -5.8430   -0.7094    2.3600 H   0  0  0  0  0  0  0  0  0  0  0  0
   -2.9713    1.8333   -1.4260 H   0  0  0  0  0  0  0  0  0  0  0  0
   -5.1006    2.4084   -2.3625 H   0  0  0  0  0  0  0  0  0  0  0  0
   -6.8775    2.8656   -3.1046 H   0  0  0  0  0  0  0  0  0  0  0  0
   -9.1618    3.3455   -3.9111 H   0  0  0  0  0  0  0  0  0  0  0  0
  -11.1294    2.5143   -2.7324 H   0  0  0  0  0  0  0  0  0  0  0  0
   -8.5726    0.6815    0.1225 H   0  0  0  0  0  0  0  0  0  0  0  0
  1  2  1  0
  2  3  2  0
  3  4  1  0
  4  5  2  0
  5  6  1  0
  6  7  1  0
  7  8  2  0
  7  9  1  0
  9 10  2  0
 10 11  1  0
 11 12  2  0
 12 13  1  0
 13 14  1  0
 14 15  1  0
 15 16  1  0
 16 17  1  0
 17 18  1  0
 17 19  1  0
 19 20  1  0
 12 21  1  0
 21 22  2  0
  5 23  1  0
 23 24  2  0
 24 25  1  0
 25 26  1  0
 26 27  2  0
 27 28  1  0
 28 29  2  0
 29 30  1  0
 30 31  1  0
 31 32  2  0
 32 33  1  0
 33 34  2  0
 34 35  1  0
 35 36  2  0
 30 37  2  0
 24  2  1  0
 37 26  1  0
 22  9  1  0
 36 31  1  0
 20 14  1  0
  1 38  1  0
  1 39  1  0
  1 40  1  0
  3 41  1  0
  4 42  1  0
  6 43  1  0
 10 44  1  0
 11 45  1  0
 13 46  1  0
 13 47  1  0
 15 48  1  0
 15 49  1  0
 16 50  1  0
 16 51  1  0
 18 52  1  0
 18 53  1  0
 18 54  1  0
 19 55  1  0
 19 56  1  0
 20 57  1  0
 20 58  1  0
 21 59  1  0
 22 60  1  0
 23 61  1  0
 25 62  1  0
 28 63  1  0
 29 64  1  0
 32 65  1  0
 33 66  1  0
 34 67  1  0
 36 68  1  0
M  END
$$$$
