@<TRIPOS>MOLECULE
*****
 68 72 0 0 0
SMALL
GASTEIGER

@<TRIPOS>ATOM
      1 C          -5.3382   -1.8981    4.2581 C.3     1  UNL1       -0.0380
      2 C          -3.9428   -1.6443    3.8079 C.ar    1  UNL1       -0.0291
      3 C          -2.8547   -2.1093    4.4970 C.ar    1  UNL1       -0.0553
      4 C          -1.5774   -1.8637    4.0653 C.ar    1  UNL1       -0.0401
      5 C          -1.3499   -1.1444    2.9293 C.ar    1  UNL1        0.0354
      6 N          -0.0170   -0.8725    2.4498 N.am    1  UNL1       -0.2814
      7 C           0.6278   -1.7749    1.5481 C.2     1  UNL1        0.2483
      8 O          -0.0373   -2.7862    1.2197 O.2     1  UNL1       -0.2699
      9 C           1.9676   -1.5667    1.0244 C.ar    1  UNL1        0.0370
     10 C           2.7616   -0.4867    1.3284 C.ar    1  UNL1       -0.0493
     11 C           4.0426   -0.3535    0.7871 C.ar    1  UNL1       -0.0566
     12 C           4.5551   -1.3010   -0.0712 C.ar    1  UNL1       -0.0333
     13 C           5.9067   -1.2070   -0.6769 C.3     1  UNL1        0.0241
     14 N           5.9109   -0.5474   -1.9447 N.3     1  UNL1       -0.2957
     15 C           5.4247    0.8058   -1.9221 C.3     1  UNL1        0.0120
     16 C           6.4019    1.7630   -1.2891 C.3     1  UNL1        0.0114
     17 N           7.7615    1.4272   -1.5066 N.3     1  UNL1       -0.3029
     18 C           8.5958    1.3815   -0.3535 C.3     1  UNL1       -0.0127
     19 C           8.0533    0.5015   -2.5358 C.3     1  UNL1        0.0114
     20 C           7.1605   -0.6856   -2.6516 C.3     1  UNL1        0.0120
     21 C           3.7580   -2.3872   -0.3776 C.ar    1  UNL1       -0.0566
     22 C           2.4892   -2.5080    0.1657 C.ar    1  UNL1       -0.0493
     23 C          -2.4495   -0.6686    2.2237 C.ar    1  UNL1       -0.0190
     24 C          -3.7455   -0.8997    2.6335 C.ar    1  UNL1        0.0383
     25 N          -4.8899   -0.4424    1.9497 N.pl3   1  UNL1       -0.2833
     26 C          -4.9639    0.3326    0.7766 C.ar    1  UNL1        0.2200
     27 N          -3.8743    0.7574    0.1696 N.ar    1  UNL1       -0.2226
     28 C          -3.8683    1.4943   -0.9429 C.ar    1  UNL1        0.0332
     29 C          -5.1150    1.8186   -1.4723 C.ar    1  UNL1       -0.0174
     30 C          -6.2655    1.3902   -0.8622 C.ar    1  UNL1        0.0775
     31 C          -7.5550    1.7369   -1.4293 C.ar    1  UNL1        0.0186
     32 C          -7.7405    2.4838   -2.5610 C.ar    1  UNL1       -0.0497
     33 C          -9.0173    2.7520   -3.0122 C.ar    1  UNL1       -0.0430
     34 C         -10.1229    2.2881   -2.3545 C.ar    1  UNL1        0.0276
     35 N          -9.9216    1.5574   -1.2466 N.ar    1  UNL1       -0.2626
     36 C          -8.7037    1.2738   -0.7744 C.ar    1  UNL1        0.0367
     37 N          -6.1858    0.6600    0.2430 N.ar    1  UNL1       -0.2142
     38 H          -5.2686   -2.6498    5.0968 H       1  UNL1        0.0278
     39 H          -5.9466   -2.4100    3.4784 H       1  UNL1        0.0278
     40 H          -5.8199   -0.9791    4.6472 H       1  UNL1        0.0278
     41 H          -3.0551   -2.6886    5.4127 H       1  UNL1        0.0621
     42 H          -0.7546   -2.2482    4.6379 H       1  UNL1        0.0636
     43 H           0.5224   -0.0273    2.7320 H       1  UNL1        0.1551
     44 H           2.3943    0.2672    1.9914 H       1  UNL1        0.0625
     45 H           4.6601    0.4974    1.0332 H       1  UNL1        0.0621
     46 H           6.6325   -0.7482    0.0259 H       1  UNL1        0.0476
     47 H           6.2620   -2.2497   -0.8306 H       1  UNL1        0.0476
     48 H           4.4928    0.8293   -1.3250 H       1  UNL1        0.0439
     49 H           5.1489    1.1645   -2.9299 H       1  UNL1        0.0439
     50 H           6.1995    2.7685   -1.7114 H       1  UNL1        0.0439
     51 H           6.2342    1.8561   -0.1843 H       1  UNL1        0.0439
     52 H           8.1612    2.0710    0.4083 H       1  UNL1        0.0391
     53 H           9.5767    1.8634   -0.6383 H       1  UNL1        0.0391
     54 H           8.7508    0.3815    0.0795 H       1  UNL1        0.0391
     55 H           8.1380    1.0567   -3.4975 H       1  UNL1        0.0439
     56 H           9.0966    0.1076   -2.3518 H       1  UNL1        0.0439
     57 H           6.9132   -0.8199   -3.7444 H       1  UNL1        0.0439
     58 H           7.6249   -1.6436   -2.3396 H       1  UNL1        0.0439
     59 H           4.1604   -3.1350   -1.0543 H       1  UNL1        0.0621
     60 H           1.8853   -3.3717   -0.0927 H       1  UNL1        0.0625
     61 H          -2.2341   -0.1084    1.3352 H       1  UNL1        0.0655
     62 H          -5.8430   -0.7094    2.3600 H       1  UNL1        0.1550
     63 H          -2.9713    1.8333   -1.4260 H       1  UNL1        0.0831
     64 H          -5.1006    2.4084   -2.3625 H       1  UNL1        0.0654
     65 H          -6.8775    2.8656   -3.1046 H       1  UNL1        0.0625
     66 H          -9.1618    3.3455   -3.9111 H       1  UNL1        0.0633
     67 H         -11.1294    2.5143   -2.7324 H       1  UNL1        0.0829
     68 H          -8.5726    0.6815    0.1225 H       1  UNL1        0.0836
@<TRIPOS>BOND
     1     1     2    1
     2     2     3   ar
     3     3     4   ar
     4     4     5   ar
     5     5     6    1
     6     6     7   am
     7     7     8    2
     8     7     9    1
     9     9    10   ar
    10    10    11   ar
    11    11    12   ar
    12    12    13    1
    13    13    14    1
    14    14    15    1
    15    15    16    1
    16    16    17    1
    17    17    18    1
    18    17    19    1
    19    19    20    1
    20    12    21   ar
    21    21    22   ar
    22     5    23   ar
    23    23    24   ar
    24    24    25    1
    25    25    26    1
    26    26    27   ar
    27    27    28   ar
    28    28    29   ar
    29    29    30   ar
    30    30    31    1
    31    31    32   ar
    32    32    33   ar
    33    33    34   ar
    34    34    35   ar
    35    35    36   ar
    36    30    37   ar
    37    24     2   ar
    38    37    26   ar
    39    22     9   ar
    40    36    31   ar
    41    20    14    1
    42     1    38    1
    43     1    39    1
    44     1    40    1
    45     3    41    1
    46     4    42    1
    47     6    43    1
    48    10    44    1
    49    11    45    1
    50    13    46    1
    51    13    47    1
    52    15    48    1
    53    15    49    1
    54    16    50    1
    55    16    51    1
    56    18    52    1
    57    18    53    1
    58    18    54    1
    59    19    55    1
    60    19    56    1
    61    20    57    1
    62    20    58    1
    63    21    59    1
    64    22    60    1
    65    23    61    1
    66    25    62    1
    67    28    63    1
    68    29    64    1
    69    32    65    1
    70    33    66    1
    71    34    67    1
    72    36    68    1
