@<TRIPOS>MOLECULE
*****
 22 23 0 0 0
SMALL
GASTEIGER

@<TRIPOS>ATOM
      1 N           4.8727    0.7874    0.0364 N.3     1  UNL1       -0.2015
      2 S           4.0847   -0.5472    0.7758 S.O2    1  UNL1        0.0814
      3 O           4.0573   -0.3121    2.2599 O.2     1  UNL1       -0.1512
      4 O           4.7277   -1.8290    0.4089 O.2     1  UNL1       -0.1512
      5 C           2.4422   -0.6441    0.1382 C.ar    1  UNL1        0.2544
      6 N           1.8556   -1.1450   -0.7424 N.ar    1  UNL1       -0.1203
      7 N           0.5826   -1.0189   -0.9539 N.ar    1  UNL1       -0.1395
      8 C          -0.1605   -0.4122   -0.3305 C.ar    1  UNL1        0.1351
      9 S           1.0280    0.2683    0.9853 S.2     1  UNL1       -0.0256
     10 C          -1.6627   -0.0413   -0.2689 C.ar    1  UNL1        0.0273
     11 C          -2.3835   -0.6155   -1.2930 C.ar    1  UNL1       -0.0506
     12 C          -3.7254   -0.3051   -1.2672 C.ar    1  UNL1       -0.0610
     13 C          -4.2930    0.5103   -0.2979 C.ar    1  UNL1       -0.0603
     14 C          -3.4922    1.0425    0.6917 C.ar    1  UNL1       -0.0427
     15 C          -2.1455    0.7769    0.7302 C.ar    1  UNL1        0.0507
     16 CL         -1.0513    1.4058    1.9448 Cl      1  UNL1       -0.0828
     17 H           4.9629    0.6610   -0.9842 H       1  UNL1        0.1443
     18 H           5.7707    0.9970    0.5049 H       1  UNL1        0.1443
     19 H          -1.9124   -1.2459   -2.0326 H       1  UNL1        0.0625
     20 H          -4.3262   -0.7514   -2.0757 H       1  UNL1        0.0618
     21 H          -5.3558    0.7282   -0.3167 H       1  UNL1        0.0618
     22 H          -3.8758    1.6904    1.4825 H       1  UNL1        0.0632
@<TRIPOS>BOND
     1     1     2    1
     2     2     3    2
     3     2     4    2
     4     2     5    1
     5     5     6   ar
     6     6     7   ar
     7     7     8   ar
     8     8     9   ar
     9     8    10    1
    10    10    11   ar
    11    11    12   ar
    12    12    13   ar
    13    13    14   ar
    14    14    15   ar
    15    15    16    1
    16     9     5   ar
    17    15    10   ar
    18     1    17    1
    19     1    18    1
    20    11    19    1
    21    12    20    1
    22    13    21    1
    23    14    22    1
