@<TRIPOS>MOLECULE
*****
 78 83 0 0 0
SMALL
GASTEIGER

@<TRIPOS>ATOM
      1 C           7.8065    0.4031   -1.7944 C.3     1  UNL1       -0.0366
      2 C           8.1589   -0.6550   -0.8446 C.ar    1  UNL1       -0.0111
      3 C           9.4517   -1.1840   -0.9136 C.ar    1  UNL1        0.0456
      4 CL         10.6311   -0.5798   -2.0846 Cl      1  UNL1       -0.0832
      5 C           9.8225   -2.1799   -0.0584 C.ar    1  UNL1       -0.0430
      6 C           8.9002   -2.6411    0.8593 C.ar    1  UNL1       -0.0586
      7 C           7.6283   -2.1216    0.9287 C.ar    1  UNL1       -0.0403
      8 C           7.2429   -1.1080    0.0628 C.ar    1  UNL1        0.0341
      9 N           5.9287   -0.5594    0.1673 N.pl3   1  UNL1       -0.3272
     10 C           5.8848    0.8707    0.4554 C.3     1  UNL1        0.0250
     11 C           4.8295    1.0758    1.5130 C.3     1  UNL1        0.0147
     12 N           3.5330    0.6570    0.9901 N.3     1  UNL1       -0.2993
     13 C           3.2818    1.2663   -0.3040 C.3     1  UNL1        0.0004
     14 C           1.8330    1.1080   -0.7204 C.3     1  UNL1       -0.0245
     15 C           0.9972    1.8144    0.2888 C.3     1  UNL1        0.0131
     16 N          -0.4479    1.7271    0.0181 N.am    1  UNL1       -0.3100
     17 C          -1.0325    0.4474    0.0383 C.2     1  UNL1        0.2643
     18 O          -0.2498   -0.5500    0.2881 O.2     1  UNL1       -0.2685
     19 C          -2.4257    0.1548   -0.1965 C.ar    1  UNL1        0.1491
     20 N          -2.8774   -1.1402   -0.3687 N.ar    1  UNL1       -0.2222
     21 C          -4.1900   -1.1469   -0.5538 C.ar    1  UNL1        0.1463
     22 C          -4.9865   -2.3524   -0.7586 C.ar    1  UNL1        0.0178
     23 C          -5.5284   -3.0469    0.3194 C.ar    1  UNL1       -0.0511
     24 C          -6.2584   -4.1780    0.1012 C.ar    1  UNL1       -0.0611
     25 C          -6.4898   -4.6762   -1.1653 C.ar    1  UNL1       -0.0617
     26 C          -5.9609   -4.0023   -2.2473 C.ar    1  UNL1       -0.0611
     27 C          -5.2255   -2.8605   -2.0135 C.ar    1  UNL1       -0.0511
     28 N          -4.5985    0.1170   -0.5064 N.ar    1  UNL1       -0.2939
     29 C          -5.9391    0.5170   -0.6690 C.ar    1  UNL1        0.0484
     30 C          -6.3706    1.1832   -1.8183 C.ar    1  UNL1       -0.0378
     31 C          -7.6817    1.5615   -1.9482 C.ar    1  UNL1       -0.0598
     32 C          -8.6355    1.3079   -0.9654 C.ar    1  UNL1       -0.0616
     33 C          -8.2235    0.6495    0.1776 C.ar    1  UNL1       -0.0598
     34 C          -6.9031    0.2775    0.2918 C.ar    1  UNL1       -0.0378
     35 C          -3.5283    0.9559   -0.2837 C.ar    1  UNL1        0.0774
     36 C          -3.7109    2.4151   -0.1360 C.3     1  UNL1        0.0860
     37 N          -3.7627    2.8644    1.2450 N.ar    1  UNL1       -0.2462
     38 C          -2.7687    3.2791    2.0178 C.ar    1  UNL1        0.1147
     39 N          -3.3247    3.5815    3.2295 N.ar    1  UNL1       -0.2228
     40 C          -4.6360    3.3476    3.1735 C.ar    1  UNL1        0.1380
     41 N          -4.8770    2.9083    1.9447 N.ar    1  UNL1       -0.1581
     42 C           3.5553   -0.8085    0.8500 C.3     1  UNL1        0.0147
     43 C           4.7159   -1.2831    0.0251 C.3     1  UNL1        0.0250
     44 H           6.7816    0.2832   -2.1899 H       1  UNL1        0.0279
     45 H           8.5557    0.3857   -2.6347 H       1  UNL1        0.0279
     46 H           7.9374    1.3926   -1.2982 H       1  UNL1        0.0279
     47 H          10.8435   -2.5805   -0.1237 H       1  UNL1        0.0632
     48 H           9.2224   -3.4318    1.5205 H       1  UNL1        0.0619
     49 H           6.9168   -2.4977    1.6562 H       1  UNL1        0.0636
     50 H           5.5821    1.3929   -0.4499 H       1  UNL1        0.0476
     51 H           6.8836    1.2446    0.8267 H       1  UNL1        0.0476
     52 H           4.7570    2.1409    1.7559 H       1  UNL1        0.0442
     53 H           5.0539    0.5031    2.4376 H       1  UNL1        0.0442
     54 H           3.5455    2.3217   -0.3348 H       1  UNL1        0.0427
     55 H           3.8571    0.6629   -1.0522 H       1  UNL1        0.0427
     56 H           1.7380    1.6750   -1.6819 H       1  UNL1        0.0293
     57 H           1.6289    0.0650   -0.9112 H       1  UNL1        0.0293
     58 H           1.1504    1.4330    1.3207 H       1  UNL1        0.0462
     59 H           1.2512    2.8808    0.2805 H       1  UNL1        0.0462
     60 H          -0.9920    2.5874   -0.1955 H       1  UNL1        0.1490
     61 H          -5.3397   -2.6406    1.3142 H       1  UNL1        0.0625
     62 H          -6.6700   -4.7054    0.9605 H       1  UNL1        0.0618
     63 H          -7.0848   -5.5891   -1.2544 H       1  UNL1        0.0618
     64 H          -6.1496   -4.4027   -3.2291 H       1  UNL1        0.0618
     65 H          -4.8136   -2.3383   -2.8580 H       1  UNL1        0.0625
     66 H          -5.6436    1.3849   -2.5845 H       1  UNL1        0.0638
     67 H          -8.0167    2.0869   -2.8558 H       1  UNL1        0.0618
     68 H          -9.6617    1.5946   -1.0430 H       1  UNL1        0.0618
     69 H          -8.9466    0.4362    0.9669 H       1  UNL1        0.0618
     70 H          -6.6034   -0.2445    1.2081 H       1  UNL1        0.0638
     71 H          -4.7390    2.6800   -0.5707 H       1  UNL1        0.0574
     72 H          -3.0509    3.0268   -0.7715 H       1  UNL1        0.0574
     73 H          -1.7060    3.3963    1.8256 H       1  UNL1        0.1044
     74 H          -5.3836    3.4892    3.9748 H       1  UNL1        0.1065
     75 H           3.5572   -1.3157    1.8315 H       1  UNL1        0.0442
     76 H           2.6180   -1.0942    0.3485 H       1  UNL1        0.0442
     77 H           4.9374   -2.3457    0.3550 H       1  UNL1        0.0476
     78 H           4.4154   -1.2936   -1.0465 H       1  UNL1        0.0476
@<TRIPOS>BOND
     1     1     2    1
     2     2     3   ar
     3     3     4    1
     4     3     5   ar
     5     5     6   ar
     6     6     7   ar
     7     7     8   ar
     8     8     9    1
     9     9    10    1
    10    10    11    1
    11    11    12    1
    12    12    13    1
    13    13    14    1
    14    14    15    1
    15    15    16    1
    16    16    17   am
    17    17    18    2
    18    17    19    1
    19    19    20   ar
    20    20    21   ar
    21    21    22    1
    22    22    23   ar
    23    23    24   ar
    24    24    25   ar
    25    25    26   ar
    26    26    27   ar
    27    21    28   ar
    28    28    29    1
    29    29    30   ar
    30    30    31   ar
    31    31    32   ar
    32    32    33   ar
    33    33    34   ar
    34    28    35   ar
    35    35    36    1
    36    36    37    1
    37    37    38   ar
    38    38    39   ar
    39    39    40   ar
    40    40    41   ar
    41    12    42    1
    42    42    43    1
    43     8     2   ar
    44    43     9    1
    45    35    19   ar
    46    41    37   ar
    47    27    22   ar
    48    34    29   ar
    49     1    44    1
    50     1    45    1
    51     1    46    1
    52     5    47    1
    53     6    48    1
    54     7    49    1
    55    10    50    1
    56    10    51    1
    57    11    52    1
    58    11    53    1
    59    13    54    1
    60    13    55    1
    61    14    56    1
    62    14    57    1
    63    15    58    1
    64    15    59    1
    65    16    60    1
    66    23    61    1
    67    24    62    1
    68    25    63    1
    69    26    64    1
    70    27    65    1
    71    30    66    1
    72    31    67    1
    73    32    68    1
    74    33    69    1
    75    34    70    1
    76    36    71    1
    77    36    72    1
    78    38    73    1
    79    40    74    1
    80    42    75    1
    81    42    76    1
    82    43    77    1
    83    43    78    1
