
     RDKit          3D

 78 83  0  0  0  0  0  0  0  0999 V2000
    7.8065    0.4031   -1.7944 C   0  0  0  0  0  0  0  0  0  0  0  0
    8.1589   -0.6550   -0.8446 C   0  0  0  0  0  0  0  0  0  0  0  0
    9.4517   -1.1840   -0.9136 C   0  0  0  0  0  0  0  0  0  0  0  0
   10.6311   -0.5798   -2.0846 Cl  0  0  0  0  0  0  0  0  0  0  0  0
    9.8225   -2.1799   -0.0584 C   0  0  0  0  0  0  0  0  0  0  0  0
    8.9002   -2.6411    0.8593 C   0  0  0  0  0  0  0  0  0  0  0  0
    7.6283   -2.1216    0.9287 C   0  0  0  0  0  0  0  0  0  0  0  0
    7.2429   -1.1080    0.0628 C   0  0  0  0  0  0  0  0  0  0  0  0
    5.9287   -0.5594    0.1673 N   0  0  0  0  0  0  0  0  0  0  0  0
    5.8848    0.8707    0.4554 C   0  0  0  0  0  0  0  0  0  0  0  0
    4.8295    1.0758    1.5130 C   0  0  0  0  0  0  0  0  0  0  0  0
    3.5330    0.6570    0.9901 N   0  0  0  0  0  0  0  0  0  0  0  0
    3.2818    1.2663   -0.3040 C   0  0  0  0  0  0  0  0  0  0  0  0
    1.8330    1.1080   -0.7204 C   0  0  0  0  0  0  0  0  0  0  0  0
    0.9972    1.8144    0.2888 C   0  0  0  0  0  0  0  0  0  0  0  0
   -0.4479    1.7271    0.0181 N   0  0  0  0  0  0  0  0  0  0  0  0
   -1.0325    0.4474    0.0383 C   0  0  0  0  0  0  0  0  0  0  0  0
   -0.2498   -0.5500    0.2881 O   0  0  0  0  0  0  0  0  0  0  0  0
   -2.4257    0.1548   -0.1965 C   0  0  0  0  0  0  0  0  0  0  0  0
   -2.8774   -1.1402   -0.3687 N   0  0  0  0  0  0  0  0  0  0  0  0
   -4.1900   -1.1469   -0.5538 C   0  0  0  0  0  0  0  0  0  0  0  0
   -4.9865   -2.3524   -0.7586 C   0  0  0  0  0  0  0  0  0  0  0  0
   -5.5284   -3.0469    0.3194 C   0  0  0  0  0  0  0  0  0  0  0  0
   -6.2584   -4.1780    0.1012 C   0  0  0  0  0  0  0  0  0  0  0  0
   -6.4898   -4.6762   -1.1653 C   0  0  0  0  0  0  0  0  0  0  0  0
   -5.9609   -4.0023   -2.2473 C   0  0  0  0  0  0  0  0  0  0  0  0
   -5.2255   -2.8605   -2.0135 C   0  0  0  0  0  0  0  0  0  0  0  0
   -4.5985    0.1170   -0.5064 N   0  0  0  0  0  0  0  0  0  0  0  0
   -5.9391    0.5170   -0.6690 C   0  0  0  0  0  0  0  0  0  0  0  0
   -6.3706    1.1832   -1.8183 C   0  0  0  0  0  0  0  0  0  0  0  0
   -7.6817    1.5615   -1.9482 C   0  0  0  0  0  0  0  0  0  0  0  0
   -8.6355    1.3079   -0.9654 C   0  0  0  0  0  0  0  0  0  0  0  0
   -8.2235    0.6495    0.1776 C   0  0  0  0  0  0  0  0  0  0  0  0
   -6.9031    0.2775    0.2918 C   0  0  0  0  0  0  0  0  0  0  0  0
   -3.5283    0.9559   -0.2837 C   0  0  0  0  0  0  0  0  0  0  0  0
   -3.7109    2.4151   -0.1360 C   0  0  0  0  0  0  0  0  0  0  0  0
   -3.7627    2.8644    1.2450 N   0  0  0  0  0  0  0  0  0  0  0  0
   -2.7687    3.2791    2.0178 C   0  0  0  0  0  0  0  0  0  0  0  0
   -3.3247    3.5815    3.2295 N   0  0  0  0  0  0  0  0  0  0  0  0
   -4.6360    3.3476    3.1735 C   0  0  0  0  0  0  0  0  0  0  0  0
   -4.8770    2.9083    1.9447 N   0  0  0  0  0  0  0  0  0  0  0  0
    3.5553   -0.8085    0.8500 C   0  0  0  0  0  0  0  0  0  0  0  0
    4.7159   -1.2831    0.0251 C   0  0  0  0  0  0  0  0  0  0  0  0
    6.7816    0.2832   -2.1899 H   0  0  0  0  0  0  0  0  0  0  0  0
    8.5557    0.3857   -2.6347 H   0  0  0  0  0  0  0  0  0  0  0  0
    7.9374    1.3926   -1.2982 H   0  0  0  0  0  0  0  0  0  0  0  0
   10.8435   -2.5805   -0.1237 H   0  0  0  0  0  0  0  0  0  0  0  0
    9.2224   -3.4318    1.5205 H   0  0  0  0  0  0  0  0  0  0  0  0
    6.9168   -2.4977    1.6562 H   0  0  0  0  0  0  0  0  0  0  0  0
    5.5821    1.3929   -0.4499 H   0  0  0  0  0  0  0  0  0  0  0  0
    6.8836    1.2446    0.8267 H   0  0  0  0  0  0  0  0  0  0  0  0
    4.7570    2.1409    1.7559 H   0  0  0  0  0  0  0  0  0  0  0  0
    5.0539    0.5031    2.4376 H   0  0  0  0  0  0  0  0  0  0  0  0
    3.5455    2.3217   -0.3348 H   0  0  0  0  0  0  0  0  0  0  0  0
    3.8571    0.6629   -1.0522 H   0  0  0  0  0  0  0  0  0  0  0  0
    1.7380    1.6750   -1.6819 H   0  0  0  0  0  0  0  0  0  0  0  0
    1.6289    0.0650   -0.9112 H   0  0  0  0  0  0  0  0  0  0  0  0
    1.1504    1.4330    1.3207 H   0  0  0  0  0  0  0  0  0  0  0  0
    1.2512    2.8808    0.2805 H   0  0  0  0  0  0  0  0  0  0  0  0
   -0.9920    2.5874   -0.1955 H   0  0  0  0  0  0  0  0  0  0  0  0
   -5.3397   -2.6406    1.3142 H   0  0  0  0  0  0  0  0  0  0  0  0
   -6.6700   -4.7054    0.9605 H   0  0  0  0  0  0  0  0  0  0  0  0
   -7.0848   -5.5891   -1.2544 H   0  0  0  0  0  0  0  0  0  0  0  0
   -6.1496   -4.4027   -3.2291 H   0  0  0  0  0  0  0  0  0  0  0  0
   -4.8136   -2.3383   -2.8580 H   0  0  0  0  0  0  0  0  0  0  0  0
   -5.6436    1.3849   -2.5845 H   0  0  0  0  0  0  0  0  0  0  0  0
   -8.0167    2.0869   -2.8558 H   0  0  0  0  0  0  0  0  0  0  0  0
   -9.6617    1.5946   -1.0430 H   0  0  0  0  0  0  0  0  0  0  0  0
   -8.9466    0.4362    0.9669 H   0  0  0  0  0  0  0  0  0  0  0  0
   -6.6034   -0.2445    1.2081 H   0  0  0  0  0  0  0  0  0  0  0  0
   -4.7390    2.6800   -0.5707 H   0  0  0  0  0  0  0  0  0  0  0  0
   -3.0509    3.0268   -0.7715 H   0  0  0  0  0  0  0  0  0  0  0  0
   -1.7060    3.3963    1.8256 H   0  0  0  0  0  0  0  0  0  0  0  0
   -5.3836    3.4892    3.9748 H   0  0  0  0  0  0  0  0  0  0  0  0
    3.5572   -1.3157    1.8315 H   0  0  0  0  0  0  0  0  0  0  0  0
    2.6180   -1.0942    0.3485 H   0  0  0  0  0  0  0  0  0  0  0  0
    4.9374   -2.3457    0.3550 H   0  0  0  0  0  0  0  0  0  0  0  0
    4.4154   -1.2936   -1.0465 H   0  0  0  0  0  0  0  0  0  0  0  0
  1  2  1  0
  2  3  2  0
  3  4  1  0
  3  5  1  0
  5  6  2  0
  6  7  1  0
  7  8  2  0
  8  9  1  0
  9 10  1  0
 10 11  1  0
 11 12  1  0
 12 13  1  0
 13 14  1  0
 14 15  1  0
 15 16  1  0
 16 17  1  0
 17 18  2  0
 17 19  1  0
 19 20  1  0
 20 21  2  0
 21 22  1  0
 22 23  2  0
 23 24  1  0
 24 25  2  0
 25 26  1  0
 26 27  2  0
 21 28  1  0
 28 29  1  0
 29 30  2  0
 30 31  1  0
 31 32  2  0
 32 33  1  0
 33 34  2  0
 28 35  1  0
 35 36  1  0
 36 37  1  0
 37 38  1  0
 38 39  2  0
 39 40  1  0
 40 41  2  0
 12 42  1  0
 42 43  1  0
  8  2  1  0
 43  9  1  0
 35 19  2  0
 41 37  1  0
 27 22  1  0
 34 29  1  0
  1 44  1  0
  1 45  1  0
  1 46  1  0
  5 47  1  0
  6 48  1  0
  7 49  1  0
 10 50  1  0
 10 51  1  0
 11 52  1  0
 11 53  1  0
 13 54  1  0
 13 55  1  0
 14 56  1  0
 14 57  1  0
 15 58  1  0
 15 59  1  0
 16 60  1  0
 23 61  1  0
 24 62  1  0
 25 63  1  0
 26 64  1  0
 27 65  1  0
 30 66  1  0
 31 67  1  0
 32 68  1  0
 33 69  1  0
 34 70  1  0
 36 71  1  0
 36 72  1  0
 38 73  1  0
 40 74  1  0
 42 75  1  0
 42 76  1  0
 43 77  1  0
 43 78  1  0
M  END
$$$$
