
     RDKit          3D

 39 42  0  0  0  0  0  0  0  0999 V2000
   -4.8375   -1.4226    2.1704 N   0  0  0  0  0  0  0  0  0  0  0  0
   -4.2759   -1.5778    1.1673 C   0  0  0  0  0  0  0  0  0  0  0  0
   -3.5803   -1.7465   -0.0749 C   0  0  0  0  0  0  0  0  0  0  0  0
   -4.0064   -2.5533   -1.1089 C   0  0  0  0  0  0  0  0  0  0  0  0
   -3.0850   -2.4279   -2.0656 N   0  0  0  0  0  0  0  0  0  0  0  0
   -2.1313   -1.5813   -1.6424 C   0  0  0  0  0  0  0  0  0  0  0  0
   -0.9917   -1.1491   -2.2786 C   0  0  0  0  0  0  0  0  0  0  0  0
   -0.1360   -0.2655   -1.6537 C   0  0  0  0  0  0  0  0  0  0  0  0
   -0.4221    0.1888   -0.3845 C   0  0  0  0  0  0  0  0  0  0  0  0
    0.4266    1.1193    0.3445 C   0  0  0  0  0  0  0  0  0  0  0  0
    1.7229    0.8740    0.7455 C   0  0  0  0  0  0  0  0  0  0  0  0
    2.4960   -0.3598    0.5212 C   0  0  0  0  0  0  0  0  0  0  0  0
    2.0523   -1.5332    1.0804 C   0  0  0  0  0  0  0  0  0  0  0  0
    2.7370   -2.7308    0.9064 C   0  0  0  0  0  0  0  0  0  0  0  0
    2.1352   -4.2166    1.6405 Cl  0  0  0  0  0  0  0  0  0  0  0  0
    3.8857   -2.7700    0.1634 C   0  0  0  0  0  0  0  0  0  0  0  0
    4.5846   -3.9388   -0.0264 F   0  0  0  0  0  0  0  0  0  0  0  0
    4.3439   -1.5998   -0.4046 C   0  0  0  0  0  0  0  0  0  0  0  0
    3.6489   -0.4077   -0.2226 C   0  0  0  0  0  0  0  0  0  0  0  0
    4.1141    0.7218   -0.7859 F   0  0  0  0  0  0  0  0  0  0  0  0
    2.1396    1.9815    1.3813 N   0  0  0  0  0  0  0  0  0  0  0  0
    1.1726    2.9033    1.3979 C   0  0  0  0  0  0  0  0  0  0  0  0
    0.1253    2.3590    0.7566 N   0  0  0  0  0  0  0  0  0  0  0  0
   -1.1473    3.0539    0.5558 C   0  0  0  0  0  0  0  0  0  0  0  0
   -1.1183    3.8333   -0.7485 C   0  0  0  0  0  0  0  0  0  0  0  0
   -2.3113    4.4956   -0.9552 F   0  0  0  0  0  0  0  0  0  0  0  0
   -0.0853    4.7651   -0.6706 F   0  0  0  0  0  0  0  0  0  0  0  0
   -1.5847   -0.2719    0.2256 C   0  0  0  0  0  0  0  0  0  0  0  0
   -2.4105   -1.1402   -0.4082 N   0  0  0  0  0  0  0  0  0  0  0  0
   -4.8864   -3.1753   -1.1857 H   0  0  0  0  0  0  0  0  0  0  0  0
   -0.7908   -1.5185   -3.2698 H   0  0  0  0  0  0  0  0  0  0  0  0
    0.7602    0.0780   -2.1469 H   0  0  0  0  0  0  0  0  0  0  0  0
    1.1472   -1.5226    1.6703 H   0  0  0  0  0  0  0  0  0  0  0  0
    5.2531   -1.6555   -0.9869 H   0  0  0  0  0  0  0  0  0  0  0  0
    1.2017    3.9115    1.8401 H   0  0  0  0  0  0  0  0  0  0  0  0
   -1.9981    2.3518    0.4947 H   0  0  0  0  0  0  0  0  0  0  0  0
   -1.2814    3.7460    1.4047 H   0  0  0  0  0  0  0  0  0  0  0  0
   -0.9761    3.1529   -1.6103 H   0  0  0  0  0  0  0  0  0  0  0  0
   -1.8904    0.0288    1.2171 H   0  0  0  0  0  0  0  0  0  0  0  0
  1  2  3  0
  2  3  1  0
  3  4  2  0
  4  5  1  0
  5  6  2  0
  6  7  1  0
  7  8  2  0
  8  9  1  0
  9 10  1  0
 10 11  2  0
 11 12  1  0
 12 13  2  0
 13 14  1  0
 14 15  1  0
 14 16  2  0
 16 17  1  0
 16 18  1  0
 18 19  2  0
 19 20  1  0
 11 21  1  0
 21 22  2  0
 22 23  1  0
 23 24  1  0
 24 25  1  0
 25 26  1  0
 25 27  1  0
  9 28  2  0
 28 29  1  0
 29  3  1  0
 29  6  1  0
 23 10  1  0
 19 12  1  0
  4 30  1  0
  7 31  1  0
  8 32  1  0
 13 33  1  0
 18 34  1  0
 22 35  1  0
 24 36  1  0
 24 37  1  0
 25 38  1  0
 28 39  1  0
M  END
$$$$
