@<TRIPOS>MOLECULE
*****
 39 42 0 0 0
SMALL
GASTEIGER

@<TRIPOS>ATOM
      1 N          -4.8375   -1.4226    2.1704 N.1     1  UNL1       -0.1893
      2 C          -4.2759   -1.5778    1.1673 C.1     1  UNL1        0.1192
      3 C          -3.5803   -1.7465   -0.0749 C.ar    1  UNL1        0.1438
      4 C          -4.0064   -2.5533   -1.1089 C.ar    1  UNL1        0.0643
      5 N          -3.0850   -2.4279   -2.0656 N.ar    1  UNL1       -0.2348
      6 C          -2.1313   -1.5813   -1.6424 C.ar    1  UNL1        0.1385
      7 C          -0.9917   -1.1491   -2.2786 C.ar    1  UNL1       -0.0181
      8 C          -0.1360   -0.2655   -1.6537 C.ar    1  UNL1       -0.0477
      9 C          -0.4221    0.1888   -0.3845 C.ar    1  UNL1        0.0173
     10 C           0.4266    1.1193    0.3445 C.ar    1  UNL1        0.0781
     11 C           1.7229    0.8740    0.7455 C.ar    1  UNL1        0.0995
     12 C           2.4960   -0.3598    0.5212 C.ar    1  UNL1        0.0392
     13 C           2.0523   -1.5332    1.0804 C.ar    1  UNL1       -0.0286
     14 C           2.7370   -2.7308    0.9064 C.ar    1  UNL1        0.0769
     15 CL          2.1352   -4.2166    1.6405 Cl      1  UNL1       -0.0806
     16 C           3.8857   -2.7700    0.1634 C.ar    1  UNL1        0.1444
     17 F           4.5846   -3.9388   -0.0264 F       1  UNL1       -0.2039
     18 C           4.3439   -1.5998   -0.4046 C.ar    1  UNL1        0.0109
     19 C           3.6489   -0.4077   -0.2226 C.ar    1  UNL1        0.1354
     20 F           4.1141    0.7218   -0.7859 F       1  UNL1       -0.2047
     21 N           2.1396    1.9815    1.3813 N.ar    1  UNL1       -0.2350
     22 C           1.1726    2.9033    1.3979 C.ar    1  UNL1        0.0972
     23 N           0.1253    2.3590    0.7566 N.ar    1  UNL1       -0.3241
     24 C          -1.1473    3.0539    0.5558 C.3     1  UNL1        0.0852
     25 C          -1.1183    3.8333   -0.7485 C.3     1  UNL1        0.2569
     26 F          -2.3113    4.4956   -0.9552 F       1  UNL1       -0.2073
     27 F          -0.0853    4.7651   -0.6706 F       1  UNL1       -0.2073
     28 C          -1.5847   -0.2719    0.2256 C.ar    1  UNL1        0.0216
     29 N          -2.4105   -1.1402   -0.4082 N.ar    1  UNL1       -0.2906
     30 H          -4.8864   -3.1753   -1.1857 H       1  UNL1        0.0859
     31 H          -0.7908   -1.5185   -3.2698 H       1  UNL1        0.0654
     32 H           0.7602    0.0780   -2.1469 H       1  UNL1        0.0626
     33 H           1.1472   -1.5226    1.6703 H       1  UNL1        0.0640
     34 H           5.2531   -1.6555   -0.9869 H       1  UNL1        0.0676
     35 H           1.2017    3.9115    1.8401 H       1  UNL1        0.1029
     36 H          -1.9981    2.3518    0.4947 H       1  UNL1        0.0548
     37 H          -1.2814    3.7460    1.4047 H       1  UNL1        0.0548
     38 H          -0.9761    3.1529   -1.6103 H       1  UNL1        0.1037
     39 H          -1.8904    0.0288    1.2171 H       1  UNL1        0.0820
@<TRIPOS>BOND
     1     1     2    3
     2     2     3    1
     3     3     4   ar
     4     4     5   ar
     5     5     6   ar
     6     6     7   ar
     7     7     8   ar
     8     8     9   ar
     9     9    10    1
    10    10    11   ar
    11    11    12    1
    12    12    13   ar
    13    13    14   ar
    14    14    15    1
    15    14    16   ar
    16    16    17    1
    17    16    18   ar
    18    18    19   ar
    19    19    20    1
    20    11    21   ar
    21    21    22   ar
    22    22    23   ar
    23    23    24    1
    24    24    25    1
    25    25    26    1
    26    25    27    1
    27     9    28   ar
    28    28    29   ar
    29    29     3   ar
    30    29     6   ar
    31    23    10   ar
    32    19    12   ar
    33     4    30    1
    34     7    31    1
    35     8    32    1
    36    13    33    1
    37    18    34    1
    38    22    35    1
    39    24    36    1
    40    24    37    1
    41    25    38    1
    42    28    39    1
