@<TRIPOS>MOLECULE
*****
 79 83 0 0 0
SMALL
GASTEIGER

@<TRIPOS>ATOM
      1 C           9.0531   -1.3227   -0.8874 C.3     1  UNL1       -0.0523
      2 C           7.6871   -0.7568   -0.7078 C.3     1  UNL1       -0.0036
      3 N           7.0997   -1.0511    0.5215 N.3     1  UNL1       -0.2987
      4 C           7.5844   -0.4907    1.7148 C.3     1  UNL1       -0.0036
      5 C           8.9341   -1.0386    2.0866 C.3     1  UNL1       -0.0523
      6 C           5.7234   -1.4467    0.5450 C.3     1  UNL1        0.0240
      7 C           4.7614   -0.4539    0.0435 C.ar    1  UNL1       -0.0331
      8 C           4.2112    0.5206    0.8801 C.ar    1  UNL1       -0.0539
      9 C           3.3249    1.4122    0.3893 C.ar    1  UNL1       -0.0196
     10 C           2.8972    1.4348   -0.9531 C.ar    1  UNL1        0.1205
     11 O           1.9941    2.3898   -1.3397 O.3     1  UNL1       -0.4920
     12 C           1.4117    2.6069   -2.5629 C.3     1  UNL1        0.0896
     13 C           0.5028    1.5796   -3.1315 C.3     1  UNL1       -0.0175
     14 C          -0.7263    1.3355   -2.3131 C.3     1  UNL1       -0.0371
     15 C          -0.4988    0.8580   -0.9236 C.3     1  UNL1       -0.0007
     16 N          -1.6935    0.6006   -0.1997 N.3     1  UNL1       -0.2981
     17 C          -2.5404    1.6184    0.1759 C.3     1  UNL1        0.0004
     18 C          -3.9282    1.5943   -0.4065 C.3     1  UNL1       -0.0235
     19 C          -4.8207    0.7341    0.4995 C.3     1  UNL1        0.0558
     20 C          -4.6090    1.1134    1.8999 C.2     1  UNL1       -0.0715
     21 C          -5.3564    2.0671    2.4366 C.2     1  UNL1       -0.0588
     22 C          -6.3956    2.7333    1.6075 C.3     1  UNL1        0.0768
     23 O          -7.3545    3.2469    2.5072 O.3     1  UNL1       -0.3876
     24 C          -7.1279    1.7477    0.7280 C.3     1  UNL1        0.0151
     25 C          -6.2459    0.7778    0.0332 C.3     1  UNL1        0.1161
     26 O          -6.7270   -0.5377    0.2978 O.3     1  UNL1       -0.4836
     27 C          -5.6268   -1.3920    0.1330 C.ar    1  UNL1        0.1667
     28 C          -5.5499   -2.7442   -0.1064 C.ar    1  UNL1        0.1618
     29 O          -6.7369   -3.4767   -0.2212 O.3     1  UNL1       -0.4914
     30 C          -6.7091   -4.8718   -0.4668 C.3     1  UNL1        0.0790
     31 C          -4.3535   -3.4046   -0.2375 C.ar    1  UNL1       -0.0160
     32 C          -3.2046   -2.6646   -0.1209 C.ar    1  UNL1       -0.0534
     33 C          -3.2148   -1.2927    0.1212 C.ar    1  UNL1       -0.0255
     34 C          -4.4414   -0.6884    0.2425 C.ar    1  UNL1        0.0158
     35 C          -1.8464   -0.7202    0.2130 C.3     1  UNL1        0.0244
     36 C           3.4554    0.4660   -1.7514 C.ar    1  UNL1       -0.0196
     37 C           4.3786   -0.4749   -1.2701 C.ar    1  UNL1       -0.0539
     38 H           9.0785   -2.4322   -0.7110 H       1  UNL1        0.0242
     39 H           9.3035   -1.2200   -1.9942 H       1  UNL1        0.0242
     40 H           9.8686   -0.8258   -0.3723 H       1  UNL1        0.0242
     41 H           7.7090    0.3199   -0.9900 H       1  UNL1        0.0424
     42 H           7.0513   -1.2249   -1.5198 H       1  UNL1        0.0424
     43 H           6.8738   -0.7984    2.5419 H       1  UNL1        0.0424
     44 H           7.6060    0.6232    1.7344 H       1  UNL1        0.0424
     45 H           8.9852   -1.2738    3.1882 H       1  UNL1        0.0242
     46 H           9.1979   -1.9936    1.5985 H       1  UNL1        0.0242
     47 H           9.7676   -0.3126    1.9234 H       1  UNL1        0.0242
     48 H           5.4569   -1.6441    1.6058 H       1  UNL1        0.0476
     49 H           5.6231   -2.4145    0.0189 H       1  UNL1        0.0476
     50 H           4.5564    0.4825    1.9094 H       1  UNL1        0.0622
     51 H           2.9049    2.1629    1.0498 H       1  UNL1        0.0654
     52 H           0.9173    3.6256   -2.6207 H       1  UNL1        0.0696
     53 H           2.2370    2.7354   -3.3570 H       1  UNL1        0.0696
     54 H           1.0206    0.6353   -3.4004 H       1  UNL1        0.0298
     55 H           0.2061    1.9884   -4.1589 H       1  UNL1        0.0298
     56 H          -1.3561    0.6171   -2.8856 H       1  UNL1        0.0279
     57 H          -1.3012    2.2969   -2.2337 H       1  UNL1        0.0279
     58 H           0.1289    1.6164   -0.3496 H       1  UNL1        0.0427
     59 H           0.1294   -0.0559   -0.9572 H       1  UNL1        0.0427
     60 H          -2.0924    2.6106   -0.1203 H       1  UNL1        0.0427
     61 H          -2.6220    1.6769    1.2837 H       1  UNL1        0.0427
     62 H          -4.3396    2.6230   -0.3478 H       1  UNL1        0.0290
     63 H          -3.9628    1.2753   -1.4475 H       1  UNL1        0.0290
     64 H          -3.8447    0.6362    2.5417 H       1  UNL1        0.0580
     65 H          -5.2107    2.3615    3.4776 H       1  UNL1        0.0595
     66 H          -6.0238    3.6046    1.0483 H       1  UNL1        0.0639
     67 H          -7.8684    3.9862    2.0957 H       1  UNL1        0.2102
     68 H          -7.9231    1.2801    1.3367 H       1  UNL1        0.0329
     69 H          -7.6491    2.3540   -0.0512 H       1  UNL1        0.0329
     70 H          -6.2009    0.9514   -1.0832 H       1  UNL1        0.0746
     71 H          -6.4542   -5.4505    0.4498 H       1  UNL1        0.0660
     72 H          -7.7563   -5.1717   -0.7164 H       1  UNL1        0.0660
     73 H          -6.0531   -5.0875   -1.3152 H       1  UNL1        0.0660
     74 H          -4.2860   -4.4736   -0.4270 H       1  UNL1        0.0655
     75 H          -2.2188   -3.1360   -0.2157 H       1  UNL1        0.0622
     76 H          -1.0908   -1.4335   -0.2174 H       1  UNL1        0.0476
     77 H          -1.6088   -0.7613    1.3236 H       1  UNL1        0.0476
     78 H           3.1825    0.4420   -2.8018 H       1  UNL1        0.0654
     79 H           4.7470   -1.2047   -2.0103 H       1  UNL1        0.0622
@<TRIPOS>BOND
     1     1     2    1
     2     2     3    1
     3     3     4    1
     4     4     5    1
     5     3     6    1
     6     6     7    1
     7     7     8   ar
     8     8     9   ar
     9     9    10   ar
    10    10    11    1
    11    11    12    1
    12    12    13    1
    13    13    14    1
    14    14    15    1
    15    15    16    1
    16    16    17    1
    17    17    18    1
    18    19    18    1
    19    19    20    1
    20    20    21    2
    21    21    22    1
    22    22    23    1
    23    22    24    1
    24    24    25    1
    25    25    26    1
    26    26    27    1
    27    27    28   ar
    28    28    29    1
    29    29    30    1
    30    28    31   ar
    31    31    32   ar
    32    32    33   ar
    33    33    34   ar
    34    33    35    1
    35    10    36   ar
    36    36    37   ar
    37    37     7   ar
    38    35    16    1
    39    25    19    1
    40    34    27   ar
    41    34    19    1
    42     1    38    1
    43     1    39    1
    44     1    40    1
    45     2    41    1
    46     2    42    1
    47     4    43    1
    48     4    44    1
    49     5    45    1
    50     5    46    1
    51     5    47    1
    52     6    48    1
    53     6    49    1
    54     8    50    1
    55     9    51    1
    56    12    52    1
    57    12    53    1
    58    13    54    1
    59    13    55    1
    60    14    56    1
    61    14    57    1
    62    15    58    1
    63    15    59    1
    64    17    60    1
    65    17    61    1
    66    18    62    1
    67    18    63    1
    68    20    64    1
    69    21    65    1
    70    22    66    1
    71    23    67    1
    72    24    68    1
    73    24    69    1
    74    25    70    1
    75    30    71    1
    76    30    72    1
    77    30    73    1
    78    31    74    1
    79    32    75    1
    80    35    76    1
    81    35    77    1
    82    36    78    1
    83    37    79    1
