
     RDKit          3D

 79 83  0  0  0  0  0  0  0  0999 V2000
    9.0531   -1.3227   -0.8874 C   0  0  0  0  0  0  0  0  0  0  0  0
    7.6871   -0.7568   -0.7078 C   0  0  0  0  0  0  0  0  0  0  0  0
    7.0997   -1.0511    0.5215 N   0  0  0  0  0  0  0  0  0  0  0  0
    7.5844   -0.4907    1.7148 C   0  0  0  0  0  0  0  0  0  0  0  0
    8.9341   -1.0386    2.0866 C   0  0  0  0  0  0  0  0  0  0  0  0
    5.7234   -1.4467    0.5450 C   0  0  0  0  0  0  0  0  0  0  0  0
    4.7614   -0.4539    0.0435 C   0  0  0  0  0  0  0  0  0  0  0  0
    4.2112    0.5206    0.8801 C   0  0  0  0  0  0  0  0  0  0  0  0
    3.3249    1.4122    0.3893 C   0  0  0  0  0  0  0  0  0  0  0  0
    2.8972    1.4348   -0.9531 C   0  0  0  0  0  0  0  0  0  0  0  0
    1.9941    2.3898   -1.3397 O   0  0  0  0  0  0  0  0  0  0  0  0
    1.4117    2.6069   -2.5629 C   0  0  0  0  0  0  0  0  0  0  0  0
    0.5028    1.5796   -3.1315 C   0  0  0  0  0  0  0  0  0  0  0  0
   -0.7263    1.3355   -2.3131 C   0  0  0  0  0  0  0  0  0  0  0  0
   -0.4988    0.8580   -0.9236 C   0  0  0  0  0  0  0  0  0  0  0  0
   -1.6935    0.6006   -0.1997 N   0  0  0  0  0  0  0  0  0  0  0  0
   -2.5404    1.6184    0.1759 C   0  0  0  0  0  0  0  0  0  0  0  0
   -3.9282    1.5943   -0.4065 C   0  0  0  0  0  0  0  0  0  0  0  0
   -4.8207    0.7341    0.4995 C   0  0  1  0  0  0  0  0  0  0  0  0
   -4.6090    1.1134    1.8999 C   0  0  0  0  0  0  0  0  0  0  0  0
   -5.3564    2.0671    2.4366 C   0  0  0  0  0  0  0  0  0  0  0  0
   -6.3956    2.7333    1.6075 C   0  0  2  0  0  0  0  0  0  0  0  0
   -7.3545    3.2469    2.5072 O   0  0  0  0  0  0  0  0  0  0  0  0
   -7.1279    1.7477    0.7280 C   0  0  0  0  0  0  0  0  0  0  0  0
   -6.2459    0.7778    0.0332 C   0  0  2  0  0  0  0  0  0  0  0  0
   -6.7270   -0.5377    0.2978 O   0  0  0  0  0  0  0  0  0  0  0  0
   -5.6268   -1.3920    0.1330 C   0  0  0  0  0  0  0  0  0  0  0  0
   -5.5499   -2.7442   -0.1064 C   0  0  0  0  0  0  0  0  0  0  0  0
   -6.7369   -3.4767   -0.2212 O   0  0  0  0  0  0  0  0  0  0  0  0
   -6.7091   -4.8718   -0.4668 C   0  0  0  0  0  0  0  0  0  0  0  0
   -4.3535   -3.4046   -0.2375 C   0  0  0  0  0  0  0  0  0  0  0  0
   -3.2046   -2.6646   -0.1209 C   0  0  0  0  0  0  0  0  0  0  0  0
   -3.2148   -1.2927    0.1212 C   0  0  0  0  0  0  0  0  0  0  0  0
   -4.4414   -0.6884    0.2425 C   0  0  0  0  0  0  0  0  0  0  0  0
   -1.8464   -0.7202    0.2130 C   0  0  0  0  0  0  0  0  0  0  0  0
    3.4554    0.4660   -1.7514 C   0  0  0  0  0  0  0  0  0  0  0  0
    4.3786   -0.4749   -1.2701 C   0  0  0  0  0  0  0  0  0  0  0  0
    9.0785   -2.4322   -0.7110 H   0  0  0  0  0  0  0  0  0  0  0  0
    9.3035   -1.2200   -1.9942 H   0  0  0  0  0  0  0  0  0  0  0  0
    9.8686   -0.8258   -0.3723 H   0  0  0  0  0  0  0  0  0  0  0  0
    7.7090    0.3199   -0.9900 H   0  0  0  0  0  0  0  0  0  0  0  0
    7.0513   -1.2249   -1.5198 H   0  0  0  0  0  0  0  0  0  0  0  0
    6.8738   -0.7984    2.5419 H   0  0  0  0  0  0  0  0  0  0  0  0
    7.6060    0.6232    1.7344 H   0  0  0  0  0  0  0  0  0  0  0  0
    8.9852   -1.2738    3.1882 H   0  0  0  0  0  0  0  0  0  0  0  0
    9.1979   -1.9936    1.5985 H   0  0  0  0  0  0  0  0  0  0  0  0
    9.7676   -0.3126    1.9234 H   0  0  0  0  0  0  0  0  0  0  0  0
    5.4569   -1.6441    1.6058 H   0  0  0  0  0  0  0  0  0  0  0  0
    5.6231   -2.4145    0.0189 H   0  0  0  0  0  0  0  0  0  0  0  0
    4.5564    0.4825    1.9094 H   0  0  0  0  0  0  0  0  0  0  0  0
    2.9049    2.1629    1.0498 H   0  0  0  0  0  0  0  0  0  0  0  0
    0.9173    3.6256   -2.6207 H   0  0  0  0  0  0  0  0  0  0  0  0
    2.2370    2.7354   -3.3570 H   0  0  0  0  0  0  0  0  0  0  0  0
    1.0206    0.6353   -3.4004 H   0  0  0  0  0  0  0  0  0  0  0  0
    0.2061    1.9884   -4.1589 H   0  0  0  0  0  0  0  0  0  0  0  0
   -1.3561    0.6171   -2.8856 H   0  0  0  0  0  0  0  0  0  0  0  0
   -1.3012    2.2969   -2.2337 H   0  0  0  0  0  0  0  0  0  0  0  0
    0.1289    1.6164   -0.3496 H   0  0  0  0  0  0  0  0  0  0  0  0
    0.1294   -0.0559   -0.9572 H   0  0  0  0  0  0  0  0  0  0  0  0
   -2.0924    2.6106   -0.1203 H   0  0  0  0  0  0  0  0  0  0  0  0
   -2.6220    1.6769    1.2837 H   0  0  0  0  0  0  0  0  0  0  0  0
   -4.3396    2.6230   -0.3478 H   0  0  0  0  0  0  0  0  0  0  0  0
   -3.9628    1.2753   -1.4475 H   0  0  0  0  0  0  0  0  0  0  0  0
   -3.8447    0.6362    2.5417 H   0  0  0  0  0  0  0  0  0  0  0  0
   -5.2107    2.3615    3.4776 H   0  0  0  0  0  0  0  0  0  0  0  0
   -6.0238    3.6046    1.0483 H   0  0  0  0  0  0  0  0  0  0  0  0
   -7.8684    3.9862    2.0957 H   0  0  0  0  0  0  0  0  0  0  0  0
   -7.9231    1.2801    1.3367 H   0  0  0  0  0  0  0  0  0  0  0  0
   -7.6491    2.3540   -0.0512 H   0  0  0  0  0  0  0  0  0  0  0  0
   -6.2009    0.9514   -1.0832 H   0  0  0  0  0  0  0  0  0  0  0  0
   -6.4542   -5.4505    0.4498 H   0  0  0  0  0  0  0  0  0  0  0  0
   -7.7563   -5.1717   -0.7164 H   0  0  0  0  0  0  0  0  0  0  0  0
   -6.0531   -5.0875   -1.3152 H   0  0  0  0  0  0  0  0  0  0  0  0
   -4.2860   -4.4736   -0.4270 H   0  0  0  0  0  0  0  0  0  0  0  0
   -2.2188   -3.1360   -0.2157 H   0  0  0  0  0  0  0  0  0  0  0  0
   -1.0908   -1.4335   -0.2174 H   0  0  0  0  0  0  0  0  0  0  0  0
   -1.6088   -0.7613    1.3236 H   0  0  0  0  0  0  0  0  0  0  0  0
    3.1825    0.4420   -2.8018 H   0  0  0  0  0  0  0  0  0  0  0  0
    4.7470   -1.2047   -2.0103 H   0  0  0  0  0  0  0  0  0  0  0  0
  1  2  1  0
  2  3  1  0
  3  4  1  0
  4  5  1  0
  3  6  1  0
  6  7  1  0
  7  8  2  0
  8  9  1  0
  9 10  2  0
 10 11  1  0
 11 12  1  0
 12 13  1  0
 13 14  1  0
 14 15  1  0
 15 16  1  0
 16 17  1  0
 17 18  1  0
 19 18  1  6
 19 20  1  0
 20 21  2  0
 21 22  1  0
 22 23  1  0
 22 24  1  0
 24 25  1  0
 25 26  1  0
 26 27  1  0
 27 28  1  0
 28 29  1  0
 29 30  1  0
 28 31  2  0
 31 32  1  0
 32 33  2  0
 33 34  1  0
 33 35  1  0
 10 36  1  0
 36 37  2  0
 37  7  1  0
 35 16  1  0
 25 19  1  0
 34 27  2  0
 34 19  1  0
  1 38  1  0
  1 39  1  0
  1 40  1  0
  2 41  1  0
  2 42  1  0
  4 43  1  0
  4 44  1  0
  5 45  1  0
  5 46  1  0
  5 47  1  0
  6 48  1  0
  6 49  1  0
  8 50  1  0
  9 51  1  0
 12 52  1  0
 12 53  1  0
 13 54  1  0
 13 55  1  0
 14 56  1  0
 14 57  1  0
 15 58  1  0
 15 59  1  0
 17 60  1  0
 17 61  1  0
 18 62  1  0
 18 63  1  0
 20 64  1  0
 21 65  1  0
 22 66  1  6
 23 67  1  0
 24 68  1  0
 24 69  1  0
 25 70  1  6
 30 71  1  0
 30 72  1  0
 30 73  1  0
 31 74  1  0
 32 75  1  0
 35 76  1  0
 35 77  1  0
 36 78  1  0
 37 79  1  0
M  END
$$$$
