@<TRIPOS>MOLECULE
*****
 71 73 0 0 0
SMALL
GASTEIGER

@<TRIPOS>ATOM
      1 C           9.2927   -0.5165    0.6659 C.3     1  UNL1       -0.0588
      2 C           8.1675    0.0720   -0.1487 C.3     1  UNL1        0.0010
      3 C           8.1321    1.5743    0.0157 C.3     1  UNL1       -0.0588
      4 C           6.8586   -0.5644    0.2723 C.3     1  UNL1        0.1981
      5 O           5.7953   -0.0484   -0.4573 O.3     1  UNL1       -0.4774
      6 C           4.6348    0.5065    0.0065 C.ar    1  UNL1        0.1217
      7 C           4.2783    0.6652    1.3103 C.ar    1  UNL1       -0.0196
      8 C           3.0818    1.2386    1.6654 C.ar    1  UNL1       -0.0536
      9 C           2.1687    1.6886    0.7163 C.ar    1  UNL1       -0.0301
     10 C           0.9006    2.3099    1.1688 C.3     1  UNL1        0.0369
     11 N          -0.0737    1.2707    1.3811 N.am    1  UNL1       -0.3097
     12 C          -0.7954    0.5898    0.3731 C.2     1  UNL1        0.2338
     13 O          -0.5982    0.8899   -0.8251 O.2     1  UNL1       -0.2738
     14 C          -1.7909   -0.4846    0.7290 C.3     1  UNL1        0.1022
     15 C          -1.0975   -1.6406    1.3728 C.3     1  UNL1       -0.0243
     16 C          -0.5177   -2.3818    0.1949 C.3     1  UNL1       -0.0350
     17 C          -1.5843   -2.2241   -0.8368 C.3     1  UNL1        0.0155
     18 N          -2.3304   -1.0246   -0.4798 N.am    1  UNL1       -0.2897
     19 C          -3.4129   -0.5035   -1.2401 C.2     1  UNL1        0.2216
     20 O          -3.7787   -1.0798   -2.2929 O.2     1  UNL1       -0.2754
     21 C          -4.1360    0.7176   -0.8255 C.3     1  UNL1        0.0673
     22 C          -5.2738    1.0933   -1.7159 C.3     1  UNL1       -0.0117
     23 N          -4.8558    1.3168   -3.0731 N.4     1  UNL1        0.2213
     24 C          -6.3888    0.0880   -1.6873 C.3     1  UNL1        0.0215
     25 C          -6.9787   -0.0945   -0.3449 C.ar    1  UNL1        0.0341
     26 C          -7.8099    0.8714    0.1357 C.ar    1  UNL1        0.1675
     27 F          -8.0857    1.9781   -0.5987 F       1  UNL1       -0.2020
     28 C          -8.3560    0.6782    1.3921 C.ar    1  UNL1        0.1967
     29 F          -9.1862    1.6165    1.9032 F       1  UNL1       -0.1993
     30 C          -8.0866   -0.4395    2.1504 C.ar    1  UNL1        0.1991
     31 F          -8.6366   -0.6170    3.3944 F       1  UNL1       -0.1993
     32 C          -7.2473   -1.3890    1.6354 C.ar    1  UNL1        0.1967
     33 F          -6.9564   -2.5038    2.3475 F       1  UNL1       -0.1993
     34 C          -6.6800   -1.2233    0.3700 C.ar    1  UNL1        0.1675
     35 F          -5.8579   -2.1917   -0.0993 F       1  UNL1       -0.2020
     36 C           2.5342    1.5259   -0.5937 C.ar    1  UNL1       -0.0536
     37 C           3.7318    0.9520   -0.9643 C.ar    1  UNL1       -0.0196
     38 C           6.9818   -2.0157   -0.0484 C.2     1  UNL1        0.3462
     39 O           7.8907   -2.6701    0.5105 O.2     1  UNL1       -0.2468
     40 O           6.1228   -2.6363   -0.9369 O.3     1  UNL1       -0.4780
     41 H           8.9490   -0.8366    1.6684 H       1  UNL1        0.0234
     42 H           9.7802   -1.3510    0.1038 H       1  UNL1        0.0234
     43 H          10.0817    0.2614    0.8333 H       1  UNL1        0.0234
     44 H           8.3250   -0.1951   -1.2298 H       1  UNL1        0.0337
     45 H           9.1804    1.9367   -0.0693 H       1  UNL1        0.0234
     46 H           7.7299    1.8247    1.0088 H       1  UNL1        0.0234
     47 H           7.5592    2.0666   -0.8037 H       1  UNL1        0.0234
     48 H           6.7147   -0.4872    1.3670 H       1  UNL1        0.0854
     49 H           4.9849    0.3169    2.0588 H       1  UNL1        0.0654
     50 H           2.8212    1.3531    2.7219 H       1  UNL1        0.0622
     51 H           1.0635    2.8811    2.1059 H       1  UNL1        0.0512
     52 H           0.5183    3.0088    0.3736 H       1  UNL1        0.0512
     53 H          -0.2815    0.9760    2.3784 H       1  UNL1        0.1491
     54 H          -2.5843   -0.0393    1.3639 H       1  UNL1        0.0597
     55 H          -1.8245   -2.2910    1.8928 H       1  UNL1        0.0288
     56 H          -0.2521   -1.3279    2.0467 H       1  UNL1        0.0288
     57 H           0.4208   -1.9267   -0.1582 H       1  UNL1        0.0281
     58 H          -0.4047   -3.4584    0.4756 H       1  UNL1        0.0281
     59 H          -2.3075   -3.0492   -0.8489 H       1  UNL1        0.0465
     60 H          -1.1684   -2.0447   -1.8523 H       1  UNL1        0.0465
     61 H          -4.5381    0.5134    0.2128 H       1  UNL1        0.0414
     62 H          -3.4229    1.5664   -0.7022 H       1  UNL1        0.0414
     63 H          -5.6561    2.0893   -1.2885 H       1  UNL1        0.0858
     64 H          -4.9752    2.3197   -3.3340 H       1  UNL1        0.1997
     65 H          -3.8737    1.0429   -3.2693 H       1  UNL1        0.1997
     66 H          -5.4460    0.7852   -3.7789 H       1  UNL1        0.1997
     67 H          -7.1942    0.4523   -2.3852 H       1  UNL1        0.0370
     68 H          -6.0254   -0.8598   -2.1196 H       1  UNL1        0.0370
     69 H           1.8579    1.8688   -1.3686 H       1  UNL1        0.0622
     70 H           3.9482    0.8580   -2.0237 H       1  UNL1        0.0654
     71 H           5.9637   -3.6484   -0.8360 H       1  UNL1        0.2952
@<TRIPOS>UNITY_ATOM_ATTR
23 1
charge 1
@<TRIPOS>BOND
     1     1     2    1
     2     2     3    1
     3     2     4    1
     4     4     5    1
     5     5     6    1
     6     6     7   ar
     7     7     8   ar
     8     8     9   ar
     9     9    10    1
    10    10    11    1
    11    11    12   am
    12    12    13    2
    13    12    14    1
    14    14    15    1
    15    15    16    1
    16    16    17    1
    17    17    18    1
    18    18    19   am
    19    19    20    2
    20    19    21    1
    21    21    22    1
    22    22    23    1
    23    22    24    1
    24    24    25    1
    25    25    26   ar
    26    26    27    1
    27    26    28   ar
    28    28    29    1
    29    28    30   ar
    30    30    31    1
    31    30    32   ar
    32    32    33    1
    33    32    34   ar
    34    34    35    1
    35     9    36   ar
    36    36    37   ar
    37     4    38    1
    38    38    39    2
    39    38    40    1
    40    37     6   ar
    41    18    14    1
    42    34    25   ar
    43     1    41    1
    44     1    42    1
    45     1    43    1
    46     2    44    1
    47     3    45    1
    48     3    46    1
    49     3    47    1
    50     4    48    1
    51     7    49    1
    52     8    50    1
    53    10    51    1
    54    10    52    1
    55    11    53    1
    56    14    54    1
    57    15    55    1
    58    15    56    1
    59    16    57    1
    60    16    58    1
    61    17    59    1
    62    17    60    1
    63    21    61    1
    64    21    62    1
    65    22    63    1
    66    23    64    1
    67    23    65    1
    68    23    66    1
    69    24    67    1
    70    24    68    1
    71    36    69    1
    72    37    70    1
    73    40    71    1
