
     RDKit          3D

 71 73  0  0  0  0  0  0  0  0999 V2000
    9.2927   -0.5165    0.6659 C   0  0  0  0  0  0  0  0  0  0  0  0
    8.1675    0.0720   -0.1487 C   0  0  0  0  0  0  0  0  0  0  0  0
    8.1321    1.5743    0.0157 C   0  0  0  0  0  0  0  0  0  0  0  0
    6.8586   -0.5644    0.2723 C   0  0  1  0  0  0  0  0  0  0  0  0
    5.7953   -0.0484   -0.4573 O   0  0  0  0  0  0  0  0  0  0  0  0
    4.6348    0.5065    0.0065 C   0  0  0  0  0  0  0  0  0  0  0  0
    4.2783    0.6652    1.3103 C   0  0  0  0  0  0  0  0  0  0  0  0
    3.0818    1.2386    1.6654 C   0  0  0  0  0  0  0  0  0  0  0  0
    2.1687    1.6886    0.7163 C   0  0  0  0  0  0  0  0  0  0  0  0
    0.9006    2.3099    1.1688 C   0  0  0  0  0  0  0  0  0  0  0  0
   -0.0737    1.2707    1.3811 N   0  0  0  0  0  0  0  0  0  0  0  0
   -0.7954    0.5898    0.3731 C   0  0  0  0  0  0  0  0  0  0  0  0
   -0.5982    0.8899   -0.8251 O   0  0  0  0  0  0  0  0  0  0  0  0
   -1.7909   -0.4846    0.7290 C   0  0  2  0  0  0  0  0  0  0  0  0
   -1.0975   -1.6406    1.3728 C   0  0  0  0  0  0  0  0  0  0  0  0
   -0.5177   -2.3818    0.1949 C   0  0  0  0  0  0  0  0  0  0  0  0
   -1.5843   -2.2241   -0.8368 C   0  0  0  0  0  0  0  0  0  0  0  0
   -2.3304   -1.0246   -0.4798 N   0  0  0  0  0  0  0  0  0  0  0  0
   -3.4129   -0.5035   -1.2401 C   0  0  0  0  0  0  0  0  0  0  0  0
   -3.7787   -1.0798   -2.2929 O   0  0  0  0  0  0  0  0  0  0  0  0
   -4.1360    0.7176   -0.8255 C   0  0  0  0  0  0  0  0  0  0  0  0
   -5.2738    1.0933   -1.7159 C   0  0  0  0  0  0  0  0  0  0  0  0
   -4.8558    1.3168   -3.0731 N   0  0  0  0  0  4  0  0  0  0  0  0
   -6.3888    0.0880   -1.6873 C   0  0  0  0  0  0  0  0  0  0  0  0
   -6.9787   -0.0945   -0.3449 C   0  0  0  0  0  0  0  0  0  0  0  0
   -7.8099    0.8714    0.1357 C   0  0  0  0  0  0  0  0  0  0  0  0
   -8.0857    1.9781   -0.5987 F   0  0  0  0  0  0  0  0  0  0  0  0
   -8.3560    0.6782    1.3921 C   0  0  0  0  0  0  0  0  0  0  0  0
   -9.1862    1.6165    1.9032 F   0  0  0  0  0  0  0  0  0  0  0  0
   -8.0866   -0.4395    2.1504 C   0  0  0  0  0  0  0  0  0  0  0  0
   -8.6366   -0.6170    3.3944 F   0  0  0  0  0  0  0  0  0  0  0  0
   -7.2473   -1.3890    1.6354 C   0  0  0  0  0  0  0  0  0  0  0  0
   -6.9564   -2.5038    2.3475 F   0  0  0  0  0  0  0  0  0  0  0  0
   -6.6800   -1.2233    0.3700 C   0  0  0  0  0  0  0  0  0  0  0  0
   -5.8579   -2.1917   -0.0993 F   0  0  0  0  0  0  0  0  0  0  0  0
    2.5342    1.5259   -0.5937 C   0  0  0  0  0  0  0  0  0  0  0  0
    3.7318    0.9520   -0.9643 C   0  0  0  0  0  0  0  0  0  0  0  0
    6.9818   -2.0157   -0.0484 C   0  0  0  0  0  0  0  0  0  0  0  0
    7.8907   -2.6701    0.5105 O   0  0  0  0  0  0  0  0  0  0  0  0
    6.1228   -2.6363   -0.9369 O   0  0  0  0  0  0  0  0  0  0  0  0
    8.9490   -0.8366    1.6684 H   0  0  0  0  0  0  0  0  0  0  0  0
    9.7802   -1.3510    0.1038 H   0  0  0  0  0  0  0  0  0  0  0  0
   10.0817    0.2614    0.8333 H   0  0  0  0  0  0  0  0  0  0  0  0
    8.3250   -0.1951   -1.2298 H   0  0  0  0  0  0  0  0  0  0  0  0
    9.1804    1.9367   -0.0693 H   0  0  0  0  0  0  0  0  0  0  0  0
    7.7299    1.8247    1.0088 H   0  0  0  0  0  0  0  0  0  0  0  0
    7.5592    2.0666   -0.8037 H   0  0  0  0  0  0  0  0  0  0  0  0
    6.7147   -0.4872    1.3670 H   0  0  0  0  0  0  0  0  0  0  0  0
    4.9849    0.3169    2.0588 H   0  0  0  0  0  0  0  0  0  0  0  0
    2.8212    1.3531    2.7219 H   0  0  0  0  0  0  0  0  0  0  0  0
    1.0635    2.8811    2.1059 H   0  0  0  0  0  0  0  0  0  0  0  0
    0.5183    3.0088    0.3736 H   0  0  0  0  0  0  0  0  0  0  0  0
   -0.2815    0.9760    2.3784 H   0  0  0  0  0  0  0  0  0  0  0  0
   -2.5843   -0.0393    1.3639 H   0  0  0  0  0  0  0  0  0  0  0  0
   -1.8245   -2.2910    1.8928 H   0  0  0  0  0  0  0  0  0  0  0  0
   -0.2521   -1.3279    2.0467 H   0  0  0  0  0  0  0  0  0  0  0  0
    0.4208   -1.9267   -0.1582 H   0  0  0  0  0  0  0  0  0  0  0  0
   -0.4047   -3.4584    0.4756 H   0  0  0  0  0  0  0  0  0  0  0  0
   -2.3075   -3.0492   -0.8489 H   0  0  0  0  0  0  0  0  0  0  0  0
   -1.1684   -2.0447   -1.8523 H   0  0  0  0  0  0  0  0  0  0  0  0
   -4.5381    0.5134    0.2128 H   0  0  0  0  0  0  0  0  0  0  0  0
   -3.4229    1.5664   -0.7022 H   0  0  0  0  0  0  0  0  0  0  0  0
   -5.6561    2.0893   -1.2885 H   0  0  0  0  0  0  0  0  0  0  0  0
   -4.9752    2.3197   -3.3340 H   0  0  0  0  0  0  0  0  0  0  0  0
   -3.8737    1.0429   -3.2693 H   0  0  0  0  0  0  0  0  0  0  0  0
   -5.4460    0.7852   -3.7789 H   0  0  0  0  0  0  0  0  0  0  0  0
   -7.1942    0.4523   -2.3852 H   0  0  0  0  0  0  0  0  0  0  0  0
   -6.0254   -0.8598   -2.1196 H   0  0  0  0  0  0  0  0  0  0  0  0
    1.8579    1.8688   -1.3686 H   0  0  0  0  0  0  0  0  0  0  0  0
    3.9482    0.8580   -2.0237 H   0  0  0  0  0  0  0  0  0  0  0  0
    5.9637   -3.6484   -0.8360 H   0  0  0  0  0  0  0  0  0  0  0  0
  1  2  1  0
  2  3  1  0
  2  4  1  0
  4  5  1  0
  5  6  1  0
  6  7  2  0
  7  8  1  0
  8  9  2  0
  9 10  1  0
 10 11  1  0
 11 12  1  0
 12 13  2  0
 12 14  1  0
 14 15  1  0
 15 16  1  0
 16 17  1  0
 17 18  1  0
 18 19  1  0
 19 20  2  0
 19 21  1  0
 21 22  1  0
 22 23  1  0
 22 24  1  0
 24 25  1  0
 25 26  2  0
 26 27  1  0
 26 28  1  0
 28 29  1  0
 28 30  2  0
 30 31  1  0
 30 32  1  0
 32 33  1  0
 32 34  2  0
 34 35  1  0
  9 36  1  0
 36 37  2  0
  4 38  1  0
 38 39  2  0
 38 40  1  0
 37  6  1  0
 18 14  1  0
 34 25  1  0
  1 41  1  0
  1 42  1  0
  1 43  1  0
  2 44  1  0
  3 45  1  0
  3 46  1  0
  3 47  1  0
  4 48  1  1
  7 49  1  0
  8 50  1  0
 10 51  1  0
 10 52  1  0
 11 53  1  0
 14 54  1  1
 15 55  1  0
 15 56  1  0
 16 57  1  0
 16 58  1  0
 17 59  1  0
 17 60  1  0
 21 61  1  0
 21 62  1  0
 22 63  1  0
 23 64  1  0
 23 65  1  0
 23 66  1  0
 24 67  1  0
 24 68  1  0
 36 69  1  0
 37 70  1  0
 40 71  1  0
M  CHG  1  23   1
M  END
$$$$
