
     RDKit          3D

 43 45  0  0  0  0  0  0  0  0999 V2000
   -1.3479   -2.8805    0.2285 C   0  0  0  0  0  0  0  0  0  0  0  0
   -1.9336   -1.5398    0.0270 C   0  0  0  0  0  0  0  0  0  0  0  0
   -3.1741   -1.4325   -0.4066 C   0  0  0  0  0  0  0  0  0  0  0  0
   -3.8493   -0.1446   -0.6394 C   0  0  0  0  0  0  0  0  0  0  0  0
   -5.0394   -0.0945    0.3217 C   0  0  0  0  0  0  0  0  0  0  0  0
   -4.3541   -0.1435   -2.0698 C   0  0  0  0  0  0  0  0  0  0  0  0
   -3.0227    0.9941   -0.3527 N   0  0  0  0  0  0  0  0  0  0  0  0
   -1.7055    0.8935    0.1081 C   0  0  0  0  0  0  0  0  0  0  0  0
   -0.9309    2.0282    0.3798 C   0  0  0  0  0  0  0  0  0  0  0  0
   -1.6374    3.6003    0.1335 Cl  0  0  0  0  0  0  0  0  0  0  0  0
    0.3696    1.9222    0.8346 C   0  0  0  0  0  0  0  0  0  0  0  0
    0.9524    0.6920    1.0374 C   0  0  0  0  0  0  0  0  0  0  0  0
    2.3401    0.5022    1.5123 C   0  0  0  0  0  0  0  0  0  0  0  0
    3.3246    0.2272    0.4703 C   0  0  0  0  0  0  0  0  0  0  0  0
    3.7886   -1.0644    0.2719 C   0  0  0  0  0  0  0  0  0  0  0  0
    4.6895   -1.2545   -0.7054 N   0  0  0  0  0  0  0  0  0  0  0  0
    5.1547   -0.2643   -1.4883 C   0  0  0  0  0  0  0  0  0  0  0  0
    6.1024   -0.5811   -2.4883 N   0  0  0  0  0  0  0  0  0  0  0  0
    4.7101    0.9694   -1.2970 N   0  0  0  0  0  0  0  0  0  0  0  0
    3.7950    1.2431   -0.3248 C   0  0  0  0  0  0  0  0  0  0  0  0
    3.4051    2.6043   -0.2205 N   0  0  0  0  0  0  0  0  0  0  0  0
    0.1497   -0.4141    0.7562 C   0  0  0  0  0  0  0  0  0  0  0  0
   -1.1363   -0.3522    0.3065 C   0  0  0  0  0  0  0  0  0  0  0  0
   -0.8022   -2.9213    1.2106 H   0  0  0  0  0  0  0  0  0  0  0  0
   -0.6395   -3.1518   -0.6066 H   0  0  0  0  0  0  0  0  0  0  0  0
   -2.0904   -3.6842    0.2601 H   0  0  0  0  0  0  0  0  0  0  0  0
   -3.7642   -2.3286   -0.6152 H   0  0  0  0  0  0  0  0  0  0  0  0
   -4.6320    0.1070    1.3334 H   0  0  0  0  0  0  0  0  0  0  0  0
   -5.7287    0.6971   -0.0352 H   0  0  0  0  0  0  0  0  0  0  0  0
   -5.5491   -1.0881    0.3349 H   0  0  0  0  0  0  0  0  0  0  0  0
   -3.5784    0.2573   -2.7427 H   0  0  0  0  0  0  0  0  0  0  0  0
   -5.3113    0.4079   -2.1609 H   0  0  0  0  0  0  0  0  0  0  0  0
   -4.5499   -1.1933   -2.3926 H   0  0  0  0  0  0  0  0  0  0  0  0
   -3.4283    1.9362   -0.4967 H   0  0  0  0  0  0  0  0  0  0  0  0
    0.9679    2.8161    1.0515 H   0  0  0  0  0  0  0  0  0  0  0  0
    2.6117    1.4126    2.1294 H   0  0  0  0  0  0  0  0  0  0  0  0
    2.4036   -0.3324    2.2713 H   0  0  0  0  0  0  0  0  0  0  0  0
    3.4381   -1.8984    0.8843 H   0  0  0  0  0  0  0  0  0  0  0  0
    5.7727   -0.6890   -3.4657 H   0  0  0  0  0  0  0  0  0  0  0  0
    7.1084   -0.7080   -2.2784 H   0  0  0  0  0  0  0  0  0  0  0  0
    3.4917    3.0835    0.7096 H   0  0  0  0  0  0  0  0  0  0  0  0
    3.0337    3.1505   -1.0359 H   0  0  0  0  0  0  0  0  0  0  0  0
    0.5958   -1.3833    0.9117 H   0  0  0  0  0  0  0  0  0  0  0  0
  1  2  1  0
  2  3  2  0
  3  4  1  0
  4  5  1  0
  4  6  1  0
  4  7  1  0
  7  8  1  0
  8  9  2  0
  9 10  1  0
  9 11  1  0
 11 12  2  0
 12 13  1  0
 13 14  1  0
 14 15  2  0
 15 16  1  0
 16 17  2  0
 17 18  1  0
 17 19  1  0
 19 20  2  0
 20 21  1  0
 12 22  1  0
 22 23  2  0
 23  2  1  0
 23  8  1  0
 20 14  1  0
  1 24  1  0
  1 25  1  0
  1 26  1  0
  3 27  1  0
  5 28  1  0
  5 29  1  0
  5 30  1  0
  6 31  1  0
  6 32  1  0
  6 33  1  0
  7 34  1  0
 11 35  1  0
 13 36  1  0
 13 37  1  0
 15 38  1  0
 18 39  1  0
 18 40  1  0
 21 41  1  0
 21 42  1  0
 22 43  1  0
M  END
$$$$
