@<TRIPOS>MOLECULE
*****
 43 45 0 0 0
SMALL
GASTEIGER

@<TRIPOS>ATOM
      1 C          -1.3479   -2.8805    0.2285 C.3     1  UNL1       -0.0393
      2 C          -1.9336   -1.5398    0.0270 C.2     1  UNL1       -0.0434
      3 C          -3.1741   -1.4325   -0.4066 C.2     1  UNL1       -0.0580
      4 C          -3.8493   -0.1446   -0.6394 C.3     1  UNL1        0.0454
      5 C          -5.0394   -0.0945    0.3217 C.3     1  UNL1       -0.0404
      6 C          -4.3541   -0.1435   -2.0698 C.3     1  UNL1       -0.0404
      7 N          -3.0227    0.9941   -0.3527 N.pl3   1  UNL1       -0.3338
      8 C          -1.7055    0.8935    0.1081 C.ar    1  UNL1        0.0538
      9 C          -0.9309    2.0282    0.3798 C.ar    1  UNL1        0.0626
     10 CL         -1.6374    3.6003    0.1335 Cl      1  UNL1       -0.0816
     11 C           0.3696    1.9222    0.8346 C.ar    1  UNL1       -0.0381
     12 C           0.9524    0.6920    1.0374 C.ar    1  UNL1       -0.0408
     13 C           2.3401    0.5022    1.5123 C.3     1  UNL1        0.0023
     14 C           3.3246    0.2272    0.4703 C.ar    1  UNL1        0.0146
     15 C           3.7886   -1.0644    0.2719 C.ar    1  UNL1        0.0379
     16 N           4.6895   -1.2545   -0.7054 N.ar    1  UNL1       -0.2227
     17 C           5.1547   -0.2643   -1.4883 C.ar    1  UNL1        0.2142
     18 N           6.1024   -0.5811   -2.4883 N.pl3   1  UNL1       -0.3274
     19 N           4.7101    0.9694   -1.2970 N.ar    1  UNL1       -0.1999
     20 C           3.7950    1.2431   -0.3248 C.ar    1  UNL1        0.1247
     21 N           3.4051    2.6043   -0.2205 N.pl3   1  UNL1       -0.3428
     22 C           0.1497   -0.4141    0.7562 C.ar    1  UNL1       -0.0490
     23 C          -1.1363   -0.3522    0.3065 C.ar    1  UNL1        0.0002
     24 H          -0.8022   -2.9213    1.2106 H       1  UNL1        0.0278
     25 H          -0.6395   -3.1518   -0.6066 H       1  UNL1        0.0278
     26 H          -2.0904   -3.6842    0.2601 H       1  UNL1        0.0278
     27 H          -3.7642   -2.3286   -0.6152 H       1  UNL1        0.0596
     28 H          -4.6320    0.1070    1.3334 H       1  UNL1        0.0253
     29 H          -5.7287    0.6971   -0.0352 H       1  UNL1        0.0253
     30 H          -5.5491   -1.0881    0.3349 H       1  UNL1        0.0253
     31 H          -3.5784    0.2573   -2.7427 H       1  UNL1        0.0253
     32 H          -5.3113    0.4079   -2.1609 H       1  UNL1        0.0253
     33 H          -4.5499   -1.1933   -2.3926 H       1  UNL1        0.0253
     34 H          -3.4283    1.9362   -0.4967 H       1  UNL1        0.1469
     35 H           0.9679    2.8161    1.0515 H       1  UNL1        0.0635
     36 H           2.6117    1.4126    2.1294 H       1  UNL1        0.0363
     37 H           2.4036   -0.3324    2.2713 H       1  UNL1        0.0363
     38 H           3.4381   -1.8984    0.8843 H       1  UNL1        0.0834
     39 H           5.7727   -0.6890   -3.4657 H       1  UNL1        0.1452
     40 H           7.1084   -0.7080   -2.2784 H       1  UNL1        0.1452
     41 H           3.4917    3.0835    0.7096 H       1  UNL1        0.1437
     42 H           3.0337    3.1505   -1.0359 H       1  UNL1        0.1437
     43 H           0.5958   -1.3833    0.9117 H       1  UNL1        0.0627
@<TRIPOS>BOND
     1     1     2    1
     2     2     3    2
     3     3     4    1
     4     4     5    1
     5     4     6    1
     6     4     7    1
     7     7     8    1
     8     8     9   ar
     9     9    10    1
    10     9    11   ar
    11    11    12   ar
    12    12    13    1
    13    13    14    1
    14    14    15   ar
    15    15    16   ar
    16    16    17   ar
    17    17    18    1
    18    17    19   ar
    19    19    20   ar
    20    20    21    1
    21    12    22   ar
    22    22    23   ar
    23    23     2    1
    24    23     8   ar
    25    20    14   ar
    26     1    24    1
    27     1    25    1
    28     1    26    1
    29     3    27    1
    30     5    28    1
    31     5    29    1
    32     5    30    1
    33     6    31    1
    34     6    32    1
    35     6    33    1
    36     7    34    1
    37    11    35    1
    38    13    36    1
    39    13    37    1
    40    15    38    1
    41    18    39    1
    42    18    40    1
    43    21    41    1
    44    21    42    1
    45    22    43    1
