@<TRIPOS>MOLECULE
*****
 50 53 0 0 0
SMALL
GASTEIGER

@<TRIPOS>ATOM
      1 C           8.9868   -0.5158   -0.8436 C.3     1  UNL1        0.0788
      2 O           8.0719   -0.3270    0.2027 O.3     1  UNL1       -0.4951
      3 C           6.7009   -0.3555    0.0265 C.ar    1  UNL1        0.1202
      4 C           5.9275   -0.1527    1.1642 C.ar    1  UNL1       -0.0182
      5 C           4.5661   -0.1752    1.0213 C.ar    1  UNL1       -0.0370
      6 C           3.9435   -0.3910   -0.2049 C.ar    1  UNL1        0.0337
      7 N           2.5153   -0.3992   -0.2527 N.am    1  UNL1       -0.2840
      8 C           1.7937    0.8128   -0.5048 C.2     1  UNL1        0.2373
      9 O           2.4769    1.8479   -0.6907 O.2     1  UNL1       -0.2734
     10 C           0.3055    0.8195   -0.5336 C.3     1  UNL1        0.0970
     11 C          -0.2463    1.7820    0.4911 C.3     1  UNL1       -0.0381
     12 N          -0.2460   -0.4886   -0.3414 N.pl3   1  UNL1       -0.3038
     13 C          -1.3273   -0.6631    0.5528 C.ar    1  UNL1        0.1981
     14 N          -2.6120   -0.3849    0.2788 N.ar    1  UNL1       -0.1960
     15 C          -3.6213   -0.5709    1.1604 C.ar    1  UNL1        0.1719
     16 C          -3.3307   -1.0755    2.4181 C.ar    1  UNL1        0.1032
     17 C          -4.5288   -1.1563    3.0957 C.ar    1  UNL1        0.0643
     18 N          -5.4839   -0.7163    2.2695 N.ar    1  UNL1       -0.1720
     19 N          -4.9412   -0.3594    1.0941 N.ar    1  UNL1       -0.2123
     20 C          -5.6386    0.1638   -0.0308 C.ar    1  UNL1        0.0860
     21 C          -6.4436   -0.6043   -0.8441 C.ar    1  UNL1       -0.0348
     22 C          -7.1094   -0.0469   -1.9246 C.ar    1  UNL1       -0.0597
     23 C          -6.9960    1.2967   -2.2326 C.ar    1  UNL1       -0.0603
     24 C          -6.1910    2.0643   -1.4192 C.ar    1  UNL1       -0.0413
     25 C          -5.5269    1.5052   -0.3405 C.ar    1  UNL1        0.0664
     26 CL         -4.4951    2.4921    0.6968 Cl      1  UNL1       -0.0813
     27 C          -2.0158   -1.3686    2.7214 C.ar    1  UNL1        0.2635
     28 O          -1.7645   -1.8255    3.8632 O.2     1  UNL1       -0.2670
     29 N          -1.0643   -1.1609    1.8038 N.ar    1  UNL1       -0.2945
     30 C           4.7249   -0.5885   -1.3095 C.ar    1  UNL1       -0.0370
     31 C           6.0927   -0.5671   -1.1742 C.ar    1  UNL1       -0.0182
     32 H           9.9735   -0.1205   -0.4623 H       1  UNL1        0.0660
     33 H           9.0684   -1.5813   -1.1386 H       1  UNL1        0.0660
     34 H           8.7677    0.0863   -1.7355 H       1  UNL1        0.0660
     35 H           6.3324    0.0199    2.1432 H       1  UNL1        0.0655
     36 H           3.9350   -0.0227    1.8751 H       1  UNL1        0.0637
     37 H           1.9913   -1.2887   -0.1031 H       1  UNL1        0.1549
     38 H           0.0060    1.2354   -1.5296 H       1  UNL1        0.0592
     39 H          -0.0763    1.3617    1.4890 H       1  UNL1        0.0252
     40 H          -1.3454    1.8063    0.3269 H       1  UNL1        0.0252
     41 H           0.2135    2.7789    0.4484 H       1  UNL1        0.0252
     42 H           0.1304   -1.2990   -0.8502 H       1  UNL1        0.1496
     43 H          -4.6118   -1.5208    4.1088 H       1  UNL1        0.0856
     44 H          -6.5270   -1.6558   -0.5975 H       1  UNL1        0.0639
     45 H          -7.7392   -0.6552   -2.5544 H       1  UNL1        0.0618
     46 H          -7.5341    1.7027   -3.0872 H       1  UNL1        0.0618
     47 H          -6.0863    3.1149   -1.6380 H       1  UNL1        0.0633
     48 H          -0.0663   -1.3747    2.0124 H       1  UNL1        0.1716
     49 H           4.3006   -0.7571   -2.2726 H       1  UNL1        0.0637
     50 H           6.7445   -0.7214   -2.0428 H       1  UNL1        0.0655
@<TRIPOS>BOND
     1     1     2    1
     2     2     3    1
     3     3     4   ar
     4     4     5   ar
     5     5     6   ar
     6     6     7    1
     7     7     8   am
     8     8     9    2
     9     8    10    1
    10    10    11    1
    11    10    12    1
    12    12    13    1
    13    13    14   ar
    14    14    15   ar
    15    15    16   ar
    16    16    17   ar
    17    17    18   ar
    18    18    19   ar
    19    19    20    1
    20    20    21   ar
    21    21    22   ar
    22    22    23   ar
    23    23    24   ar
    24    24    25   ar
    25    25    26    1
    26    16    27   ar
    27    27    28    2
    28    27    29   ar
    29     6    30   ar
    30    30    31   ar
    31    31     3   ar
    32    29    13   ar
    33    19    15   ar
    34    25    20   ar
    35     1    32    1
    36     1    33    1
    37     1    34    1
    38     4    35    1
    39     5    36    1
    40     7    37    1
    41    10    38    1
    42    11    39    1
    43    11    40    1
    44    11    41    1
    45    12    42    1
    46    17    43    1
    47    21    44    1
    48    22    45    1
    49    23    46    1
    50    24    47    1
    51    29    48    1
    52    30    49    1
    53    31    50    1
