@<TRIPOS>MOLECULE
*****
 65 63 0 0 0
SMALL
GASTEIGER

@<TRIPOS>ATOM
      1 N          -1.3803   -0.4531    0.2717 N.3     1  GLY1       -0.3279
      2 CA         -0.4676    0.6347    0.0796 C.3     1  GLY1        0.0164
      3 C           0.8992    0.3027    0.6552 C.3     1  GLY1        0.0565
      4 O           1.4753   -0.8064    0.0792 O.3     1  GLY1       -0.3938
      5 C           8.3243   -0.1135   -0.6768 C.3     1  UNL1       -0.0653
      6 C           7.8865   -0.9733    0.4700 C.3     1  UNL1       -0.0559
      7 C           6.7994   -0.3805    1.3107 C.3     1  UNL1       -0.0533
      8 C           5.5367   -0.1127    0.4827 C.3     1  UNL1       -0.0531
      9 C           4.4743    0.4794    1.3562 C.3     1  UNL1       -0.0530
     10 C           3.2307    0.7881    0.5641 C.3     1  UNL1       -0.0528
     11 C           2.6481   -0.4441   -0.0455 C.3     1  UNL1       -0.0496
     12 C           1.3934   -0.2139   -0.8690 C.3     1  UNL1       -0.0348
     13 C           0.3391    0.3677   -0.0091 C.2     1  UNL1       -0.0879
     14 C          -0.9215   -0.0108    0.3905 C.2     1  UNL1       -0.0879
     15 C          -1.4412   -1.2948   -0.1063 C.3     1  UNL1       -0.0348
     16 C          -2.6605   -1.1776   -0.8967 C.3     1  UNL1       -0.0496
     17 C          -3.9479   -0.6995   -0.3355 C.3     1  UNL1       -0.0528
     18 C          -4.0712    0.6313    0.2402 C.3     1  UNL1       -0.0530
     19 C          -5.3737    0.9679    0.8550 C.3     1  UNL1       -0.0526
     20 C          -6.6204    0.9047    0.1016 C.3     1  UNL1       -0.0430
     21 C          -7.1352   -0.4114   -0.2997 C.3     1  UNL1        0.0448
     22 C          -8.4422   -0.2932   -1.0543 C.2     1  UNL1        0.3047
     23 O          -8.5909   -0.3522   -2.4330 O.3     1  UNL1       -0.4806
     24 O          -9.5810   -0.1257   -0.5579 O.2     1  UNL1       -0.2510
     25 H1         -2.1151   -0.5221   -0.4752 H       1  GLY1        0.1183
     26 H2         -0.9148   -1.3735    0.4792 H       1  GLY1        0.1183
     27 HA1        -0.3987    0.9943   -0.9647 H       1  GLY1        0.0444
     28 HA2        -0.8431    1.4914    0.6849 H       1  GLY1        0.0444
     29 H1          1.5797    1.1638    0.5016 H       1  GLY1        0.0570
     30 H2          0.7858    0.1853    1.7486 H       1  GLY1        0.0570
     31 H           1.3796   -1.6173    0.6496 H       1  GLY1        0.2095
     32 H           8.9857    0.7146   -0.3144 H       1  UNL1        0.0230
     33 H           7.5299    0.3147   -1.2866 H       1  UNL1        0.0230
     34 H           8.9952   -0.7604   -1.3074 H       1  UNL1        0.0230
     35 H           7.5412   -1.9544    0.0787 H       1  UNL1        0.0263
     36 H           8.7612   -1.1277    1.1185 H       1  UNL1        0.0263
     37 H           6.5122   -1.1421    2.0592 H       1  UNL1        0.0265
     38 H           7.1123    0.5315    1.8214 H       1  UNL1        0.0265
     39 H           5.1472   -1.1022    0.1030 H       1  UNL1        0.0265
     40 H           5.7138    0.5205   -0.3833 H       1  UNL1        0.0265
     41 H           4.2404   -0.2181    2.2023 H       1  UNL1        0.0265
     42 H           4.8988    1.4337    1.7889 H       1  UNL1        0.0265
     43 H           2.4934    1.2521    1.2647 H       1  UNL1        0.0265
     44 H           3.5342    1.5439   -0.1941 H       1  UNL1        0.0265
     45 H           3.3831   -1.0275   -0.6504 H       1  UNL1        0.0268
     46 H           2.3193   -1.1377    0.7875 H       1  UNL1        0.0268
     47 H           1.6684    0.4261   -1.7408 H       1  UNL1        0.0307
     48 H           1.1401   -1.2118   -1.2943 H       1  UNL1        0.0307
     49 H           0.8534    1.3154    0.2623 H       1  UNL1        0.0569
     50 H          -1.1425    0.8398    1.0135 H       1  UNL1        0.0569
     51 H          -0.6660   -1.7833   -0.7765 H       1  UNL1        0.0307
     52 H          -1.5124   -2.0531    0.7304 H       1  UNL1        0.0307
     53 H          -2.4182   -0.4608   -1.7593 H       1  UNL1        0.0268
     54 H          -2.8953   -2.1319   -1.4865 H       1  UNL1        0.0268
     55 H          -4.4749   -1.4740    0.2487 H       1  UNL1        0.0265
     56 H          -4.6109   -0.6248   -1.3118 H       1  UNL1        0.0265
     57 H          -3.3174    0.8414    1.0614 H       1  UNL1        0.0265
     58 H          -3.8624    1.4660   -0.5182 H       1  UNL1        0.0265
     59 H          -5.2820    1.9626    1.4253 H       1  UNL1        0.0265
     60 H          -5.4472    0.2384    1.7604 H       1  UNL1        0.0265
     61 H          -7.4108    1.4285    0.7564 H       1  UNL1        0.0270
     62 H          -6.5994    1.6348   -0.7811 H       1  UNL1        0.0270
     63 H          -6.5365   -1.0787   -0.8911 H       1  UNL1        0.0377
     64 H          -7.4363   -0.9706    0.6346 H       1  UNL1        0.0377
     65 H          -9.0645    0.4323   -2.9081 H       1  UNL1        0.2951
@<TRIPOS>BOND
     1     1     2    1
     2     2     3    1
     3     3     4    1
     4     5     6    1
     5     6     7    1
     6     7     8    1
     7     8     9    1
     8     9    10    1
     9    10    11    1
    10    11    12    1
    11    12    13    1
    12    13    14    2
    13    14    15    1
    14    15    16    1
    15    16    17    1
    16    17    18    1
    17    18    19    1
    18    19    20    1
    19    20    21    1
    20    21    22    1
    21    22    23    1
    22    22    24    2
    23     1    25    1
    24     1    26    1
    25     2    27    1
    26     2    28    1
    27     3    29    1
    28     3    30    1
    29     4    31    1
    30     5    32    1
    31     5    33    1
    32     5    34    1
    33     6    35    1
    34     6    36    1
    35     7    37    1
    36     7    38    1
    37     8    39    1
    38     8    40    1
    39     9    41    1
    40     9    42    1
    41    10    43    1
    42    10    44    1
    43    11    45    1
    44    11    46    1
    45    12    47    1
    46    12    48    1
    47    13    49    1
    48    14    50    1
    49    15    51    1
    50    15    52    1
    51    16    53    1
    52    16    54    1
    53    17    55    1
    54    17    56    1
    55    18    57    1
    56    18    58    1
    57    19    59    1
    58    19    60    1
    59    20    61    1
    60    20    62    1
    61    21    63    1
    62    21    64    1
    63    23    65    1
