
     RDKit          3D

 55 58  0  0  0  0  0  0  0  0999 V2000
   -7.0937   -2.0678   -2.9881 C   0  0  0  0  0  0  0  0  0  0  0  0
   -6.2594   -1.1859   -2.1695 N   0  0  0  0  0  0  0  0  0  0  0  0
   -6.9206   -0.1747   -1.3357 C   0  0  0  0  0  0  0  0  0  0  0  0
   -4.8475   -1.2586   -2.1942 C   0  0  0  0  0  0  0  0  0  0  0  0
   -4.3114   -1.9942   -3.0758 O   0  0  0  0  0  0  0  0  0  0  0  0
   -4.0684   -0.5301   -1.2310 C   0  0  2  0  0  0  0  0  0  0  0  0
   -4.1097    0.9773   -1.1934 C   0  0  0  0  0  0  0  0  0  0  0  0
   -2.8218    0.1995   -1.3963 C   0  0  1  0  0  0  0  0  0  0  0  0
   -1.8314   -0.0263   -0.2578 C   0  0  1  0  0  0  0  0  0  0  0  0
   -1.5820   -1.4948   -0.1705 C   0  0  0  0  0  0  0  0  0  0  0  0
   -0.6339    0.7819   -0.4294 C   0  0  0  0  0  0  0  0  0  0  0  0
    0.6391    0.3196   -0.2827 C   0  0  0  0  0  0  0  0  0  0  0  0
    1.7242    1.1948   -0.3311 C   0  0  0  0  0  0  0  0  0  0  0  0
    3.0550    0.7291    0.0665 C   0  0  0  0  0  0  0  0  0  0  0  0
    4.2067    0.9376   -0.6170 C   0  0  0  0  0  0  0  0  0  0  0  0
    4.2146    1.5959   -1.7549 F   0  0  0  0  0  0  0  0  0  0  0  0
    5.3762    0.5627    0.0819 C   0  0  0  0  0  0  0  0  0  0  0  0
    6.3846    0.2242    0.7055 C   0  0  0  0  0  0  0  0  0  0  0  0
    7.5868   -0.2060    1.4605 C   0  0  0  0  0  0  0  0  0  0  0  0
    8.4318   -1.1132    1.1053 C   0  0  0  0  0  0  0  0  0  0  0  0
    9.4451   -1.6082    1.9778 C   0  0  0  0  0  0  0  0  0  0  0  0
    9.4434   -1.0389    3.2411 C   0  0  0  0  0  0  0  0  0  0  0  0
    8.5701   -0.0865    3.6481 C   0  0  0  0  0  0  0  0  0  0  0  0
    7.6030    0.3769    2.7776 C   0  0  0  0  0  0  0  0  0  0  0  0
    1.6091    2.5428   -0.5283 C   0  0  0  0  0  0  0  0  0  0  0  0
    0.2831    3.0235   -0.6850 C   0  0  0  0  0  0  0  0  0  0  0  0
   -0.7698    2.1744   -0.6362 C   0  0  0  0  0  0  0  0  0  0  0  0
   -2.0260    2.6411   -0.7910 F   0  0  0  0  0  0  0  0  0  0  0  0
   -2.4083    0.4972    1.0223 N   0  0  0  0  0  0  0  0  0  0  0  0
   -3.4982    0.0147    1.4970 C   0  0  0  0  0  0  0  0  0  0  0  0
   -4.0466    0.4798    2.6834 N   0  0  0  0  0  0  0  0  0  0  0  0
   -4.2738   -1.2329    0.5028 S   0  0  0  0  0  0  0  0  0  0  0  0
   -6.6764   -2.1679   -3.9957 H   0  0  0  0  0  0  0  0  0  0  0  0
   -7.1514   -3.0576   -2.4582 H   0  0  0  0  0  0  0  0  0  0  0  0
   -8.1206   -1.6652   -3.0571 H   0  0  0  0  0  0  0  0  0  0  0  0
   -6.4125   -0.0608   -0.3331 H   0  0  0  0  0  0  0  0  0  0  0  0
   -7.9591   -0.5334   -1.1032 H   0  0  0  0  0  0  0  0  0  0  0  0
   -7.0154    0.7776   -1.8597 H   0  0  0  0  0  0  0  0  0  0  0  0
   -4.2929    1.4716   -0.2356 H   0  0  0  0  0  0  0  0  0  0  0  0
   -4.4850    1.4443   -2.1590 H   0  0  0  0  0  0  0  0  0  0  0  0
   -2.3425    0.2768   -2.4019 H   0  0  0  0  0  0  0  0  0  0  0  0
   -2.3322   -2.0068   -0.9054 H   0  0  0  0  0  0  0  0  0  0  0  0
   -1.9114   -1.9444    0.8291 H   0  0  0  0  0  0  0  0  0  0  0  0
   -0.5670   -1.8153   -0.4382 H   0  0  0  0  0  0  0  0  0  0  0  0
    0.8896   -0.7243   -0.1234 H   0  0  0  0  0  0  0  0  0  0  0  0
    3.0714    0.1912    1.0167 H   0  0  0  0  0  0  0  0  0  0  0  0
    8.4077   -1.6296    0.1120 H   0  0  0  0  0  0  0  0  0  0  0  0
   10.1416   -2.3481    1.7022 H   0  0  0  0  0  0  0  0  0  0  0  0
   10.1780   -1.4278    3.9226 H   0  0  0  0  0  0  0  0  0  0  0  0
    8.5923    0.3180    4.6544 H   0  0  0  0  0  0  0  0  0  0  0  0
    6.9059    1.1353    3.0378 H   0  0  0  0  0  0  0  0  0  0  0  0
    2.4184    3.2262   -0.5628 H   0  0  0  0  0  0  0  0  0  0  0  0
    0.1387    4.0841   -0.8516 H   0  0  0  0  0  0  0  0  0  0  0  0
   -4.1655   -0.2249    3.5134 H   0  0  0  0  0  0  0  0  0  0  0  0
   -4.3821    1.4260    2.9154 H   0  0  0  0  0  0  0  0  0  0  0  0
  1  2  1  0
  2  3  1  0
  2  4  1  0
  4  5  2  0
  6  4  1  6
  6  7  1  0
  7  8  1  0
  8  9  1  0
  9 10  1  1
  9 11  1  0
 11 12  2  0
 12 13  1  0
 13 14  1  0
 14 15  2  0
 15 16  1  0
 15 17  1  0
 17 18  3  0
 18 19  1  0
 19 20  2  0
 20 21  1  0
 21 22  2  0
 22 23  1  0
 23 24  2  0
 13 25  2  0
 25 26  1  0
 26 27  2  0
 27 28  1  0
  9 29  1  0
 29 30  2  0
 30 31  1  0
 30 32  1  0
  8  6  1  0
 27 11  1  0
 32  6  1  0
 24 19  1  0
  1 33  1  0
  1 34  1  0
  1 35  1  0
  3 36  1  0
  3 37  1  0
  3 38  1  0
  7 39  1  0
  7 40  1  0
  8 41  1  6
 10 42  1  0
 10 43  1  0
 10 44  1  0
 12 45  1  0
 14 46  1  0
 20 47  1  0
 21 48  1  0
 22 49  1  0
 23 50  1  0
 24 51  1  0
 25 52  1  0
 26 53  1  0
 31 54  1  0
 31 55  1  0
M  END
$$$$
