@<TRIPOS>MOLECULE
*****
 55 58 0 0 0
SMALL
GASTEIGER

@<TRIPOS>ATOM
      1 C          -7.0937   -2.0678   -2.9881 C.3     1  UNL1        0.0029
      2 N          -6.2594   -1.1859   -2.1695 N.am    1  UNL1       -0.3064
      3 C          -6.9206   -0.1747   -1.3357 C.3     1  UNL1        0.0029
      4 C          -4.8475   -1.2586   -2.1942 C.2     1  UNL1        0.2319
      5 O          -4.3114   -1.9942   -3.0758 O.2     1  UNL1       -0.2741
      6 C          -4.0684   -0.5301   -1.2310 C.3     1  UNL1        0.1054
      7 C          -4.1097    0.9773   -1.1934 C.3     1  UNL1       -0.0220
      8 C          -2.8218    0.1995   -1.3963 C.3     1  UNL1        0.0134
      9 C          -1.8314   -0.0263   -0.2578 C.3     1  UNL1        0.0935
     10 C          -1.5820   -1.4948   -0.1705 C.3     1  UNL1       -0.0351
     11 C          -0.6339    0.7819   -0.4294 C.ar    1  UNL1        0.0158
     12 C           0.6391    0.3196   -0.2827 C.ar    1  UNL1       -0.0463
     13 C           1.7242    1.1948   -0.3311 C.ar    1  UNL1       -0.0212
     14 C           3.0550    0.7291    0.0665 C.2     1  UNL1       -0.0107
     15 C           4.2067    0.9376   -0.6170 C.2     1  UNL1        0.1740
     16 F           4.2146    1.5959   -1.7549 F       1  UNL1       -0.1958
     17 C           5.3762    0.5627    0.0819 C.1     1  UNL1       -0.0309
     18 C           6.3846    0.2242    0.7055 C.1     1  UNL1       -0.0588
     19 C           7.5868   -0.2060    1.4605 C.ar    1  UNL1        0.0253
     20 C           8.4318   -1.1132    1.1053 C.ar    1  UNL1       -0.0463
     21 C           9.4451   -1.6082    1.9778 C.ar    1  UNL1       -0.0606
     22 C           9.4434   -1.0389    3.2411 C.ar    1  UNL1       -0.0617
     23 C           8.5701   -0.0865    3.6481 C.ar    1  UNL1       -0.0606
     24 C           7.6030    0.3769    2.7776 C.ar    1  UNL1       -0.0463
     25 C           1.6091    2.5428   -0.5283 C.ar    1  UNL1       -0.0518
     26 C           0.2831    3.0235   -0.6850 C.ar    1  UNL1       -0.0255
     27 C          -0.7698    2.1744   -0.6362 C.ar    1  UNL1        0.1289
     28 F          -2.0260    2.6411   -0.7910 F       1  UNL1       -0.2051
     29 N          -2.4083    0.4972    1.0223 N.2     1  UNL1       -0.2521
     30 C          -3.4982    0.0147    1.4970 C.2     1  UNL1        0.1485
     31 N          -4.0466    0.4798    2.6834 N.pl3   1  UNL1       -0.3380
     32 S          -4.2738   -1.2329    0.5028 S.3     1  UNL1       -0.0746
     33 H          -6.6764   -2.1679   -3.9957 H       1  UNL1        0.0428
     34 H          -7.1514   -3.0576   -2.4582 H       1  UNL1        0.0428
     35 H          -8.1206   -1.6652   -3.0571 H       1  UNL1        0.0428
     36 H          -6.4125   -0.0608   -0.3331 H       1  UNL1        0.0428
     37 H          -7.9591   -0.5334   -1.1032 H       1  UNL1        0.0428
     38 H          -7.0154    0.7776   -1.8597 H       1  UNL1        0.0428
     39 H          -4.2929    1.4716   -0.2356 H       1  UNL1        0.0287
     40 H          -4.4850    1.4443   -2.1590 H       1  UNL1        0.0287
     41 H          -2.3425    0.2768   -2.4019 H       1  UNL1        0.0346
     42 H          -2.3322   -2.0068   -0.9054 H       1  UNL1        0.0256
     43 H          -1.9114   -1.9444    0.8291 H       1  UNL1        0.0256
     44 H          -0.5670   -1.8153   -0.4382 H       1  UNL1        0.0256
     45 H           0.8896   -0.7243   -0.1234 H       1  UNL1        0.0628
     46 H           3.0714    0.1912    1.0167 H       1  UNL1        0.0659
     47 H           8.4077   -1.6296    0.1120 H       1  UNL1        0.0630
     48 H          10.1416   -2.3481    1.7022 H       1  UNL1        0.0618
     49 H          10.1780   -1.4278    3.9226 H       1  UNL1        0.0618
     50 H           8.5923    0.3180    4.6544 H       1  UNL1        0.0618
     51 H           6.9059    1.1353    3.0378 H       1  UNL1        0.0630
     52 H           2.4184    3.2262   -0.5628 H       1  UNL1        0.0624
     53 H           0.1387    4.0841   -0.8516 H       1  UNL1        0.0646
     54 H          -4.1655   -0.2249    3.5134 H       1  UNL1        0.1442
     55 H          -4.3821    1.4260    2.9154 H       1  UNL1        0.1442
@<TRIPOS>BOND
     1     1     2    1
     2     2     3    1
     3     2     4   am
     4     4     5    2
     5     6     4    1
     6     6     7    1
     7     7     8    1
     8     8     9    1
     9     9    10    1
    10     9    11    1
    11    11    12   ar
    12    12    13   ar
    13    13    14    1
    14    14    15    2
    15    15    16    1
    16    15    17    1
    17    17    18    3
    18    18    19    1
    19    19    20   ar
    20    20    21   ar
    21    21    22   ar
    22    22    23   ar
    23    23    24   ar
    24    13    25   ar
    25    25    26   ar
    26    26    27   ar
    27    27    28    1
    28     9    29    1
    29    29    30    2
    30    30    31    1
    31    30    32    1
    32     8     6    1
    33    27    11   ar
    34    32     6    1
    35    24    19   ar
    36     1    33    1
    37     1    34    1
    38     1    35    1
    39     3    36    1
    40     3    37    1
    41     3    38    1
    42     7    39    1
    43     7    40    1
    44     8    41    1
    45    10    42    1
    46    10    43    1
    47    10    44    1
    48    12    45    1
    49    14    46    1
    50    20    47    1
    51    21    48    1
    52    22    49    1
    53    23    50    1
    54    24    51    1
    55    25    52    1
    56    26    53    1
    57    31    54    1
    58    31    55    1
