@<TRIPOS>MOLECULE
*****
 63 67 0 0 0
SMALL
GASTEIGER

@<TRIPOS>ATOM
      1 O          -0.2675   -1.1502   -0.8471 O.2     1  UNL1       -0.2734
      2 C          -0.4125   -0.2647    0.0839 C.2     1  UNL1        0.2378
      3 N           0.7762    0.1627    0.7227 N.am    1  UNL1       -0.2840
      4 C           1.9923   -0.4009    0.2667 C.ar    1  UNL1        0.0337
      5 C           2.6972    0.1528   -0.7712 C.ar    1  UNL1       -0.0370
      6 C           3.8811   -0.3922   -1.2377 C.ar    1  UNL1       -0.0176
      7 C           4.3826   -1.5295   -0.6502 C.ar    1  UNL1        0.1286
      8 O           5.5664   -2.0774   -1.1186 O.3     1  UNL1       -0.4560
      9 C           6.7631   -1.6082   -0.6648 C.ar    1  UNL1        0.1286
     10 C           6.8756   -0.5481    0.2150 C.ar    1  UNL1       -0.0166
     11 C           8.1001   -0.1066    0.6456 C.ar    1  UNL1       -0.0230
     12 C           9.2524   -0.7173    0.2064 C.ar    1  UNL1        0.1236
     13 F          10.4726   -0.2785    0.6349 F       1  UNL1       -0.2055
     14 C           9.1566   -1.7792   -0.6735 C.ar    1  UNL1       -0.0230
     15 C           7.9290   -2.2141   -1.0995 C.ar    1  UNL1       -0.0166
     16 C           3.6864   -2.0978    0.3955 C.ar    1  UNL1       -0.0176
     17 C           2.4977   -1.5319    0.8478 C.ar    1  UNL1       -0.0370
     18 C          -1.7456    0.1696    0.3566 C.3     1  UNL1        0.1028
     19 C          -2.7211   -0.2210   -0.7721 C.3     1  UNL1       -0.0212
     20 C          -4.0082    0.2826   -0.1841 C.3     1  UNL1       -0.0191
     21 C          -4.6541   -0.6849    0.7640 C.3     1  UNL1       -0.0233
     22 C          -4.9866   -1.9970    0.1384 C.ar    1  UNL1       -0.0469
     23 C          -4.1065   -3.0541    0.1809 C.ar    1  UNL1       -0.0559
     24 C          -4.4183   -4.2700   -0.4149 C.ar    1  UNL1       -0.0262
     25 C          -5.6123   -4.4731   -1.0701 C.ar    1  UNL1        0.1234
     26 F          -5.9042   -5.6599   -1.6471 F       1  UNL1       -0.2055
     27 C          -6.4980   -3.4106   -1.1124 C.ar    1  UNL1       -0.0262
     28 C          -6.1919   -2.1941   -0.5189 C.ar    1  UNL1       -0.0559
     29 C          -3.5764    1.4867    0.6377 C.3     1  UNL1        0.0187
     30 N          -2.0852    1.5437    0.4876 N.am    1  UNL1       -0.2881
     31 C          -1.4302    2.7731    0.4994 C.2     1  UNL1        0.2377
     32 O          -0.1980    2.8936    0.3463 O.2     1  UNL1       -0.2736
     33 C          -2.1903    4.0567    0.7037 C.3     1  UNL1        0.1194
     34 N          -2.2934    4.7305   -0.5716 N.ar    1  UNL1       -0.2429
     35 C          -1.3740    5.6377   -1.0194 C.ar    1  UNL1        0.0460
     36 C          -1.7372    6.0808   -2.2605 C.ar    1  UNL1        0.0693
     37 N          -2.8917    5.4189   -2.5417 N.ar    1  UNL1       -0.1379
     38 N          -3.1902    4.6354   -1.5302 N.ar    1  UNL1       -0.0653
     39 H           0.7504    0.8526    1.5266 H       1  UNL1        0.1549
     40 H           2.2602    1.0625   -1.2117 H       1  UNL1        0.0637
     41 H           4.4005    0.0730   -2.0498 H       1  UNL1        0.0655
     42 H           5.9976   -0.0541    0.5697 H       1  UNL1        0.0655
     43 H           8.1335    0.7272    1.3317 H       1  UNL1        0.0647
     44 H          10.1002   -2.2300   -0.9944 H       1  UNL1        0.0647
     45 H           7.8876   -3.0462   -1.7856 H       1  UNL1        0.0655
     46 H           4.0956   -2.9889    0.8443 H       1  UNL1        0.0655
     47 H           2.0104   -2.0283    1.6654 H       1  UNL1        0.0637
     48 H          -2.0979   -0.3743    1.2967 H       1  UNL1        0.0597
     49 H          -2.6959   -1.3097   -0.9695 H       1  UNL1        0.0291
     50 H          -2.4536    0.3921   -1.6453 H       1  UNL1        0.0291
     51 H          -4.7621    0.5403   -0.9576 H       1  UNL1        0.0320
     52 H          -5.6122   -0.1885    1.1010 H       1  UNL1        0.0316
     53 H          -4.0678   -0.8693    1.6675 H       1  UNL1        0.0316
     54 H          -3.1500   -2.9227    0.7028 H       1  UNL1        0.0621
     55 H          -3.7046   -5.0832   -0.3616 H       1  UNL1        0.0646
     56 H          -7.4308   -3.5838   -1.6297 H       1  UNL1        0.0646
     57 H          -6.8821   -1.3906   -0.5616 H       1  UNL1        0.0621
     58 H          -3.9962    2.3634    0.1338 H       1  UNL1        0.0467
     59 H          -3.8299    1.3893    1.7081 H       1  UNL1        0.0467
     60 H          -1.5641    4.7010    1.3894 H       1  UNL1        0.0606
     61 H          -3.1651    3.8675    1.1602 H       1  UNL1        0.0606
     62 H          -0.5122    5.9389   -0.4633 H       1  UNL1        0.0842
     63 H          -1.2475    6.7984   -2.9174 H       1  UNL1        0.0864
@<TRIPOS>BOND
     1     1     2    2
     2     2     3   am
     3     3     4    1
     4     4     5   ar
     5     5     6   ar
     6     6     7   ar
     7     7     8    1
     8     8     9    1
     9     9    10   ar
    10    10    11   ar
    11    11    12   ar
    12    12    13    1
    13    12    14   ar
    14    14    15   ar
    15     7    16   ar
    16    16    17   ar
    17     2    18    1
    18    18    19    1
    19    19    20    1
    20    20    21    1
    21    21    22    1
    22    22    23   ar
    23    23    24   ar
    24    24    25   ar
    25    25    26    1
    26    25    27   ar
    27    27    28   ar
    28    20    29    1
    29    29    30    1
    30    30    31   am
    31    31    32    2
    32    31    33    1
    33    33    34    1
    34    34    35   ar
    35    35    36   ar
    36    36    37   ar
    37    37    38   ar
    38    17     4   ar
    39    30    18    1
    40    38    34   ar
    41    15     9   ar
    42    28    22   ar
    43     3    39    1
    44     5    40    1
    45     6    41    1
    46    10    42    1
    47    11    43    1
    48    14    44    1
    49    15    45    1
    50    16    46    1
    51    17    47    1
    52    18    48    1
    53    19    49    1
    54    19    50    1
    55    20    51    1
    56    21    52    1
    57    21    53    1
    58    23    54    1
    59    24    55    1
    60    27    56    1
    61    28    57    1
    62    29    58    1
    63    29    59    1
    64    33    60    1
    65    33    61    1
    66    35    62    1
    67    36    63    1
