
     RDKit          3D

 36 37  0  0  0  0  0  0  0  0999 V2000
   -6.5378   -1.1417   -0.3016 C   0  0  0  0  0  0  0  0  0  0  0  0
   -5.6872   -0.0653   -0.5864 O   0  0  0  0  0  0  0  0  0  0  0  0
   -4.3812   -0.0557   -0.1192 C   0  0  0  0  0  0  0  0  0  0  0  0
   -4.0200   -1.0402    0.5536 O   0  0  0  0  0  0  0  0  0  0  0  0
   -3.5547    1.0753   -0.4429 C   0  0  0  0  0  0  0  0  0  0  0  0
   -2.2802    1.2181   -0.0812 C   0  0  0  0  0  0  0  0  0  0  0  0
   -1.2816    2.2470   -0.2841 C   0  0  0  0  0  0  0  0  0  0  0  0
   -1.2769    3.4190   -0.8294 O   0  0  0  0  0  0  0  0  0  0  0  0
   -0.3262    1.4757    0.3418 N   0  0  0  0  0  0  0  0  0  0  0  0
    1.0427    1.2421    0.7702 C   0  0  0  0  0  0  0  0  0  0  0  0
    1.6994    2.3331    1.4405 C   0  0  0  0  0  0  0  0  0  0  0  0
    2.8623    2.2544    1.8583 O   0  0  0  0  0  0  0  0  0  0  0  0
    1.0734    3.5625    1.6676 O   0  0  0  0  0  1  0  0  0  0  0  0
    1.6096    0.0804    0.4613 C   0  0  0  0  0  0  0  0  0  0  0  0
    2.9648   -0.2376    0.8595 C   0  0  0  0  0  0  0  0  0  0  0  0
    3.7133   -0.4707   -0.3563 O   0  0  0  0  0  0  0  0  0  0  0  0
    5.0525   -0.7996   -0.3274 C   0  0  0  0  0  0  0  0  0  0  0  0
    5.8548   -1.0464   -1.5540 C   0  0  0  0  0  0  0  0  0  0  0  0
    5.6410   -0.9004    0.7766 O   0  0  0  0  0  0  0  0  0  0  0  0
    0.9294   -0.9506   -0.4017 C   0  0  0  0  0  0  0  0  0  0  0  0
   -0.7476   -1.1058    0.0774 S   0  0  0  0  0  6  0  0  0  0  0  0
   -0.7869   -2.0792    1.2491 O   0  0  0  0  0  0  0  0  0  0  0  0
   -1.5794   -1.7045   -1.0256 O   0  0  0  0  0  0  0  0  0  0  0  0
   -1.3222    0.4467    0.6439 C   0  0  2  0  0  0  0  0  0  0  0  0
   -7.5592   -0.8887   -0.6485 H   0  0  0  0  0  0  0  0  0  0  0  0
   -6.2298   -2.0722   -0.8206 H   0  0  0  0  0  0  0  0  0  0  0  0
   -6.5421   -1.2669    0.8119 H   0  0  0  0  0  0  0  0  0  0  0  0
   -3.9661    1.9035   -1.0296 H   0  0  0  0  0  0  0  0  0  0  0  0
    3.5483    0.3712    1.4918 H   0  0  0  0  0  0  0  0  0  0  0  0
    2.9778   -1.2785    1.3332 H   0  0  0  0  0  0  0  0  0  0  0  0
    5.2498   -1.4869   -2.3682 H   0  0  0  0  0  0  0  0  0  0  0  0
    6.3430   -0.0961   -1.8421 H   0  0  0  0  0  0  0  0  0  0  0  0
    6.6758   -1.7688   -1.3372 H   0  0  0  0  0  0  0  0  0  0  0  0
    1.4359   -1.9281   -0.2537 H   0  0  0  0  0  0  0  0  0  0  0  0
    1.0120   -0.6208   -1.4719 H   0  0  0  0  0  0  0  0  0  0  0  0
   -1.6068    0.4167    1.7447 H   0  0  0  0  0  0  0  0  0  0  0  0
  1  2  1  0
  2  3  1  0
  3  4  2  0
  3  5  1  0
  5  6  2  0
  6  7  1  0
  7  8  2  0
  7  9  1  0
  9 10  1  0
 10 11  1  0
 11 12  2  0
 11 13  1  0
 10 14  2  0
 14 15  1  0
 15 16  1  0
 16 17  1  0
 17 18  1  0
 17 19  2  0
 14 20  1  0
 20 21  1  0
 21 22  2  0
 21 23  2  0
 21 24  1  0
 24  6  1  0
 24  9  1  0
  1 25  1  0
  1 26  1  0
  1 27  1  0
  5 28  1  0
 15 29  1  0
 15 30  1  0
 18 31  1  0
 18 32  1  0
 18 33  1  0
 20 34  1  0
 20 35  1  0
 24 36  1  1
M  CHG  1  13  -1
M  END
$$$$
