@<TRIPOS>MOLECULE
*****
 36 37 0 0 0
SMALL
GASTEIGER

@<TRIPOS>ATOM
      1 C          -6.5378   -1.1417   -0.3016 C.3     1  UNL1        0.0820
      2 O          -5.6872   -0.0653   -0.5864 O.3     1  UNL1       -0.4648
      3 C          -4.3812   -0.0557   -0.1192 C.2     1  UNL1        0.3322
      4 O          -4.0200   -1.0402    0.5536 O.2     1  UNL1       -0.2456
      5 C          -3.5547    1.0753   -0.4429 C.2     1  UNL1        0.0340
      6 C          -2.2802    1.2181   -0.0812 C.2     1  UNL1        0.0636
      7 C          -1.2816    2.2470   -0.2841 C.2     1  UNL1        0.2523
      8 O          -1.2769    3.4190   -0.8294 O.2     1  UNL1       -0.2698
      9 N          -0.3262    1.4757    0.3418 N.am    1  UNL1       -0.2389
     10 C           1.0427    1.2421    0.7702 C.2     1  UNL1        0.0651
     11 C           1.6994    2.3331    1.4405 C.2     1  UNL1        0.0861
     12 O           2.8623    2.2544    1.8583 O.co2   1  UNL1       -0.5433
     13 O           1.0734    3.5625    1.6676 O.co2   1  UNL1       -0.5433
     14 C           1.6096    0.0804    0.4613 C.2     1  UNL1        0.0115
     15 C           2.9648   -0.2376    0.8595 C.3     1  UNL1        0.1171
     16 O           3.7133   -0.4707   -0.3563 O.3     1  UNL1       -0.4603
     17 C           5.0525   -0.7996   -0.3274 C.2     1  UNL1        0.3043
     18 C           5.8548   -1.0464   -1.5540 C.3     1  UNL1        0.0332
     19 O           5.6410   -0.9004    0.7766 O.2     1  UNL1       -0.2512
     20 C           0.9294   -0.9506   -0.4017 C.3     1  UNL1        0.0944
     21 S          -0.7476   -1.1058    0.0774 S.O2    1  UNL1       -0.0034
     22 O          -0.7869   -2.0792    1.2491 O.2     1  UNL1       -0.1719
     23 O          -1.5794   -1.7045   -1.0256 O.2     1  UNL1       -0.1719
     24 C          -1.3222    0.4467    0.6439 C.3     1  UNL1        0.1792
     25 H          -7.5592   -0.8887   -0.6485 H       1  UNL1        0.0661
     26 H          -6.2298   -2.0722   -0.8206 H       1  UNL1        0.0661
     27 H          -6.5421   -1.2669    0.8119 H       1  UNL1        0.0661
     28 H          -3.9661    1.9035   -1.0296 H       1  UNL1        0.0694
     29 H           3.5483    0.3712    1.4918 H       1  UNL1        0.0747
     30 H           2.9778   -1.2785    1.3332 H       1  UNL1        0.0747
     31 H           5.2498   -1.4869   -2.3682 H       1  UNL1        0.0342
     32 H           6.3430   -0.0961   -1.8421 H       1  UNL1        0.0342
     33 H           6.6758   -1.7688   -1.3372 H       1  UNL1        0.0342
     34 H           1.4359   -1.9281   -0.2537 H       1  UNL1        0.0549
     35 H           1.0120   -0.6208   -1.4719 H       1  UNL1        0.0549
     36 H          -1.6068    0.4167    1.7447 H       1  UNL1        0.0802
@<TRIPOS>UNITY_ATOM_ATTR
13 1
charge -1
@<TRIPOS>BOND
     1     1     2    1
     2     2     3    1
     3     3     4    2
     4     3     5    1
     5     5     6    2
     6     6     7    1
     7     7     8    2
     8     7     9   am
     9     9    10    1
    10    10    11    1
    11    11    12   ar
    12    11    13   ar
    13    10    14    2
    14    14    15    1
    15    15    16    1
    16    16    17    1
    17    17    18    1
    18    17    19    2
    19    14    20    1
    20    20    21    1
    21    21    22    2
    22    21    23    2
    23    21    24    1
    24    24     6    1
    25    24     9    1
    26     1    25    1
    27     1    26    1
    28     1    27    1
    29     5    28    1
    30    15    29    1
    31    15    30    1
    32    18    31    1
    33    18    32    1
    34    18    33    1
    35    20    34    1
    36    20    35    1
    37    24    36    1
