@<TRIPOS>MOLECULE
*****
 54 57 0 0 0
SMALL
GASTEIGER

@<TRIPOS>ATOM
      1 O          -2.1934    0.5171    2.0332 O.2     1  UNL1       -0.2265
      2 C          -1.8155    0.7823    0.8777 C.2     1  UNL1        0.4012
      3 N          -0.8209   -0.1196    0.3359 N.am    1  UNL1       -0.2695
      4 C          -0.3147   -1.2421    1.0969 C.3     1  UNL1        0.1064
      5 C          -0.6464   -2.5623    0.4368 C.3     1  UNL1       -0.0005
      6 C          -0.0766   -2.6824   -0.9176 C.ar    1  UNL1       -0.0451
      7 C           1.1826   -3.2197   -1.0811 C.ar    1  UNL1       -0.0585
      8 C           1.7316   -3.3377   -2.3629 C.ar    1  UNL1       -0.0615
      9 C           1.0326   -2.9238   -3.4774 C.ar    1  UNL1       -0.0617
     10 C          -0.2187   -2.3903   -3.3111 C.ar    1  UNL1       -0.0615
     11 C          -0.7662   -2.2720   -2.0378 C.ar    1  UNL1       -0.0585
     12 C           1.1456   -1.1076    1.3570 C.2     1  UNL1        0.2344
     13 O           1.7968   -1.9650    2.0000 O.2     1  UNL1       -0.2737
     14 N           1.8108    0.0211    0.8624 N.am    1  UNL1       -0.3002
     15 C           3.2402    0.2737    1.0475 C.3     1  UNL1        0.1301
     16 C           3.5608    1.6855    1.3749 C.2     1  UNL1        0.2397
     17 O           3.1777    2.4859    2.2538 O.2     1  UNL1       -0.2734
     18 N           4.4953    1.8199    0.2965 N.am    1  UNL1       -0.2824
     19 C           5.5474    2.2461   -0.5986 C.3     1  UNL1        0.0274
     20 C           6.5310    1.0904   -0.6954 C.3     1  UNL1        0.0411
     21 S           5.3796   -0.3216   -0.6497 S.O     1  UNL1        0.0468
     22 O           5.7567   -1.2319    0.5116 O.2     1  UNL1       -0.2553
     23 C           3.8642    0.6144   -0.2672 C.3     1  UNL1        0.1283
     24 O          -2.2786    1.8399    0.1335 O.3     1  UNL1       -0.4456
     25 C          -3.2379    2.7347    0.6137 C.3     1  UNL1        0.1191
     26 C          -4.5178    2.0900    0.9567 C.ar    1  UNL1       -0.0103
     27 C          -4.8344    1.7392    2.2281 C.ar    1  UNL1       -0.0554
     28 C          -6.0424    1.1162    2.5052 C.ar    1  UNL1       -0.0614
     29 C          -6.9199    0.8559    1.4819 C.ar    1  UNL1       -0.0617
     30 C          -6.6226    1.2013    0.1899 C.ar    1  UNL1       -0.0614
     31 C          -5.4227    1.8160   -0.0610 C.ar    1  UNL1       -0.0554
     32 H          -0.5067    0.1072   -0.6347 H       1  UNL1        0.1528
     33 H          -0.8244   -1.2323    2.0817 H       1  UNL1        0.0599
     34 H          -0.3159   -3.3933    1.0658 H       1  UNL1        0.0336
     35 H          -1.7435   -2.6274    0.3490 H       1  UNL1        0.0336
     36 H           1.7714   -3.5590   -0.2404 H       1  UNL1        0.0620
     37 H           2.7121   -3.7521   -2.5316 H       1  UNL1        0.0618
     38 H           1.4501   -3.0108   -4.4816 H       1  UNL1        0.0618
     39 H          -0.7678   -2.0660   -4.1771 H       1  UNL1        0.0618
     40 H          -1.7544   -1.8475   -1.9397 H       1  UNL1        0.0620
     41 H           1.2740    0.7393    0.3258 H       1  UNL1        0.1496
     42 H           3.7801   -0.4875    1.6096 H       1  UNL1        0.0623
     43 H           5.1193    2.4513   -1.6066 H       1  UNL1        0.0474
     44 H           6.0249    3.1338   -0.1874 H       1  UNL1        0.0474
     45 H           7.2384    1.0540    0.1299 H       1  UNL1        0.0417
     46 H           6.9713    1.1262   -1.7009 H       1  UNL1        0.0417
     47 H           3.2106    0.7907   -1.1193 H       1  UNL1        0.0665
     48 H          -2.8574    3.2705    1.5240 H       1  UNL1        0.0749
     49 H          -3.4933    3.5169   -0.1571 H       1  UNL1        0.0749
     50 H          -4.1855    1.9338    3.0835 H       1  UNL1        0.0621
     51 H          -6.2944    0.8333    3.5368 H       1  UNL1        0.0618
     52 H          -7.8509    0.3731    1.7120 H       1  UNL1        0.0618
     53 H          -7.3306    0.9896   -0.6225 H       1  UNL1        0.0618
     54 H          -5.1517    2.1029   -1.0603 H       1  UNL1        0.0621
@<TRIPOS>BOND
     1     1     2    2
     2     2     3   am
     3     3     4    1
     4     4     5    1
     5     5     6    1
     6     6     7   ar
     7     7     8   ar
     8     8     9   ar
     9     9    10   ar
    10    10    11   ar
    11     4    12    1
    12    12    13    2
    13    12    14   am
    14    14    15    1
    15    15    16    1
    16    16    17    2
    17    16    18   am
    18    18    19    1
    19    19    20    1
    20    20    21    1
    21    21    22    2
    22    21    23    1
    23     2    24    1
    24    24    25    1
    25    25    26    1
    26    26    27   ar
    27    27    28   ar
    28    28    29   ar
    29    29    30   ar
    30    30    31   ar
    31    11     6   ar
    32    23    15    1
    33    31    26   ar
    34    23    18    1
    35     3    32    1
    36     4    33    1
    37     5    34    1
    38     5    35    1
    39     7    36    1
    40     8    37    1
    41     9    38    1
    42    10    39    1
    43    11    40    1
    44    14    41    1
    45    15    42    1
    46    19    43    1
    47    19    44    1
    48    20    45    1
    49    20    46    1
    50    23    47    1
    51    25    48    1
    52    25    49    1
    53    27    50    1
    54    28    51    1
    55    29    52    1
    56    30    53    1
    57    31    54    1
