
     RDKit          3D

 53 55  0  0  0  0  0  0  0  0999 V2000
   -3.6124    3.1873    0.8249 N   0  0  0  0  0  0  0  0  0  0  0  0
   -4.2762    2.3811    0.2762 C   0  0  0  0  0  0  0  0  0  0  0  0
   -5.1265    1.3778   -0.3993 C   0  0  2  0  0  0  0  0  0  0  0  0
   -6.3641    2.0931   -0.8188 C   0  0  0  0  0  0  0  0  0  0  0  0
   -7.6586    0.8962   -0.2913 S   0  0  0  0  0  0  0  0  0  0  0  0
   -6.6574    0.1530    1.0603 C   0  0  0  0  0  0  0  0  0  0  0  0
   -5.3353    0.3285    0.5189 N   0  0  0  0  0  0  0  0  0  0  0  0
   -4.2586   -0.5515    0.9283 C   0  0  0  0  0  0  0  0  0  0  0  0
   -4.5056   -1.4343    1.7640 O   0  0  0  0  0  0  0  0  0  0  0  0
   -2.8876   -0.4228    0.3803 C   0  0  0  0  0  0  0  0  0  0  0  0
   -2.0475   -1.3983    0.9817 N   0  0  0  0  0  0  0  0  0  0  0  0
   -2.5374   -2.7027    0.8656 N   0  0  0  0  0  0  0  0  0  0  0  0
   -0.6838   -1.4180    0.5940 C   0  0  0  0  0  0  0  0  0  0  0  0
   -0.6228   -1.6700   -0.9221 C   0  0  0  0  0  0  0  0  0  0  0  0
    0.7807   -2.0476   -1.2127 C   0  0  0  0  0  0  0  0  0  0  0  0
    1.7999   -1.1271   -0.7517 N   0  0  0  0  0  0  0  0  0  0  0  0
    2.6831   -1.7628    0.2097 C   0  0  0  0  0  0  0  0  0  0  0  0
    3.9158   -0.9575    0.3413 C   0  0  0  0  0  0  0  0  0  0  0  0
    4.7999   -1.2892    1.2185 O   0  0  0  0  0  0  0  0  0  0  0  0
    4.2566    0.1825   -0.4236 N   0  0  0  0  0  0  0  0  0  0  0  0
    5.4921    0.8864   -0.1852 C   0  0  0  0  0  0  0  0  0  0  0  0
    5.4567    1.9142    0.7156 C   0  0  0  0  0  0  0  0  0  0  0  0
    6.6096    2.6119    0.9814 C   0  0  0  0  0  0  0  0  0  0  0  0
    7.7575    2.2222    0.3070 C   0  0  0  0  0  0  0  0  0  0  0  0
    9.2571    3.0673    0.6020 Cl  0  0  0  0  0  0  0  0  0  0  0  0
    7.7424    1.1828   -0.5885 C   0  0  0  0  0  0  0  0  0  0  0  0
    6.6017    0.5196   -0.8285 N   0  0  0  0  0  0  0  0  0  0  0  0
    1.2071    0.0682   -0.1699 C   0  0  0  0  0  0  0  0  0  0  0  0
    0.1093   -0.1823    0.8209 C   0  0  0  0  0  0  0  0  0  0  0  0
   -4.5859    1.0377   -1.3328 H   0  0  0  0  0  0  0  0  0  0  0  0
   -6.5365    3.0244   -0.2342 H   0  0  0  0  0  0  0  0  0  0  0  0
   -6.4405    2.2693   -1.9098 H   0  0  0  0  0  0  0  0  0  0  0  0
   -6.8054    0.7262    1.9893 H   0  0  0  0  0  0  0  0  0  0  0  0
   -6.9307   -0.9206    1.1645 H   0  0  0  0  0  0  0  0  0  0  0  0
   -2.5744    0.6098    0.4970 H   0  0  0  0  0  0  0  0  0  0  0  0
   -2.9702   -0.6012   -0.7317 H   0  0  0  0  0  0  0  0  0  0  0  0
   -2.8749   -3.0959    1.7661 H   0  0  0  0  0  0  0  0  0  0  0  0
   -3.3269   -2.6934    0.2007 H   0  0  0  0  0  0  0  0  0  0  0  0
   -0.1256   -2.2701    1.0629 H   0  0  0  0  0  0  0  0  0  0  0  0
   -0.8621   -0.7341   -1.4757 H   0  0  0  0  0  0  0  0  0  0  0  0
   -1.3131   -2.4844   -1.1196 H   0  0  0  0  0  0  0  0  0  0  0  0
    0.9816   -3.0821   -0.8666 H   0  0  0  0  0  0  0  0  0  0  0  0
    0.9054   -2.0694   -2.3374 H   0  0  0  0  0  0  0  0  0  0  0  0
    2.2340   -1.8877    1.1994 H   0  0  0  0  0  0  0  0  0  0  0  0
    2.9982   -2.7742   -0.1584 H   0  0  0  0  0  0  0  0  0  0  0  0
    3.6224    0.4954   -1.1798 H   0  0  0  0  0  0  0  0  0  0  0  0
    4.5403    2.1972    1.2295 H   0  0  0  0  0  0  0  0  0  0  0  0
    6.6346    3.4438    1.6947 H   0  0  0  0  0  0  0  0  0  0  0  0
    8.6245    0.8532   -1.1305 H   0  0  0  0  0  0  0  0  0  0  0  0
    2.0488    0.5993    0.3680 H   0  0  0  0  0  0  0  0  0  0  0  0
    0.8789    0.7467   -0.9708 H   0  0  0  0  0  0  0  0  0  0  0  0
    0.5765   -0.1930    1.8494 H   0  0  0  0  0  0  0  0  0  0  0  0
   -0.5945    0.6952    0.8001 H   0  0  0  0  0  0  0  0  0  0  0  0
  1  2  3  0
  2  3  1  0
  3  4  1  0
  4  5  1  0
  5  6  1  0
  6  7  1  0
  7  8  1  0
  8  9  2  0
  8 10  1  0
 10 11  1  0
 11 12  1  0
 11 13  1  0
 13 14  1  0
 14 15  1  0
 15 16  1  0
 16 17  1  0
 17 18  1  0
 18 19  2  0
 18 20  1  0
 20 21  1  0
 21 22  2  0
 22 23  1  0
 23 24  2  0
 24 25  1  0
 24 26  1  0
 26 27  2  0
 16 28  1  0
 28 29  1  0
  7  3  1  0
 29 13  1  0
 27 21  1  0
  3 30  1  6
  4 31  1  0
  4 32  1  0
  6 33  1  0
  6 34  1  0
 10 35  1  0
 10 36  1  0
 12 37  1  0
 12 38  1  0
 13 39  1  0
 14 40  1  0
 14 41  1  0
 15 42  1  0
 15 43  1  0
 17 44  1  0
 17 45  1  0
 20 46  1  0
 22 47  1  0
 23 48  1  0
 26 49  1  0
 28 50  1  0
 28 51  1  0
 29 52  1  0
 29 53  1  0
M  END
$$$$
