@<TRIPOS>MOLECULE
*****
 53 55 0 0 0
SMALL
GASTEIGER

@<TRIPOS>ATOM
      1 N          -3.6124    3.1873    0.8249 N.1     1  UNL1       -0.1946
      2 C          -4.2762    2.3811    0.2762 C.1     1  UNL1        0.0860
      3 C          -5.1265    1.3778   -0.3993 C.3     1  UNL1        0.1226
      4 C          -6.3641    2.0931   -0.8188 C.3     1  UNL1        0.0271
      5 S          -7.6586    0.8962   -0.2913 S.3     1  UNL1       -0.1387
      6 C          -6.6574    0.1530    1.0603 C.3     1  UNL1        0.0623
      7 N          -5.3353    0.3285    0.5189 N.am    1  UNL1       -0.2745
      8 C          -4.2586   -0.5515    0.9283 C.2     1  UNL1        0.2327
      9 O          -4.5056   -1.4343    1.7640 O.2     1  UNL1       -0.2741
     10 C          -2.8876   -0.4228    0.3803 C.3     1  UNL1        0.0904
     11 N          -2.0475   -1.3983    0.9817 N.3     1  UNL1       -0.2336
     12 N          -2.5374   -2.7027    0.8656 N.3     1  UNL1       -0.2672
     13 C          -0.6838   -1.4180    0.5940 C.3     1  UNL1        0.0277
     14 C          -0.6228   -1.6700   -0.9221 C.3     1  UNL1       -0.0231
     15 C           0.7807   -2.0476   -1.2127 C.3     1  UNL1        0.0008
     16 N           1.7999   -1.1271   -0.7517 N.3     1  UNL1       -0.2939
     17 C           2.6831   -1.7628    0.2097 C.3     1  UNL1        0.0761
     18 C           3.9158   -0.9575    0.3413 C.2     1  UNL1        0.2323
     19 O           4.7999   -1.2892    1.2185 O.2     1  UNL1       -0.2740
     20 N           4.2566    0.1825   -0.4236 N.am    1  UNL1       -0.2693
     21 C           5.4921    0.8864   -0.1852 C.ar    1  UNL1        0.1250
     22 C           5.4567    1.9142    0.7156 C.ar    1  UNL1       -0.0201
     23 C           6.6096    2.6119    0.9814 C.ar    1  UNL1       -0.0387
     24 C           7.7575    2.2222    0.3070 C.ar    1  UNL1        0.0592
     25 CL          9.2571    3.0673    0.6020 Cl      1  UNL1       -0.0820
     26 C           7.7424    1.1828   -0.5885 C.ar    1  UNL1        0.0480
     27 N           6.6017    0.5196   -0.8285 N.ar    1  UNL1       -0.2387
     28 C           1.2071    0.0682   -0.1699 C.3     1  UNL1        0.0008
     29 C           0.1093   -0.1823    0.8209 C.3     1  UNL1       -0.0231
     30 H          -4.5859    1.0377   -1.3328 H       1  UNL1        0.0667
     31 H          -6.5365    3.0244   -0.2342 H       1  UNL1        0.0405
     32 H          -6.4405    2.2693   -1.9098 H       1  UNL1        0.0405
     33 H          -6.8054    0.7262    1.9893 H       1  UNL1        0.0580
     34 H          -6.9307   -0.9206    1.1645 H       1  UNL1        0.0580
     35 H          -2.5744    0.6098    0.4970 H       1  UNL1        0.0536
     36 H          -2.9702   -0.6012   -0.7317 H       1  UNL1        0.0536
     37 H          -2.8749   -3.0959    1.7661 H       1  UNL1        0.1370
     38 H          -3.3269   -2.6934    0.2007 H       1  UNL1        0.1370
     39 H          -0.1256   -2.2701    1.0629 H       1  UNL1        0.0477
     40 H          -0.8621   -0.7341   -1.4757 H       1  UNL1        0.0293
     41 H          -1.3131   -2.4844   -1.1196 H       1  UNL1        0.0293
     42 H           0.9816   -3.0821   -0.8666 H       1  UNL1        0.0427
     43 H           0.9054   -2.0694   -2.3374 H       1  UNL1        0.0427
     44 H           2.2340   -1.8877    1.1994 H       1  UNL1        0.0522
     45 H           2.9982   -2.7742   -0.1584 H       1  UNL1        0.0522
     46 H           3.6224    0.4954   -1.1798 H       1  UNL1        0.1563
     47 H           4.5403    2.1972    1.2295 H       1  UNL1        0.0652
     48 H           6.6346    3.4438    1.6947 H       1  UNL1        0.0634
     49 H           8.6245    0.8532   -1.1305 H       1  UNL1        0.0845
     50 H           2.0488    0.5993    0.3680 H       1  UNL1        0.0427
     51 H           0.8789    0.7467   -0.9708 H       1  UNL1        0.0427
     52 H           0.5765   -0.1930    1.8494 H       1  UNL1        0.0293
     53 H          -0.5945    0.6952    0.8001 H       1  UNL1        0.0293
@<TRIPOS>BOND
     1     1     2    3
     2     2     3    1
     3     3     4    1
     4     4     5    1
     5     5     6    1
     6     6     7    1
     7     7     8   am
     8     8     9    2
     9     8    10    1
    10    10    11    1
    11    11    12    1
    12    11    13    1
    13    13    14    1
    14    14    15    1
    15    15    16    1
    16    16    17    1
    17    17    18    1
    18    18    19    2
    19    18    20   am
    20    20    21    1
    21    21    22   ar
    22    22    23   ar
    23    23    24   ar
    24    24    25    1
    25    24    26   ar
    26    26    27   ar
    27    16    28    1
    28    28    29    1
    29     7     3    1
    30    29    13    1
    31    27    21   ar
    32     3    30    1
    33     4    31    1
    34     4    32    1
    35     6    33    1
    36     6    34    1
    37    10    35    1
    38    10    36    1
    39    12    37    1
    40    12    38    1
    41    13    39    1
    42    14    40    1
    43    14    41    1
    44    15    42    1
    45    15    43    1
    46    17    44    1
    47    17    45    1
    48    20    46    1
    49    22    47    1
    50    23    48    1
    51    26    49    1
    52    28    50    1
    53    28    51    1
    54    29    52    1
    55    29    53    1
