@<TRIPOS>MOLECULE
*****
 53 55 0 0 0
SMALL
GASTEIGER

@<TRIPOS>ATOM
      1 O          -3.6941   -0.0500    3.7533 O.2     1  UNL1       -0.2510
      2 C          -4.6051    0.6077    3.1877 C.2     1  UNL1        0.3047
      3 O          -5.7407    0.9306    3.8921 O.3     1  UNL1       -0.4806
      4 C          -4.4367    1.0177    1.7847 C.3     1  UNL1        0.0448
      5 C          -3.1092    0.5428    1.2377 C.3     1  UNL1       -0.0421
      6 C          -2.9646    0.9760   -0.1972 C.3     1  UNL1       -0.0414
      7 C          -1.6834    0.5531   -0.8255 C.3     1  UNL1        0.0116
      8 C          -1.5736   -0.9091   -0.8067 C.ar    1  UNL1       -0.0397
      9 C          -2.0488   -1.6676   -1.8542 C.ar    1  UNL1       -0.0580
     10 C          -1.9495   -3.0613   -1.8451 C.ar    1  UNL1       -0.0615
     11 C          -1.3710   -3.6909   -0.7796 C.ar    1  UNL1       -0.0617
     12 C          -0.8945   -2.9348    0.2702 C.ar    1  UNL1       -0.0615
     13 C          -0.9960   -1.5391    0.2569 C.ar    1  UNL1       -0.0580
     14 C          -1.6783    1.1247   -2.2502 C.3     1  UNL1       -0.0405
     15 C          -0.3786    0.9697   -2.9496 C.3     1  UNL1       -0.0362
     16 C           0.7368    0.3695   -2.1619 C.3     1  UNL1        0.0162
     17 N           0.7238    0.7674   -0.7803 N.am    1  UNL1       -0.2845
     18 C           1.9182    0.7448    0.0493 C.2     1  UNL1        0.3065
     19 O           1.7968    1.1220    1.2369 O.2     1  UNL1       -0.2523
     20 N           3.1480    0.3169   -0.4673 N.am    1  UNL1       -0.2693
     21 C           4.3458    0.2621    0.2521 C.ar    1  UNL1        0.0349
     22 C           5.5093   -0.1904   -0.3979 C.ar    1  UNL1       -0.0391
     23 C           6.7304   -0.2788    0.2255 C.ar    1  UNL1       -0.0416
     24 C           6.8882    0.0766    1.5451 C.ar    1  UNL1        0.0411
     25 CL          8.4653   -0.0502    2.3075 Cl      1  UNL1       -0.0835
     26 C           5.7823    0.5194    2.2058 C.ar    1  UNL1       -0.0416
     27 C           4.5441    0.6059    1.5631 C.ar    1  UNL1       -0.0391
     28 C          -0.4988    1.2089   -0.1418 C.3     1  UNL1        0.0258
     29 H          -5.7454    0.8542    4.8929 H       1  UNL1        0.2951
     30 H          -5.2298    0.6247    1.1133 H       1  UNL1        0.0377
     31 H          -4.4820    2.1366    1.6778 H       1  UNL1        0.0377
     32 H          -3.1182   -0.5733    1.3143 H       1  UNL1        0.0271
     33 H          -2.3176    0.8989    1.8970 H       1  UNL1        0.0271
     34 H          -3.8266    0.5583   -0.7572 H       1  UNL1        0.0274
     35 H          -3.1064    2.0851   -0.2196 H       1  UNL1        0.0274
     36 H          -2.5177   -1.2567   -2.7307 H       1  UNL1        0.0620
     37 H          -2.3222   -3.6507   -2.6658 H       1  UNL1        0.0618
     38 H          -1.3086   -4.7771   -0.8023 H       1  UNL1        0.0618
     39 H          -0.4377   -3.4590    1.1077 H       1  UNL1        0.0618
     40 H          -0.5909   -1.0526    1.1297 H       1  UNL1        0.0620
     41 H          -1.8814    2.2262   -2.0800 H       1  UNL1        0.0275
     42 H          -2.5624    0.7659   -2.7927 H       1  UNL1        0.0275
     43 H          -0.5671    0.3975   -3.8893 H       1  UNL1        0.0281
     44 H          -0.0192    1.9825   -3.3030 H       1  UNL1        0.0281
     45 H           1.6899    0.6856   -2.6425 H       1  UNL1        0.0465
     46 H           0.6889   -0.7308   -2.2928 H       1  UNL1        0.0465
     47 H           3.1692    0.0076   -1.4855 H       1  UNL1        0.1564
     48 H           5.3812   -0.4727   -1.4487 H       1  UNL1        0.0636
     49 H           7.5919   -0.6352   -0.3280 H       1  UNL1        0.0633
     50 H           5.8382    0.8105    3.2315 H       1  UNL1        0.0633
     51 H           3.6843    0.9695    2.1423 H       1  UNL1        0.0636
     52 H          -0.5608    2.3080   -0.3084 H       1  UNL1        0.0474
     53 H          -0.4158    0.9533    0.9295 H       1  UNL1        0.0474
@<TRIPOS>BOND
     1     1     2    2
     2     2     3    1
     3     2     4    1
     4     4     5    1
     5     5     6    1
     6     6     7    1
     7     7     8    1
     8     8     9   ar
     9     9    10   ar
    10    10    11   ar
    11    11    12   ar
    12    12    13   ar
    13     7    14    1
    14    14    15    1
    15    15    16    1
    16    16    17    1
    17    17    18   am
    18    18    19    2
    19    18    20   am
    20    20    21    1
    21    21    22   ar
    22    22    23   ar
    23    23    24   ar
    24    24    25    1
    25    24    26   ar
    26    26    27   ar
    27    17    28    1
    28    28     7    1
    29    13     8   ar
    30    27    21   ar
    31     3    29    1
    32     4    30    1
    33     4    31    1
    34     5    32    1
    35     5    33    1
    36     6    34    1
    37     6    35    1
    38     9    36    1
    39    10    37    1
    40    11    38    1
    41    12    39    1
    42    13    40    1
    43    14    41    1
    44    14    42    1
    45    15    43    1
    46    15    44    1
    47    16    45    1
    48    16    46    1
    49    20    47    1
    50    22    48    1
    51    23    49    1
    52    26    50    1
    53    27    51    1
    54    28    52    1
    55    28    53    1
