
     RDKit          3D

 53 55  0  0  0  0  0  0  0  0999 V2000
   -3.6941   -0.0500    3.7533 O   0  0  0  0  0  0  0  0  0  0  0  0
   -4.6051    0.6077    3.1877 C   0  0  0  0  0  0  0  0  0  0  0  0
   -5.7407    0.9306    3.8921 O   0  0  0  0  0  0  0  0  0  0  0  0
   -4.4367    1.0177    1.7847 C   0  0  0  0  0  0  0  0  0  0  0  0
   -3.1092    0.5428    1.2377 C   0  0  0  0  0  0  0  0  0  0  0  0
   -2.9646    0.9760   -0.1972 C   0  0  0  0  0  0  0  0  0  0  0  0
   -1.6834    0.5531   -0.8255 C   0  0  0  0  0  0  0  0  0  0  0  0
   -1.5736   -0.9091   -0.8067 C   0  0  0  0  0  0  0  0  0  0  0  0
   -2.0488   -1.6676   -1.8542 C   0  0  0  0  0  0  0  0  0  0  0  0
   -1.9495   -3.0613   -1.8451 C   0  0  0  0  0  0  0  0  0  0  0  0
   -1.3710   -3.6909   -0.7796 C   0  0  0  0  0  0  0  0  0  0  0  0
   -0.8945   -2.9348    0.2702 C   0  0  0  0  0  0  0  0  0  0  0  0
   -0.9960   -1.5391    0.2569 C   0  0  0  0  0  0  0  0  0  0  0  0
   -1.6783    1.1247   -2.2502 C   0  0  0  0  0  0  0  0  0  0  0  0
   -0.3786    0.9697   -2.9496 C   0  0  0  0  0  0  0  0  0  0  0  0
    0.7368    0.3695   -2.1619 C   0  0  0  0  0  0  0  0  0  0  0  0
    0.7238    0.7674   -0.7803 N   0  0  0  0  0  0  0  0  0  0  0  0
    1.9182    0.7448    0.0493 C   0  0  0  0  0  0  0  0  0  0  0  0
    1.7968    1.1220    1.2369 O   0  0  0  0  0  0  0  0  0  0  0  0
    3.1480    0.3169   -0.4673 N   0  0  0  0  0  0  0  0  0  0  0  0
    4.3458    0.2621    0.2521 C   0  0  0  0  0  0  0  0  0  0  0  0
    5.5093   -0.1904   -0.3979 C   0  0  0  0  0  0  0  0  0  0  0  0
    6.7304   -0.2788    0.2255 C   0  0  0  0  0  0  0  0  0  0  0  0
    6.8882    0.0766    1.5451 C   0  0  0  0  0  0  0  0  0  0  0  0
    8.4653   -0.0502    2.3075 Cl  0  0  0  0  0  0  0  0  0  0  0  0
    5.7823    0.5194    2.2058 C   0  0  0  0  0  0  0  0  0  0  0  0
    4.5441    0.6059    1.5631 C   0  0  0  0  0  0  0  0  0  0  0  0
   -0.4988    1.2089   -0.1418 C   0  0  0  0  0  0  0  0  0  0  0  0
   -5.7454    0.8542    4.8929 H   0  0  0  0  0  0  0  0  0  0  0  0
   -5.2298    0.6247    1.1133 H   0  0  0  0  0  0  0  0  0  0  0  0
   -4.4820    2.1366    1.6778 H   0  0  0  0  0  0  0  0  0  0  0  0
   -3.1182   -0.5733    1.3143 H   0  0  0  0  0  0  0  0  0  0  0  0
   -2.3176    0.8989    1.8970 H   0  0  0  0  0  0  0  0  0  0  0  0
   -3.8266    0.5583   -0.7572 H   0  0  0  0  0  0  0  0  0  0  0  0
   -3.1064    2.0851   -0.2196 H   0  0  0  0  0  0  0  0  0  0  0  0
   -2.5177   -1.2567   -2.7307 H   0  0  0  0  0  0  0  0  0  0  0  0
   -2.3222   -3.6507   -2.6658 H   0  0  0  0  0  0  0  0  0  0  0  0
   -1.3086   -4.7771   -0.8023 H   0  0  0  0  0  0  0  0  0  0  0  0
   -0.4377   -3.4590    1.1077 H   0  0  0  0  0  0  0  0  0  0  0  0
   -0.5909   -1.0526    1.1297 H   0  0  0  0  0  0  0  0  0  0  0  0
   -1.8814    2.2262   -2.0800 H   0  0  0  0  0  0  0  0  0  0  0  0
   -2.5624    0.7659   -2.7927 H   0  0  0  0  0  0  0  0  0  0  0  0
   -0.5671    0.3975   -3.8893 H   0  0  0  0  0  0  0  0  0  0  0  0
   -0.0192    1.9825   -3.3030 H   0  0  0  0  0  0  0  0  0  0  0  0
    1.6899    0.6856   -2.6425 H   0  0  0  0  0  0  0  0  0  0  0  0
    0.6889   -0.7308   -2.2928 H   0  0  0  0  0  0  0  0  0  0  0  0
    3.1692    0.0076   -1.4855 H   0  0  0  0  0  0  0  0  0  0  0  0
    5.3812   -0.4727   -1.4487 H   0  0  0  0  0  0  0  0  0  0  0  0
    7.5919   -0.6352   -0.3280 H   0  0  0  0  0  0  0  0  0  0  0  0
    5.8382    0.8105    3.2315 H   0  0  0  0  0  0  0  0  0  0  0  0
    3.6843    0.9695    2.1423 H   0  0  0  0  0  0  0  0  0  0  0  0
   -0.5608    2.3080   -0.3084 H   0  0  0  0  0  0  0  0  0  0  0  0
   -0.4158    0.9533    0.9295 H   0  0  0  0  0  0  0  0  0  0  0  0
  1  2  2  0
  2  3  1  0
  2  4  1  0
  4  5  1  0
  5  6  1  0
  6  7  1  0
  7  8  1  0
  8  9  2  0
  9 10  1  0
 10 11  2  0
 11 12  1  0
 12 13  2  0
  7 14  1  0
 14 15  1  0
 15 16  1  0
 16 17  1  0
 17 18  1  0
 18 19  2  0
 18 20  1  0
 20 21  1  0
 21 22  2  0
 22 23  1  0
 23 24  2  0
 24 25  1  0
 24 26  1  0
 26 27  2  0
 17 28  1  0
 28  7  1  0
 13  8  1  0
 27 21  1  0
  3 29  1  0
  4 30  1  0
  4 31  1  0
  5 32  1  0
  5 33  1  0
  6 34  1  0
  6 35  1  0
  9 36  1  0
 10 37  1  0
 11 38  1  0
 12 39  1  0
 13 40  1  0
 14 41  1  0
 14 42  1  0
 15 43  1  0
 15 44  1  0
 16 45  1  0
 16 46  1  0
 20 47  1  0
 22 48  1  0
 23 49  1  0
 26 50  1  0
 27 51  1  0
 28 52  1  0
 28 53  1  0
M  END
$$$$
