@<TRIPOS>MOLECULE
*****
 41 44 0 0 0
SMALL
GASTEIGER

@<TRIPOS>ATOM
      1 C           4.4404   -1.6850    0.5418 C.3     1  UNL1       -0.0232
      2 C           3.9115   -0.2716    0.6187 C.3     1  UNL1        0.1842
      3 O           3.3401   -0.0474    1.9052 O.3     1  UNL1       -0.3757
      4 C           2.8273   -0.0794   -0.3633 C.ar    1  UNL1        0.0109
      5 C           3.0101    0.3403   -1.6627 C.ar    1  UNL1        0.0338
      6 N           1.9460    0.4793   -2.4715 N.ar    1  UNL1       -0.2622
      7 C           0.6715    0.2227   -2.0684 C.ar    1  UNL1        0.0368
      8 C           0.4465   -0.1934   -0.7916 C.ar    1  UNL1        0.0206
      9 C          -0.8804   -0.4771   -0.2159 C.ar    1  UNL1        0.0947
     10 N          -1.2231   -1.6200    0.4083 N.ar    1  UNL1       -0.2275
     11 C          -2.4794   -1.5088    0.8598 C.ar    1  UNL1        0.1386
     12 C          -3.2408   -2.4290    1.5658 C.ar    1  UNL1       -0.0161
     13 C          -4.5013   -2.0962    1.9366 C.ar    1  UNL1       -0.0215
     14 C          -4.9758   -0.8579    1.5982 C.ar    1  UNL1        0.1399
     15 F          -6.2325   -0.5064    1.9603 F       1  UNL1       -0.2040
     16 C          -4.2167    0.0781    0.8861 C.ar    1  UNL1        0.0467
     17 N          -2.9788   -0.2804    0.5338 N.ar    1  UNL1       -0.3000
     18 C          -1.9899    0.3516   -0.1302 C.ar    1  UNL1        0.0542
     19 C          -2.0257    1.7075   -0.6700 C.3     1  UNL1        0.0019
     20 C          -2.3880    1.7861   -2.1694 C.3     1  UNL1       -0.0442
     21 C          -3.1561    2.4905   -1.1121 C.3     1  UNL1       -0.0442
     22 C           1.5572   -0.3345    0.0379 C.ar    1  UNL1       -0.0434
     23 C           5.0328    0.7270    0.5168 C.3     1  UNL1        0.4222
     24 F           5.7636    0.6484   -0.6395 F       1  UNL1       -0.1673
     25 F           5.9356    0.4699    1.5580 F       1  UNL1       -0.1673
     26 F           4.5506    2.0089    0.7406 F       1  UNL1       -0.1673
     27 H           3.8899   -2.2960   -0.2216 H       1  UNL1        0.0263
     28 H           5.5133   -1.7332    0.2878 H       1  UNL1        0.0263
     29 H           4.3239   -2.2372    1.5012 H       1  UNL1        0.0263
     30 H           3.3167    0.9400    2.0087 H       1  UNL1        0.2110
     31 H           4.0054    0.5475   -2.0059 H       1  UNL1        0.0833
     32 H          -0.1536    0.3265   -2.7569 H       1  UNL1        0.0836
     33 H          -2.8298   -3.3861    1.8096 H       1  UNL1        0.0655
     34 H          -5.1029   -2.8194    2.4924 H       1  UNL1        0.0648
     35 H          -4.6338    1.0465    0.6591 H       1  UNL1        0.0842
     36 H          -1.0674    2.2663   -0.4771 H       1  UNL1        0.0364
     37 H          -1.7246    2.3058   -2.8571 H       1  UNL1        0.0272
     38 H          -2.8508    0.8745   -2.6102 H       1  UNL1        0.0272
     39 H          -2.9749    3.6192   -1.1444 H       1  UNL1        0.0272
     40 H          -4.2182    2.2888   -1.1066 H       1  UNL1        0.0272
     41 H           1.3624   -0.6663    1.0477 H       1  UNL1        0.0629
@<TRIPOS>BOND
     1     1     2    1
     2     2     3    1
     3     2     4    1
     4     4     5   ar
     5     5     6   ar
     6     6     7   ar
     7     7     8   ar
     8     8     9    1
     9     9    10   ar
    10    10    11   ar
    11    11    12   ar
    12    12    13   ar
    13    13    14   ar
    14    14    15    1
    15    14    16   ar
    16    16    17   ar
    17    17    18   ar
    18    18    19    1
    19    19    20    1
    20    20    21    1
    21     8    22   ar
    22     2    23    1
    23    23    24    1
    24    23    25    1
    25    23    26    1
    26    22     4   ar
    27    18     9   ar
    28    21    19    1
    29    17    11   ar
    30     1    27    1
    31     1    28    1
    32     1    29    1
    33     3    30    1
    34     5    31    1
    35     7    32    1
    36    12    33    1
    37    13    34    1
    38    16    35    1
    39    19    36    1
    40    20    37    1
    41    20    38    1
    42    21    39    1
    43    21    40    1
    44    22    41    1
