
     RDKit          3D

 41 44  0  0  0  0  0  0  0  0999 V2000
    4.4404   -1.6850    0.5418 C   0  0  0  0  0  0  0  0  0  0  0  0
    3.9115   -0.2716    0.6187 C   0  0  2  0  0  0  0  0  0  0  0  0
    3.3401   -0.0474    1.9052 O   0  0  0  0  0  0  0  0  0  0  0  0
    2.8273   -0.0794   -0.3633 C   0  0  0  0  0  0  0  0  0  0  0  0
    3.0101    0.3403   -1.6627 C   0  0  0  0  0  0  0  0  0  0  0  0
    1.9460    0.4793   -2.4715 N   0  0  0  0  0  0  0  0  0  0  0  0
    0.6715    0.2227   -2.0684 C   0  0  0  0  0  0  0  0  0  0  0  0
    0.4465   -0.1934   -0.7916 C   0  0  0  0  0  0  0  0  0  0  0  0
   -0.8804   -0.4771   -0.2159 C   0  0  0  0  0  0  0  0  0  0  0  0
   -1.2231   -1.6200    0.4083 N   0  0  0  0  0  0  0  0  0  0  0  0
   -2.4794   -1.5088    0.8598 C   0  0  0  0  0  0  0  0  0  0  0  0
   -3.2408   -2.4290    1.5658 C   0  0  0  0  0  0  0  0  0  0  0  0
   -4.5013   -2.0962    1.9366 C   0  0  0  0  0  0  0  0  0  0  0  0
   -4.9758   -0.8579    1.5982 C   0  0  0  0  0  0  0  0  0  0  0  0
   -6.2325   -0.5064    1.9603 F   0  0  0  0  0  0  0  0  0  0  0  0
   -4.2167    0.0781    0.8861 C   0  0  0  0  0  0  0  0  0  0  0  0
   -2.9788   -0.2804    0.5338 N   0  0  0  0  0  0  0  0  0  0  0  0
   -1.9899    0.3516   -0.1302 C   0  0  0  0  0  0  0  0  0  0  0  0
   -2.0257    1.7075   -0.6700 C   0  0  0  0  0  0  0  0  0  0  0  0
   -2.3880    1.7861   -2.1694 C   0  0  0  0  0  0  0  0  0  0  0  0
   -3.1561    2.4905   -1.1121 C   0  0  0  0  0  0  0  0  0  0  0  0
    1.5572   -0.3345    0.0379 C   0  0  0  0  0  0  0  0  0  0  0  0
    5.0328    0.7270    0.5168 C   0  0  0  0  0  0  0  0  0  0  0  0
    5.7636    0.6484   -0.6395 F   0  0  0  0  0  0  0  0  0  0  0  0
    5.9356    0.4699    1.5580 F   0  0  0  0  0  0  0  0  0  0  0  0
    4.5506    2.0089    0.7406 F   0  0  0  0  0  0  0  0  0  0  0  0
    3.8899   -2.2960   -0.2216 H   0  0  0  0  0  0  0  0  0  0  0  0
    5.5133   -1.7332    0.2878 H   0  0  0  0  0  0  0  0  0  0  0  0
    4.3239   -2.2372    1.5012 H   0  0  0  0  0  0  0  0  0  0  0  0
    3.3167    0.9400    2.0087 H   0  0  0  0  0  0  0  0  0  0  0  0
    4.0054    0.5475   -2.0059 H   0  0  0  0  0  0  0  0  0  0  0  0
   -0.1536    0.3265   -2.7569 H   0  0  0  0  0  0  0  0  0  0  0  0
   -2.8298   -3.3861    1.8096 H   0  0  0  0  0  0  0  0  0  0  0  0
   -5.1029   -2.8194    2.4924 H   0  0  0  0  0  0  0  0  0  0  0  0
   -4.6338    1.0465    0.6591 H   0  0  0  0  0  0  0  0  0  0  0  0
   -1.0674    2.2663   -0.4771 H   0  0  0  0  0  0  0  0  0  0  0  0
   -1.7246    2.3058   -2.8571 H   0  0  0  0  0  0  0  0  0  0  0  0
   -2.8508    0.8745   -2.6102 H   0  0  0  0  0  0  0  0  0  0  0  0
   -2.9749    3.6192   -1.1444 H   0  0  0  0  0  0  0  0  0  0  0  0
   -4.2182    2.2888   -1.1066 H   0  0  0  0  0  0  0  0  0  0  0  0
    1.3624   -0.6663    1.0477 H   0  0  0  0  0  0  0  0  0  0  0  0
  1  2  1  0
  2  3  1  1
  2  4  1  0
  4  5  2  0
  5  6  1  0
  6  7  2  0
  7  8  1  0
  8  9  1  0
  9 10  1  0
 10 11  2  0
 11 12  1  0
 12 13  2  0
 13 14  1  0
 14 15  1  0
 14 16  2  0
 16 17  1  0
 17 18  1  0
 18 19  1  0
 19 20  1  0
 20 21  1  0
  8 22  2  0
  2 23  1  0
 23 24  1  0
 23 25  1  0
 23 26  1  0
 22  4  1  0
 18  9  2  0
 21 19  1  0
 17 11  1  0
  1 27  1  0
  1 28  1  0
  1 29  1  0
  3 30  1  0
  5 31  1  0
  7 32  1  0
 12 33  1  0
 13 34  1  0
 16 35  1  0
 19 36  1  0
 20 37  1  0
 20 38  1  0
 21 39  1  0
 21 40  1  0
 22 41  1  0
M  END
$$$$
